@<TRIPOS>MOLECULE
*****
 46 51 0 0 0
SMALL
GASTEIGER

@<TRIPOS>ATOM
      1 C         -64.9632  -53.4437  -23.4598 C.ar    1  UNL1        0.1317
      2 C         -63.7842  -53.1247  -22.7622 C.ar    1  UNL1        0.0356
      3 C         -63.0222  -52.0245  -23.1576 C.ar    1  UNL1        0.0191
      4 C         -63.4180  -51.2508  -24.2597 C.ar    1  UNL1        0.0702
      5 C         -64.5914  -51.6052  -24.9350 C.ar    1  UNL1        0.1149
      6 N         -65.3226  -52.6742  -24.5257 N.ar    1  UNL1       -0.2279
      7 C         -67.1876  -54.6515  -23.5776 C.3     1  UNL1        0.0742
      8 C         -68.2264  -54.8216  -22.4368 C.3     1  UNL1        0.0235
      9 C         -67.6632  -55.4157  -21.1203 C.3     1  UNL1        0.0471
     10 C         -66.4275  -56.2979  -21.3674 C.3     1  UNL1        0.0252
     11 C         -65.3038  -55.5473  -22.0965 C.3     1  UNL1        0.0922
     12 N         -65.8155  -54.5374  -23.0418 N.pl3   1  UNL1       -0.2949
     13 C         -67.8963  -55.3160  -25.9354 C.3     1  UNL1        0.0018
     14 C         -67.2738  -55.7880  -24.6216 C.3     1  UNL1        0.0198
     15 C         -67.4153  -54.3388  -20.0418 C.3     1  UNL1        0.2054
     16 O         -67.7169  -54.8291  -18.7363 O.3     1  UNL1       -0.4755
     17 C         -69.0075  -54.8979  -18.1901 C.ar    1  UNL1        0.1388
     18 C         -69.1962  -55.6473  -17.0239 C.ar    1  UNL1        0.0369
     19 C         -70.4596  -55.7459  -16.4403 C.ar    1  UNL1        0.0033
     20 C         -71.5517  -55.0955  -17.0178 C.ar    1  UNL1        0.0066
     21 C         -71.3887  -54.3377  -18.1911 C.ar    1  UNL1        0.0785
     22 C         -70.1110  -54.2435  -18.7731 C.ar    1  UNL1        0.0433
     23 C         -72.5437  -53.6472  -18.8074 C.2     1  UNL1        0.3381
     24 O         -73.5003  -54.3107  -19.2920 O.2     1  UNL1       -0.2451
     25 O         -72.5853  -52.2562  -18.8582 O.3     1  UNL1       -0.4771
     26 H         -73.3713  -51.7740  -19.2779 H       1  UNL1        0.2954
     27 N         -62.6958  -50.0735  -24.6595 N.am    1  UNL1       -0.2766
     28 C         -63.3191  -48.8266  -24.9960 C.2     1  UNL1        0.2839
     29 O         -64.3797  -48.4754  -24.4128 O.2     1  UNL1       -0.2665
     30 H         -61.6517  -50.1098  -24.6580 H       1  UNL1        0.1553
     31 C         -62.6989  -47.9054  -25.9634 C.ar    1  UNL1        0.1946
     32 O         -61.8893  -46.9281  -25.5952 O.2     1  UNL1       -0.4492
     33 C         -61.5002  -46.2990  -26.6772 C.ar    1  UNL1        0.1452
     34 C         -60.6374  -45.2116  -26.7587 C.ar    1  UNL1        0.0375
     35 C         -60.3499  -44.6913  -28.0328 C.ar    1  UNL1        0.0031
     36 C         -60.9258  -45.2622  -29.2001 C.ar    1  UNL1        0.0002
     37 C         -61.8008  -46.3676  -29.0721 C.ar    1  UNL1        0.0028
     38 C         -62.0636  -46.8571  -27.7925 C.ar    1  UNL1        0.0337
     39 C         -62.8609  -47.8956  -27.3544 C.ar    1  UNL1        0.0202
     40 C         -63.7091  -48.7970  -28.2008 C.3     1  UNL1        0.0345
     41 C         -60.6141  -44.7052  -30.5408 C.ar    1  UNL1        0.0000
     42 C         -59.3528  -44.9185  -31.1291 C.ar    1  UNL1        0.0000
     43 C         -59.0626  -44.3935  -32.3922 C.ar    1  UNL1        0.0000
     44 C         -60.0244  -43.6511  -33.0809 C.ar    1  UNL1        0.0000
     45 C         -61.2792  -43.4324  -32.5081 C.ar    1  UNL1        0.0000
     46 C         -61.5753  -43.9556  -31.2456 C.ar    1  UNL1        0.0000
@<TRIPOS>BOND
     1    13    14    1
     2    14     7    1
     3     7     8    1
     4     8     9    1
     5     9    15    1
     6    15    16    1
     7    16    17    1
     8    17    18   ar
     9    18    19   ar
    10    19    20   ar
    11    20    21   ar
    12    21    23    1
    13    23    24    2
    14    23    25    1
    15    21    22   ar
    16     9    10    1
    17    10    11    1
    18    11    12    1
    19    12     1    1
    20     1     2   ar
    21     2     3   ar
    22     3     4   ar
    23     4    27    1
    24    27    28   am
    25    28    29    2
    26    28    31    1
    27    31    32   ar
    28    32    33   ar
    29    33    34   ar
    30    34    35   ar
    31    35    36   ar
    32    36    41    1
    33    41    42   ar
    34    42    43   ar
    35    43    44   ar
    36    44    45   ar
    37    45    46   ar
    38    36    37   ar
    39    37    38   ar
    40    38    39   ar
    41    39    40    1
    42     4     5   ar
    43     5     6   ar
    44    12     7    1
    45     6     1   ar
    46    22    17   ar
    47    39    31   ar
    48    38    33   ar
    49    46    41   ar
    50    25    26    1
    51    27    30    1
@<TRIPOS>MOLECULE
*****
 46 51 0 0 0
SMALL
GASTEIGER

@<TRIPOS>ATOM
      1 C         -65.0360  -53.4839  -23.5609 C.ar    1  UNL1        0.1317
      2 C         -63.9278  -53.1034  -22.7829 C.ar    1  UNL1        0.0356
      3 C         -63.1610  -52.0011  -23.1629 C.ar    1  UNL1        0.0191
      4 C         -63.4805  -51.2866  -24.3279 C.ar    1  UNL1        0.0702
      5 C         -64.5843  -51.7013  -25.0817 C.ar    1  UNL1        0.1149
      6 N         -65.3223  -52.7711  -24.6866 N.ar    1  UNL1       -0.2279
      7 C         -67.2419  -54.7151  -23.7578 C.3     1  UNL1        0.0742
      8 C         -68.3263  -54.8826  -22.6597 C.3     1  UNL1        0.0235
      9 C         -67.8135  -55.4559  -21.3137 C.3     1  UNL1        0.0471
     10 C         -66.5601  -56.3285  -21.4982 C.3     1  UNL1        0.0252
     11 C         -65.4138  -55.5751  -22.1882 C.3     1  UNL1        0.0922
     12 N         -65.8948  -54.5812  -23.1661 N.pl3   1  UNL1       -0.2949
     13 C         -67.7728  -55.3957  -26.1573 C.3     1  UNL1        0.0018
     14 C         -67.2732  -55.8644  -24.7909 C.3     1  UNL1        0.0198
     15 C         -67.6216  -54.3643  -20.2386 C.3     1  UNL1        0.2054
     16 O         -67.1082  -54.9119  -19.0253 O.3     1  UNL1       -0.4755
     17 C         -67.8906  -55.2516  -17.9113 C.ar    1  UNL1        0.1388
     18 C         -69.2528  -55.5023  -18.1079 C.ar    1  UNL1        0.0369
     19 C         -70.0736  -55.8455  -17.0331 C.ar    1  UNL1        0.0033
     20 C         -69.5407  -55.9413  -15.7462 C.ar    1  UNL1        0.0066
     21 C         -68.1750  -55.6923  -15.5219 C.ar    1  UNL1        0.0785
     22 C         -67.3544  -55.3468  -16.6116 C.ar    1  UNL1        0.0433
     23 C         -67.6059  -55.7918  -14.1593 C.2     1  UNL1        0.3381
     24 O         -68.3597  -55.9646  -13.1633 O.2     1  UNL1       -0.2451
     25 O         -66.2305  -55.6952  -13.9636 O.3     1  UNL1       -0.4771
     26 H         -65.8310  -55.7620  -13.0351 H       1  UNL1        0.2954
     27 N         -62.7549  -50.1085  -24.7191 N.am    1  UNL1       -0.2766
     28 C         -63.3695  -48.8410  -24.9878 C.2     1  UNL1        0.2839
     29 O         -64.3984  -48.4922  -24.3489 O.2     1  UNL1       -0.2665
     30 H         -61.7125  -50.1619  -24.7630 H       1  UNL1        0.1553
     31 C         -62.7740  -47.8981  -25.9498 C.ar    1  UNL1        0.1946
     32 O         -62.0347  -46.8701  -25.5721 O.2     1  UNL1       -0.4492
     33 C         -61.6493  -46.2339  -26.6513 C.ar    1  UNL1        0.1452
     34 C         -60.8492  -45.0988  -26.7232 C.ar    1  UNL1        0.0375
     35 C         -60.5527  -44.5799  -27.9957 C.ar    1  UNL1        0.0031
     36 C         -61.0574  -45.1995  -29.1712 C.ar    1  UNL1        0.0002
     37 C         -61.8700  -46.3526  -29.0529 C.ar    1  UNL1        0.0028
     38 C         -62.1438  -46.8392  -27.7746 C.ar    1  UNL1        0.0337
     39 C         -62.8926  -47.9167  -27.3451 C.ar    1  UNL1        0.0202
     40 C         -63.6598  -48.8779  -28.2030 C.3     1  UNL1        0.0345
     41 C         -60.7368  -44.6433  -30.5101 C.ar    1  UNL1        0.0000
     42 C         -61.6866  -43.8782  -31.2137 C.ar    1  UNL1        0.0000
     43 C         -61.3815  -43.3548  -32.4739 C.ar    1  UNL1        0.0000
     44 C         -60.1289  -43.5886  -33.0456 C.ar    1  UNL1        0.0000
     45 C         -59.1781  -44.3460  -32.3580 C.ar    1  UNL1        0.0000
     46 C         -59.4774  -44.8711  -31.0971 C.ar    1  UNL1        0.0000
@<TRIPOS>BOND
     1    13    14    1
     2    14     7    1
     3     7     8    1
     4     8     9    1
     5     9    15    1
     6    15    16    1
     7    16    17    1
     8    17    18   ar
     9    18    19   ar
    10    19    20   ar
    11    20    21   ar
    12    21    23    1
    13    23    24    2
    14    23    25    1
    15    21    22   ar
    16     9    10    1
    17    10    11    1
    18    11    12    1
    19    12     1    1
    20     1     2   ar
    21     2     3   ar
    22     3     4   ar
    23     4    27    1
    24    27    28   am
    25    28    29    2
    26    28    31    1
    27    31    32   ar
    28    32    33   ar
    29    33    34   ar
    30    34    35   ar
    31    35    36   ar
    32    36    41    1
    33    41    42   ar
    34    42    43   ar
    35    43    44   ar
    36    44    45   ar
    37    45    46   ar
    38    36    37   ar
    39    37    38   ar
    40    38    39   ar
    41    39    40    1
    42     4     5   ar
    43     5     6   ar
    44    12     7    1
    45     6     1   ar
    46    22    17   ar
    47    39    31   ar
    48    38    33   ar
    49    46    41   ar
    50    25    26    1
    51    27    30    1
@<TRIPOS>MOLECULE
*****
 46 51 0 0 0
SMALL
GASTEIGER

@<TRIPOS>ATOM
      1 C         -62.7159  -43.5724  -26.7473 C.ar    1  UNL1        0.1317
      2 C         -63.0615  -44.7879  -27.3649 C.ar    1  UNL1        0.0356
      3 C         -63.0054  -45.9759  -26.6348 C.ar    1  UNL1        0.0191
      4 C         -62.5860  -45.9624  -25.2955 C.ar    1  UNL1        0.0702
      5 C         -62.2405  -44.7352  -24.7183 C.ar    1  UNL1        0.1149
      6 N         -62.3128  -43.5902  -25.4456 N.ar    1  UNL1       -0.2279
      7 C         -64.1039  -41.5751  -27.4578 C.3     1  UNL1        0.0742
      8 C         -64.5237  -41.1878  -28.9012 C.3     1  UNL1        0.0235
      9 C         -63.3578  -41.0850  -29.9179 C.3     1  UNL1        0.0471
     10 C         -62.0235  -40.7425  -29.2333 C.3     1  UNL1        0.0252
     11 C         -61.6449  -41.7532  -28.1412 C.3     1  UNL1        0.0922
     12 N         -62.8227  -42.3109  -27.4505 N.pl3   1  UNL1       -0.2949
     13 C         -64.5884  -40.6572  -25.1285 C.3     1  UNL1        0.0018
     14 C         -64.0351  -40.3487  -26.5196 C.3     1  UNL1        0.0198
     15 C         -63.2538  -42.3276  -30.8287 C.3     1  UNL1        0.2054
     16 O         -62.0508  -42.3127  -31.5956 O.3     1  UNL1       -0.4755
     17 C         -61.0423  -43.2848  -31.5138 C.ar    1  UNL1        0.1388
     18 C         -60.2506  -43.5172  -32.6435 C.ar    1  UNL1        0.0369
     19 C         -59.2335  -44.4719  -32.6132 C.ar    1  UNL1        0.0033
     20 C         -58.9965  -45.2075  -31.4505 C.ar    1  UNL1        0.0066
     21 C         -59.7796  -44.9940  -30.3022 C.ar    1  UNL1        0.0785
     22 C         -60.8033  -44.0292  -30.3415 C.ar    1  UNL1        0.0433
     23 C         -59.5326  -45.7721  -29.0676 C.2     1  UNL1        0.3381
     24 O         -59.9027  -45.3270  -27.9473 O.2     1  UNL1       -0.2451
     25 O         -58.8881  -47.0049  -29.1312 O.3     1  UNL1       -0.4771
     26 H         -58.7142  -47.5452  -28.2921 H       1  UNL1        0.2954
     27 N         -62.5751  -47.1542  -24.4912 N.am    1  UNL1       -0.2766
     28 C         -61.9380  -48.3784  -24.8811 C.2     1  UNL1        0.2839
     29 O         -60.8882  -48.3476  -25.5777 O.2     1  UNL1       -0.2665
     30 H         -63.0138  -47.1152  -23.5439 H       1  UNL1        0.1553
     31 C         -62.4474  -49.6799  -24.4166 C.ar    1  UNL1        0.1946
     32 O         -61.6837  -50.5606  -23.7944 O.2     1  UNL1       -0.4492
     33 C         -62.4247  -51.6023  -23.5051 C.ar    1  UNL1        0.1452
     34 C         -62.0331  -52.7608  -22.8432 C.ar    1  UNL1        0.0375
     35 C         -63.0002  -53.7593  -22.6323 C.ar    1  UNL1        0.0031
     36 C         -64.3369  -53.5862  -23.0835 C.ar    1  UNL1        0.0002
     37 C         -64.6929  -52.3919  -23.7549 C.ar    1  UNL1        0.0028
     38 C         -63.7075  -51.4234  -23.9470 C.ar    1  UNL1        0.0337
     39 C         -63.7455  -50.1858  -24.5579 C.ar    1  UNL1        0.0202
     40 C         -64.9276  -49.5479  -25.2244 C.3     1  UNL1        0.0345
     41 C         -65.3502  -54.6471  -22.8542 C.ar    1  UNL1        0.0000
     42 C         -66.5391  -54.6765  -23.6080 C.ar    1  UNL1        0.0000
     43 C         -67.4910  -55.6774  -23.3906 C.ar    1  UNL1        0.0000
     44 C         -67.2688  -56.6576  -22.4208 C.ar    1  UNL1        0.0000
     45 C         -66.0936  -56.6394  -21.6665 C.ar    1  UNL1        0.0000
     46 C         -65.1378  -55.6414  -21.8801 C.ar    1  UNL1        0.0000
@<TRIPOS>BOND
     1    13    14    1
     2    14     7    1
     3     7     8    1
     4     8     9    1
     5     9    15    1
     6    15    16    1
     7    16    17    1
     8    17    18   ar
     9    18    19   ar
    10    19    20   ar
    11    20    21   ar
    12    21    23    1
    13    23    24    2
    14    23    25    1
    15    21    22   ar
    16     9    10    1
    17    10    11    1
    18    11    12    1
    19    12     1    1
    20     1     2   ar
    21     2     3   ar
    22     3     4   ar
    23     4    27    1
    24    27    28   am
    25    28    29    2
    26    28    31    1
    27    31    32   ar
    28    32    33   ar
    29    33    34   ar
    30    34    35   ar
    31    35    36   ar
    32    36    41    1
    33    41    42   ar
    34    42    43   ar
    35    43    44   ar
    36    44    45   ar
    37    45    46   ar
    38    36    37   ar
    39    37    38   ar
    40    38    39   ar
    41    39    40    1
    42     4     5   ar
    43     5     6   ar
    44    12     7    1
    45     6     1   ar
    46    22    17   ar
    47    39    31   ar
    48    38    33   ar
    49    46    41   ar
    50    25    26    1
    51    27    30    1
@<TRIPOS>MOLECULE
*****
 46 51 0 0 0
SMALL
GASTEIGER

@<TRIPOS>ATOM
      1 C         -62.1690  -43.5329  -26.3775 C.ar    1  UNL1        0.1317
      2 C         -61.0703  -43.8302  -25.5512 C.ar    1  UNL1        0.0356
      3 C         -61.0638  -45.0102  -24.8062 C.ar    1  UNL1        0.0191
      4 C         -62.1577  -45.8876  -24.8639 C.ar    1  UNL1        0.0702
      5 C         -63.2370  -45.5530  -25.6894 C.ar    1  UNL1        0.1149
      6 N         -63.2165  -44.4039  -26.4136 N.ar    1  UNL1       -0.2279
      7 C         -63.4738  -41.7719  -27.6492 C.3     1  UNL1        0.0742
      8 C         -63.5039  -41.5510  -29.1854 C.3     1  UNL1        0.0235
      9 C         -62.1134  -41.3947  -29.8528 C.3     1  UNL1        0.0471
     10 C         -61.0613  -40.8471  -28.8732 C.3     1  UNL1        0.0252
     11 C         -60.9162  -41.7178  -27.6168 C.3     1  UNL1        0.0922
     12 N         -62.1860  -42.3516  -27.2153 N.pl3   1  UNL1       -0.2949
     13 C         -64.4068  -40.7631  -25.5010 C.3     1  UNL1        0.0018
     14 C         -63.7811  -40.4755  -26.8656 C.3     1  UNL1        0.0198
     15 C         -61.6472  -42.6849  -30.5615 C.3     1  UNL1        0.2054
     16 O         -62.5500  -43.7643  -30.3265 O.3     1  UNL1       -0.4755
     17 C         -62.2189  -44.9454  -29.6452 C.ar    1  UNL1        0.1388
     18 C         -60.9369  -45.0587  -29.0967 C.ar    1  UNL1        0.0369
     19 C         -60.5588  -46.2119  -28.4084 C.ar    1  UNL1        0.0033
     20 C         -61.4600  -47.2680  -28.2611 C.ar    1  UNL1        0.0066
     21 C         -62.7539  -47.1795  -28.8047 C.ar    1  UNL1        0.0785
     22 C         -63.1269  -46.0128  -29.4974 C.ar    1  UNL1        0.0433
     23 C         -63.7124  -48.2969  -28.6518 C.2     1  UNL1        0.3381
     24 O         -63.7188  -48.9935  -27.6007 O.2     1  UNL1       -0.2451
     25 O         -64.6176  -48.5902  -29.6685 O.3     1  UNL1       -0.4771
     26 H         -65.2776  -49.3528  -29.5737 H       1  UNL1        0.2954
     27 N         -62.1623  -47.1424  -24.1618 N.am    1  UNL1       -0.2766
     28 C         -61.6639  -48.3699  -24.7107 C.2     1  UNL1        0.2839
     29 O         -60.6873  -48.3525  -25.5072 O.2     1  UNL1       -0.2665
     30 H         -62.5027  -47.1549  -23.1741 H       1  UNL1        0.1553
     31 C         -62.2262  -49.6678  -24.3006 C.ar    1  UNL1        0.1946
     32 O         -61.4809  -50.6407  -23.8066 O.2     1  UNL1       -0.4492
     33 C         -62.2689  -51.6518  -23.5333 C.ar    1  UNL1        0.1452
     34 C         -61.9101  -52.8803  -22.9896 C.ar    1  UNL1        0.0375
     35 C         -62.9257  -53.8281  -22.7729 C.ar    1  UNL1        0.0031
     36 C         -64.2775  -53.5357  -23.1010 C.ar    1  UNL1        0.0002
     37 C         -64.5991  -52.2731  -23.6546 C.ar    1  UNL1        0.0028
     38 C         -63.5659  -51.3578  -23.8561 C.ar    1  UNL1        0.0337
     39 C         -63.5636  -50.0772  -24.3722 C.ar    1  UNL1        0.0202
     40 C         -64.7453  -49.3157  -24.8937 C.3     1  UNL1        0.0345
     41 C         -65.3421  -54.5439  -22.8668 C.ar    1  UNL1        0.0000
     42 C         -65.2103  -55.4991  -21.8408 C.ar    1  UNL1        0.0000
     43 C         -66.2151  -56.4466  -21.6219 C.ar    1  UNL1        0.0000
     44 C         -67.3596  -56.4526  -22.4223 C.ar    1  UNL1        0.0000
     45 C         -67.5022  -55.5105  -23.4433 C.ar    1  UNL1        0.0000
     46 C         -66.5011  -54.5600  -23.6663 C.ar    1  UNL1        0.0000
@<TRIPOS>BOND
     1    13    14    1
     2    14     7    1
     3     7     8    1
     4     8     9    1
     5     9    15    1
     6    15    16    1
     7    16    17    1
     8    17    18   ar
     9    18    19   ar
    10    19    20   ar
    11    20    21   ar
    12    21    23    1
    13    23    24    2
    14    23    25    1
    15    21    22   ar
    16     9    10    1
    17    10    11    1
    18    11    12    1
    19    12     1    1
    20     1     2   ar
    21     2     3   ar
    22     3     4   ar
    23     4    27    1
    24    27    28   am
    25    28    29    2
    26    28    31    1
    27    31    32   ar
    28    32    33   ar
    29    33    34   ar
    30    34    35   ar
    31    35    36   ar
    32    36    41    1
    33    41    42   ar
    34    42    43   ar
    35    43    44   ar
    36    44    45   ar
    37    45    46   ar
    38    36    37   ar
    39    37    38   ar
    40    38    39   ar
    41    39    40    1
    42     4     5   ar
    43     5     6   ar
    44    12     7    1
    45     6     1   ar
    46    22    17   ar
    47    39    31   ar
    48    38    33   ar
    49    46    41   ar
    50    25    26    1
    51    27    30    1
@<TRIPOS>MOLECULE
*****
 46 51 0 0 0
SMALL
GASTEIGER

@<TRIPOS>ATOM
      1 C         -63.4082  -42.8995  -20.6667 C.ar    1  UNL1        0.1317
      2 C         -62.8690  -42.0483  -21.6481 C.ar    1  UNL1        0.0356
      3 C         -62.3604  -42.5891  -22.8297 C.ar    1  UNL1        0.0191
      4 C         -62.3668  -43.9781  -23.0306 C.ar    1  UNL1        0.0702
      5 C         -62.9023  -44.7936  -22.0273 C.ar    1  UNL1        0.1149
      6 N         -63.4013  -44.2439  -20.8897 N.ar    1  UNL1       -0.2279
      7 C         -65.3967  -42.7226  -19.1061 C.3     1  UNL1        0.0742
      8 C         -66.2335  -41.4541  -18.7899 C.3     1  UNL1        0.0235
      9 C         -65.4111  -40.2253  -18.3237 C.3     1  UNL1        0.0471
     10 C         -64.0892  -40.6365  -17.6528 C.3     1  UNL1        0.0252
     11 C         -63.2118  -41.5071  -18.5637 C.3     1  UNL1        0.0922
     12 N         -64.0043  -42.3739  -19.4559 N.pl3   1  UNL1       -0.2949
     13 C         -65.5215  -45.1862  -18.4595 C.3     1  UNL1        0.0018
     14 C         -65.4292  -43.7481  -17.9500 C.3     1  UNL1        0.0198
     15 C         -65.2062  -39.1873  -19.4483 C.3     1  UNL1        0.2054
     16 O         -65.4951  -37.8652  -18.9966 O.3     1  UNL1       -0.4755
     17 C         -64.5554  -36.8259  -18.9226 C.ar    1  UNL1        0.1388
     18 C         -64.6253  -35.9431  -17.8395 C.ar    1  UNL1        0.0369
     19 C         -63.7132  -34.8942  -17.7190 C.ar    1  UNL1        0.0033
     20 C         -62.7191  -34.7149  -18.6827 C.ar    1  UNL1        0.0066
     21 C         -62.6288  -35.5874  -19.7818 C.ar    1  UNL1        0.0785
     22 C         -63.5527  -36.6427  -19.8956 C.ar    1  UNL1        0.0433
     23 C         -61.5771  -35.4007  -20.8063 C.2     1  UNL1        0.3381
     24 O         -61.8882  -35.1687  -22.0061 O.2     1  UNL1       -0.2451
     25 O         -60.2319  -35.4796  -20.4549 O.3     1  UNL1       -0.4771
     26 H         -59.5045  -35.3534  -21.1485 H       1  UNL1        0.2954
     27 N         -61.9108  -44.5697  -24.2593 N.am    1  UNL1       -0.2766
     28 C         -60.6866  -44.2121  -24.9151 C.2     1  UNL1        0.2839
     29 O         -59.6848  -43.8666  -24.2330 O.2     1  UNL1       -0.2665
     30 H         -62.4777  -45.3417  -24.6764 H       1  UNL1        0.1553
     31 C         -60.5522  -44.3139  -26.3782 C.ar    1  UNL1        0.1946
     32 O         -59.8217  -45.2481  -26.9611 O.2     1  UNL1       -0.4492
     33 C         -59.9110  -45.0779  -28.2576 C.ar    1  UNL1        0.1452
     34 C         -59.3101  -45.8396  -29.2537 C.ar    1  UNL1        0.0375
     35 C         -59.5460  -45.4802  -30.5923 C.ar    1  UNL1        0.0031
     36 C         -60.3745  -44.3708  -30.9138 C.ar    1  UNL1        0.0002
     37 C         -60.9655  -43.6208  -29.8687 C.ar    1  UNL1        0.0028
     38 C         -60.7090  -44.0060  -28.5528 C.ar    1  UNL1        0.0337
     39 C         -61.1271  -43.4811  -27.3462 C.ar    1  UNL1        0.0202
     40 C         -62.0001  -42.2791  -27.1425 C.3     1  UNL1        0.0345
     41 C         -60.6176  -44.0010  -32.3312 C.ar    1  UNL1        0.0000
     42 C         -61.8823  -43.5399  -32.7440 C.ar    1  UNL1        0.0000
     43 C         -62.1080  -43.1913  -34.0792 C.ar    1  UNL1        0.0000
     44 C         -61.0775  -43.2992  -35.0157 C.ar    1  UNL1        0.0000
     45 C         -59.8186  -43.7553  -34.6189 C.ar    1  UNL1        0.0000
     46 C         -59.5869  -44.1045  -33.2849 C.ar    1  UNL1        0.0000
@<TRIPOS>BOND
     1    13    14    1
     2    14     7    1
     3     7     8    1
     4     8     9    1
     5     9    15    1
     6    15    16    1
     7    16    17    1
     8    17    18   ar
     9    18    19   ar
    10    19    20   ar
    11    20    21   ar
    12    21    23    1
    13    23    24    2
    14    23    25    1
    15    21    22   ar
    16     9    10    1
    17    10    11    1
    18    11    12    1
    19    12     1    1
    20     1     2   ar
    21     2     3   ar
    22     3     4   ar
    23     4    27    1
    24    27    28   am
    25    28    29    2
    26    28    31    1
    27    31    32   ar
    28    32    33   ar
    29    33    34   ar
    30    34    35   ar
    31    35    36   ar
    32    36    41    1
    33    41    42   ar
    34    42    43   ar
    35    43    44   ar
    36    44    45   ar
    37    45    46   ar
    38    36    37   ar
    39    37    38   ar
    40    38    39   ar
    41    39    40    1
    42     4     5   ar
    43     5     6   ar
    44    12     7    1
    45     6     1   ar
    46    22    17   ar
    47    39    31   ar
    48    38    33   ar
    49    46    41   ar
    50    25    26    1
    51    27    30    1
@<TRIPOS>MOLECULE
*****
 46 51 0 0 0
SMALL
GASTEIGER

@<TRIPOS>ATOM
      1 C         -65.2214  -40.3567  -21.0636 C.ar    1  UNL1        0.1317
      2 C         -66.2645  -40.4907  -21.9976 C.ar    1  UNL1        0.0356
      3 C         -65.9872  -40.4021  -23.3624 C.ar    1  UNL1        0.0191
      4 C         -64.6768  -40.1593  -23.8023 C.ar    1  UNL1        0.0702
      5 C         -63.6671  -40.0215  -22.8432 C.ar    1  UNL1        0.1149
      6 N         -63.9590  -40.1219  -21.5203 N.ar    1  UNL1       -0.2279
      7 C         -64.4000  -40.1412  -18.6762 C.3     1  UNL1        0.0742
      8 C         -64.1393  -41.2893  -17.6646 C.3     1  UNL1        0.0235
      9 C         -65.3278  -42.2629  -17.4570 C.3     1  UNL1        0.0471
     10 C         -66.6813  -41.5910  -17.7449 C.3     1  UNL1        0.0252
     11 C         -66.7587  -41.0047  -19.1619 C.3     1  UNL1        0.0922
     12 N         -65.4563  -40.5065  -19.6424 N.pl3   1  UNL1       -0.2949
     13 C         -64.5130  -37.6022  -18.8845 C.3     1  UNL1        0.0018
     14 C         -64.7403  -38.8077  -17.9727 C.3     1  UNL1        0.0198
     15 C         -65.1497  -43.5892  -18.2276 C.3     1  UNL1        0.2054
     16 O         -64.9441  -43.3594  -19.6206 O.3     1  UNL1       -0.4755
     17 C         -63.7680  -43.6801  -20.3154 C.ar    1  UNL1        0.1388
     18 C         -63.7194  -44.8901  -21.0159 C.ar    1  UNL1        0.0369
     19 C         -62.5739  -45.2547  -21.7240 C.ar    1  UNL1        0.0033
     20 C         -61.4609  -44.4119  -21.7392 C.ar    1  UNL1        0.0066
     21 C         -61.4838  -43.1912  -21.0416 C.ar    1  UNL1        0.0785
     22 C         -62.6433  -42.8313  -20.3300 C.ar    1  UNL1        0.0433
     23 C         -60.3060  -42.2950  -21.0541 C.2     1  UNL1        0.3381
     24 O         -60.3052  -41.2317  -20.3763 O.2     1  UNL1       -0.2451
     25 O         -59.1856  -42.6178  -21.8156 O.3     1  UNL1       -0.4771
     26 H         -58.3744  -42.0112  -21.8310 H       1  UNL1        0.2954
     27 N         -64.3392  -40.1243  -25.1996 N.am    1  UNL1       -0.2766
     28 C         -65.0761  -40.8120  -26.2197 C.2     1  UNL1        0.2839
     29 O         -66.3227  -40.9583  -26.1054 O.2     1  UNL1       -0.2665
     30 H         -63.5394  -39.5230  -25.4999 H       1  UNL1        0.1553
     31 C         -64.4118  -41.2885  -27.4447 C.ar    1  UNL1        0.1946
     32 O         -64.9533  -41.1586  -28.6430 O.2     1  UNL1       -0.4492
     33 C         -64.1209  -41.6680  -29.5179 C.ar    1  UNL1        0.1452
     34 C         -64.2816  -41.7364  -30.8974 C.ar    1  UNL1        0.0375
     35 C         -63.2528  -42.3256  -31.6533 C.ar    1  UNL1        0.0031
     36 C         -62.0851  -42.8348  -31.0227 C.ar    1  UNL1        0.0002
     37 C         -61.9627  -42.7467  -29.6152 C.ar    1  UNL1        0.0028
     38 C         -63.0031  -42.1564  -28.8975 C.ar    1  UNL1        0.0337
     39 C         -63.1739  -41.9357  -27.5453 C.ar    1  UNL1        0.0202
     40 C         -62.2300  -42.3191  -26.4452 C.3     1  UNL1        0.0345
     41 C         -61.0044  -43.4540  -31.8312 C.ar    1  UNL1        0.0000
     42 C         -59.9990  -44.2222  -31.2137 C.ar    1  UNL1        0.0000
     43 C         -58.9832  -44.8049  -31.9778 C.ar    1  UNL1        0.0000
     44 C         -58.9584  -44.6279  -33.3629 C.ar    1  UNL1        0.0000
     45 C         -59.9499  -43.8681  -33.9874 C.ar    1  UNL1        0.0000
     46 C         -60.9686  -43.2837  -33.2285 C.ar    1  UNL1        0.0000
@<TRIPOS>BOND
     1    13    14    1
     2    14     7    1
     3     7     8    1
     4     8     9    1
     5     9    15    1
     6    15    16    1
     7    16    17    1
     8    17    18   ar
     9    18    19   ar
    10    19    20   ar
    11    20    21   ar
    12    21    23    1
    13    23    24    2
    14    23    25    1
    15    21    22   ar
    16     9    10    1
    17    10    11    1
    18    11    12    1
    19    12     1    1
    20     1     2   ar
    21     2     3   ar
    22     3     4   ar
    23     4    27    1
    24    27    28   am
    25    28    29    2
    26    28    31    1
    27    31    32   ar
    28    32    33   ar
    29    33    34   ar
    30    34    35   ar
    31    35    36   ar
    32    36    41    1
    33    41    42   ar
    34    42    43   ar
    35    43    44   ar
    36    44    45   ar
    37    45    46   ar
    38    36    37   ar
    39    37    38   ar
    40    38    39   ar
    41    39    40    1
    42     4     5   ar
    43     5     6   ar
    44    12     7    1
    45     6     1   ar
    46    22    17   ar
    47    39    31   ar
    48    38    33   ar
    49    46    41   ar
    50    25    26    1
    51    27    30    1
@<TRIPOS>MOLECULE
*****
 46 51 0 0 0
SMALL
GASTEIGER

@<TRIPOS>ATOM
      1 C         -61.7259  -44.5069  -28.2006 C.ar    1  UNL1        0.1317
      2 C         -60.9122  -45.6496  -28.0985 C.ar    1  UNL1        0.0356
      3 C         -61.1752  -46.6006  -27.1117 C.ar    1  UNL1        0.0191
      4 C         -62.2341  -46.4089  -26.2106 C.ar    1  UNL1        0.0702
      5 C         -63.0153  -45.2548  -26.3371 C.ar    1  UNL1        0.1149
      6 N         -62.7469  -44.3479  -27.3121 N.ar    1  UNL1       -0.2279
      7 C         -62.1396  -42.1897  -29.1388 C.3     1  UNL1        0.0742
      8 C         -62.9312  -41.8230  -30.4227 C.3     1  UNL1        0.0235
      9 C         -62.4741  -42.5597  -31.7079 C.3     1  UNL1        0.0471
     10 C         -60.9963  -42.9810  -31.6369 C.3     1  UNL1        0.0252
     11 C         -60.6939  -43.8672  -30.4200 C.3     1  UNL1        0.0922
     12 N         -61.5265  -43.5293  -29.2504 N.pl3   1  UNL1       -0.2949
     13 C         -61.3361  -39.7944  -29.4845 C.3     1  UNL1        0.0018
     14 C         -61.0729  -41.1282  -28.7861 C.3     1  UNL1        0.0198
     15 C         -63.4063  -43.7320  -32.0830 C.3     1  UNL1        0.2054
     16 O         -63.9125  -44.3880  -30.9215 O.3     1  UNL1       -0.4755
     17 C         -64.4196  -45.6961  -30.9032 C.ar    1  UNL1        0.1388
     18 C         -65.3624  -46.0566  -31.8718 C.ar    1  UNL1        0.0369
     19 C         -65.8961  -47.3455  -31.8977 C.ar    1  UNL1        0.0033
     20 C         -65.4927  -48.2907  -30.9526 C.ar    1  UNL1        0.0066
     21 C         -64.5479  -47.9527  -29.9676 C.ar    1  UNL1        0.0785
     22 C         -64.0148  -46.6505  -29.9488 C.ar    1  UNL1        0.0433
     23 C         -64.1180  -48.9511  -28.9631 C.2     1  UNL1        0.3381
     24 O         -63.6721  -48.5797  -27.8436 O.2     1  UNL1       -0.2451
     25 O         -64.2018  -50.3123  -29.2450 O.3     1  UNL1       -0.4771
     26 H         -63.9102  -51.0037  -28.5644 H       1  UNL1        0.2954
     27 N         -62.5769  -47.3943  -25.2212 N.am    1  UNL1       -0.2766
     28 C         -61.7387  -48.5040  -24.8711 C.2     1  UNL1        0.2839
     29 O         -60.4849  -48.3816  -24.9066 O.2     1  UNL1       -0.2665
     30 H         -63.4666  -47.2703  -24.6877 H       1  UNL1        0.1553
     31 C         -62.3181  -49.7713  -24.3942 C.ar    1  UNL1        0.1946
     32 O         -61.5902  -50.7146  -23.8229 O.2     1  UNL1       -0.4492
     33 C         -62.3902  -51.7033  -23.5059 C.ar    1  UNL1        0.1452
     34 C         -62.0514  -52.8969  -22.8783 C.ar    1  UNL1        0.0375
     35 C         -63.0773  -53.8249  -22.6270 C.ar    1  UNL1        0.0031
     36 C         -64.4193  -53.5477  -23.0048 C.ar    1  UNL1        0.0002
     37 C         -64.7205  -52.3208  -23.6435 C.ar    1  UNL1        0.0028
     38 C         -63.6775  -51.4244  -23.8771 C.ar    1  UNL1        0.0337
     39 C         -63.6557  -50.1786  -24.4719 C.ar    1  UNL1        0.0202
     40 C         -64.8204  -49.4461  -25.0679 C.3     1  UNL1        0.0345
     41 C         -65.4949  -54.5347  -22.7334 C.ar    1  UNL1        0.0000
     42 C         -66.7978  -54.3269  -23.2250 C.ar    1  UNL1        0.0000
     43 C         -67.8085  -55.2587  -22.9689 C.ar    1  UNL1        0.0000
     44 C         -67.5319  -56.4051  -22.2206 C.ar    1  UNL1        0.0000
     45 C         -66.2436  -56.6227  -21.7273 C.ar    1  UNL1        0.0000
     46 C         -65.2288  -55.6948  -21.9811 C.ar    1  UNL1        0.0000
@<TRIPOS>BOND
     1    13    14    1
     2    14     7    1
     3     7     8    1
     4     8     9    1
     5     9    15    1
     6    15    16    1
     7    16    17    1
     8    17    18   ar
     9    18    19   ar
    10    19    20   ar
    11    20    21   ar
    12    21    23    1
    13    23    24    2
    14    23    25    1
    15    21    22   ar
    16     9    10    1
    17    10    11    1
    18    11    12    1
    19    12     1    1
    20     1     2   ar
    21     2     3   ar
    22     3     4   ar
    23     4    27    1
    24    27    28   am
    25    28    29    2
    26    28    31    1
    27    31    32   ar
    28    32    33   ar
    29    33    34   ar
    30    34    35   ar
    31    35    36   ar
    32    36    41    1
    33    41    42   ar
    34    42    43   ar
    35    43    44   ar
    36    44    45   ar
    37    45    46   ar
    38    36    37   ar
    39    37    38   ar
    40    38    39   ar
    41    39    40    1
    42     4     5   ar
    43     5     6   ar
    44    12     7    1
    45     6     1   ar
    46    22    17   ar
    47    39    31   ar
    48    38    33   ar
    49    46    41   ar
    50    25    26    1
    51    27    30    1
@<TRIPOS>MOLECULE
*****
 46 51 0 0 0
SMALL
GASTEIGER

@<TRIPOS>ATOM
      1 C         -66.7156  -54.9694  -22.8674 C.ar    1  UNL1        0.1317
      2 C         -65.5370  -54.8680  -22.1066 C.ar    1  UNL1        0.0356
      3 C         -64.5102  -54.0231  -22.5300 C.ar    1  UNL1        0.0191
      4 C         -64.6429  -53.2926  -23.7210 C.ar    1  UNL1        0.0702
      5 C         -65.8259  -53.4271  -24.4564 C.ar    1  UNL1        0.1149
      6 N         -66.8161  -54.2478  -24.0192 N.ar    1  UNL1       -0.2279
      7 C         -69.1718  -55.5754  -23.0102 C.3     1  UNL1        0.0742
      8 C         -70.2465  -55.4107  -21.9023 C.3     1  UNL1        0.0235
      9 C         -69.8861  -56.0535  -20.5383 C.3     1  UNL1        0.0471
     10 C         -68.9123  -57.2338  -20.6959 C.3     1  UNL1        0.0252
     11 C         -67.6166  -56.8365  -21.4177 C.3     1  UNL1        0.0922
     12 N         -67.8296  -55.7845  -22.4293 N.pl3   1  UNL1       -0.2949
     13 C         -70.8780  -56.4903  -24.6699 C.3     1  UNL1        0.0018
     14 C         -69.5215  -56.7095  -24.0004 C.3     1  UNL1        0.0198
     15 C         -69.3964  -55.0162  -19.5046 C.3     1  UNL1        0.2054
     16 O         -69.9221  -55.2859  -18.2060 O.3     1  UNL1       -0.4755
     17 C         -69.1415  -55.5179  -17.0634 C.ar    1  UNL1        0.1388
     18 C         -69.7747  -56.0007  -15.9132 C.ar    1  UNL1        0.0369
     19 C         -69.0430  -56.2492  -14.7515 C.ar    1  UNL1        0.0033
     20 C         -67.6666  -56.0164  -14.7263 C.ar    1  UNL1        0.0066
     21 C         -67.0069  -55.5294  -15.8686 C.ar    1  UNL1        0.0785
     22 C         -67.7526  -55.2815  -17.0360 C.ar    1  UNL1        0.0433
     23 C         -65.5482  -55.2802  -15.8463 C.2     1  UNL1        0.3381
     24 O         -64.7432  -56.1625  -16.2509 O.2     1  UNL1       -0.2451
     25 O         -65.0497  -54.0673  -15.3776 O.3     1  UNL1       -0.4771
     26 H         -64.0530  -53.8869  -15.3581 H       1  UNL1        0.2954
     27 N         -63.6358  -52.3641  -24.1584 N.am    1  UNL1       -0.2766
     28 C         -62.6861  -51.7408  -23.2833 C.2     1  UNL1        0.2839
     29 O         -62.2560  -52.3631  -22.2753 O.2     1  UNL1       -0.2665
     30 H         -63.5560  -52.1672  -25.1813 H       1  UNL1        0.1553
     31 C         -62.1413  -50.4056  -23.5827 C.ar    1  UNL1        0.1946
     32 O         -60.9591  -50.0068  -23.1476 O.2     1  UNL1       -0.4492
     33 C         -60.7598  -48.7875  -23.5852 C.ar    1  UNL1        0.1452
     34 C         -59.6439  -47.9852  -23.3739 C.ar    1  UNL1        0.0375
     35 C         -59.6374  -46.7001  -23.9440 C.ar    1  UNL1        0.0031
     36 C         -60.7402  -46.2383  -24.7127 C.ar    1  UNL1        0.0002
     37 C         -61.8575  -47.0867  -24.9018 C.ar    1  UNL1        0.0028
     38 C         -61.8295  -48.3548  -24.3211 C.ar    1  UNL1        0.0337
     39 C         -62.7499  -49.3839  -24.3222 C.ar    1  UNL1        0.0202
     40 C         -64.1002  -49.3819  -24.9742 C.3     1  UNL1        0.0345
     41 C         -60.7220  -44.8794  -25.3111 C.ar    1  UNL1        0.0000
     42 C         -60.8758  -44.7067  -26.7000 C.ar    1  UNL1        0.0000
     43 C         -60.8593  -43.4258  -27.2605 C.ar    1  UNL1        0.0000
     44 C         -60.6889  -42.3054  -26.4443 C.ar    1  UNL1        0.0000
     45 C         -60.5352  -42.4634  -25.0652 C.ar    1  UNL1        0.0000
     46 C         -60.5517  -43.7418  -24.4990 C.ar    1  UNL1        0.0000
@<TRIPOS>BOND
     1    13    14    1
     2    14     7    1
     3     7     8    1
     4     8     9    1
     5     9    15    1
     6    15    16    1
     7    16    17    1
     8    17    18   ar
     9    18    19   ar
    10    19    20   ar
    11    20    21   ar
    12    21    23    1
    13    23    24    2
    14    23    25    1
    15    21    22   ar
    16     9    10    1
    17    10    11    1
    18    11    12    1
    19    12     1    1
    20     1     2   ar
    21     2     3   ar
    22     3     4   ar
    23     4    27    1
    24    27    28   am
    25    28    29    2
    26    28    31    1
    27    31    32   ar
    28    32    33   ar
    29    33    34   ar
    30    34    35   ar
    31    35    36   ar
    32    36    41    1
    33    41    42   ar
    34    42    43   ar
    35    43    44   ar
    36    44    45   ar
    37    45    46   ar
    38    36    37   ar
    39    37    38   ar
    40    38    39   ar
    41    39    40    1
    42     4     5   ar
    43     5     6   ar
    44    12     7    1
    45     6     1   ar
    46    22    17   ar
    47    39    31   ar
    48    38    33   ar
    49    46    41   ar
    50    25    26    1
    51    27    30    1
@<TRIPOS>MOLECULE
*****
 46 51 0 0 0
SMALL
GASTEIGER

@<TRIPOS>ATOM
      1 C         -66.4438  -54.9152  -22.8701 C.ar    1  UNL1        0.1317
      2 C         -65.1928  -55.0085  -22.2341 C.ar    1  UNL1        0.0356
      3 C         -64.1515  -54.1671  -22.6281 C.ar    1  UNL1        0.0191
      4 C         -64.3438  -53.2454  -23.6688 C.ar    1  UNL1        0.0702
      5 C         -65.5992  -53.1887  -24.2845 C.ar    1  UNL1        0.1149
      6 N         -66.6011  -54.0105  -23.8771 N.ar    1  UNL1       -0.2279
      7 C         -68.7582  -55.8461  -23.3144 C.3     1  UNL1        0.0742
      8 C         -70.0616  -55.5390  -22.5292 C.3     1  UNL1        0.0235
      9 C         -69.9704  -55.7554  -20.9968 C.3     1  UNL1        0.0471
     10 C         -68.9063  -56.8019  -20.6240 C.3     1  UNL1        0.0252
     11 C         -67.5132  -56.4428  -21.1605 C.3     1  UNL1        0.0922
     12 N         -67.5680  -55.7246  -22.4476 N.pl3   1  UNL1       -0.2949
     13 C         -68.2271  -57.1943  -25.4128 C.3     1  UNL1        0.0018
     14 C         -68.7987  -57.2329  -23.9957 C.3     1  UNL1        0.0198
     15 C         -69.7967  -54.4322  -20.2202 C.3     1  UNL1        0.2054
     16 O         -71.0508  -53.7889  -19.9988 O.3     1  UNL1       -0.4755
     17 C         -71.6643  -53.6506  -18.7445 C.ar    1  UNL1        0.1388
     18 C         -71.3570  -54.5835  -17.7483 C.ar    1  UNL1        0.0369
     19 C         -71.9390  -54.4891  -16.4837 C.ar    1  UNL1        0.0033
     20 C         -72.8376  -53.4589  -16.2004 C.ar    1  UNL1        0.0066
     21 C         -73.1644  -52.5097  -17.1851 C.ar    1  UNL1        0.0785
     22 C         -72.5729  -52.6124  -18.4577 C.ar    1  UNL1        0.0433
     23 C         -74.1172  -51.4164  -16.8895 C.2     1  UNL1        0.3381
     24 O         -75.2006  -51.3231  -17.5281 O.2     1  UNL1       -0.2451
     25 O         -73.8262  -50.4786  -15.9020 O.3     1  UNL1       -0.4771
     26 H         -74.4716  -49.7265  -15.6921 H       1  UNL1        0.2954
     27 N         -63.3172  -52.3183  -24.0614 N.am    1  UNL1       -0.2766
     28 C         -62.5820  -51.4999  -23.1415 C.2     1  UNL1        0.2839
     29 O         -62.3224  -51.9294  -21.9854 O.2     1  UNL1       -0.2665
     30 H         -63.0536  -52.2712  -25.0712 H       1  UNL1        0.1553
     31 C         -62.0542  -50.1867  -23.5492 C.ar    1  UNL1        0.1946
     32 O         -60.9015  -49.7160  -23.1070 O.2     1  UNL1       -0.4492
     33 C         -60.7102  -48.5408  -23.6550 C.ar    1  UNL1        0.1452
     34 C         -59.6227  -47.6925  -23.4781 C.ar    1  UNL1        0.0375
     35 C         -59.6195  -46.4699  -24.1724 C.ar    1  UNL1        0.0031
     36 C         -60.6973  -46.1152  -25.0285 C.ar    1  UNL1        0.0002
     37 C         -61.7861  -47.0074  -25.1787 C.ar    1  UNL1        0.0028
     38 C         -61.7556  -48.2110  -24.4742 C.ar    1  UNL1        0.0337
     39 C         -62.6521  -49.2591  -24.4114 C.ar    1  UNL1        0.0202
     40 C         -63.9720  -49.3570  -25.1160 C.3     1  UNL1        0.0345
     41 C         -60.6828  -44.8218  -25.7578 C.ar    1  UNL1        0.0000
     42 C         -60.6370  -43.6034  -25.0537 C.ar    1  UNL1        0.0000
     43 C         -60.6223  -42.3871  -25.7432 C.ar    1  UNL1        0.0000
     44 C         -60.6538  -42.3721  -27.1394 C.ar    1  UNL1        0.0000
     45 C         -60.6994  -43.5739  -27.8494 C.ar    1  UNL1        0.0000
     46 C         -60.7134  -44.7933  -27.1652 C.ar    1  UNL1        0.0000
@<TRIPOS>BOND
     1    13    14    1
     2    14     7    1
     3     7     8    1
     4     8     9    1
     5     9    15    1
     6    15    16    1
     7    16    17    1
     8    17    18   ar
     9    18    19   ar
    10    19    20   ar
    11    20    21   ar
    12    21    23    1
    13    23    24    2
    14    23    25    1
    15    21    22   ar
    16     9    10    1
    17    10    11    1
    18    11    12    1
    19    12     1    1
    20     1     2   ar
    21     2     3   ar
    22     3     4   ar
    23     4    27    1
    24    27    28   am
    25    28    29    2
    26    28    31    1
    27    31    32   ar
    28    32    33   ar
    29    33    34   ar
    30    34    35   ar
    31    35    36   ar
    32    36    41    1
    33    41    42   ar
    34    42    43   ar
    35    43    44   ar
    36    44    45   ar
    37    45    46   ar
    38    36    37   ar
    39    37    38   ar
    40    38    39   ar
    41    39    40    1
    42     4     5   ar
    43     5     6   ar
    44    12     7    1
    45     6     1   ar
    46    22    17   ar
    47    39    31   ar
    48    38    33   ar
    49    46    41   ar
    50    25    26    1
    51    27    30    1
