@<TRIPOS>MOLECULE
*****
 45 50 0 0 0
SMALL
GASTEIGER

@<TRIPOS>ATOM
      1 C          11.4786   80.9535   25.1983 C.ar    1  UNL1        0.0702
      2 C          12.4115   81.5312   26.0663 C.ar    1  UNL1        0.0191
      3 C          13.2200   82.5834   25.6338 C.ar    1  UNL1        0.0356
      4 C          13.1061   83.0520   24.3121 C.ar    1  UNL1        0.1318
      5 N          12.2080   82.4531   23.4799 N.ar    1  UNL1       -0.2279
      6 C          11.4081   81.4300   23.8803 C.ar    1  UNL1        0.1149
      7 N          13.9182   84.1477   23.8268 N.pl3   1  UNL1       -0.2932
      8 C          13.6436   85.5326   24.2513 C.3     1  UNL1        0.0923
      9 C          14.3764   86.5570   23.3720 C.3     1  UNL1        0.0252
     10 C          14.2733   86.1499   21.8917 C.3     1  UNL1        0.0472
     11 C          14.9110   84.7570   21.6370 C.3     1  UNL1        0.0252
     12 C          15.0407   83.9002   22.9077 C.3     1  UNL1        0.0923
     13 C          14.9006   87.2295   20.9892 C.3     1  UNL1        0.2055
     14 O          13.9815   87.6536   19.9808 O.3     1  UNL1       -0.4732
     15 C          14.2122   87.6186   18.5952 C.ar    1  UNL1        0.1660
     16 C          14.2631   88.7822   17.8053 C.ar    1  UNL1        0.0392
     17 C          14.4944   88.6896   16.4328 C.ar    1  UNL1        0.0035
     18 C          14.6777   87.4435   15.8316 C.ar    1  UNL1        0.0089
     19 C          14.6304   86.2677   16.6001 C.ar    1  UNL1        0.1059
     20 C          14.4043   86.3688   17.9888 C.ar    1  UNL1        0.1800
     21 F          14.3399   85.2523   18.7596 F       1  UNL1       -0.2008
     22 C          14.8364   84.9454   15.9591 C.2     1  UNL1        0.3403
     23 O          15.7339   84.1716   16.3860 O.2     1  UNL1       -0.2450
     24 O          14.0513   84.5262   14.8860 O.3     1  UNL1       -0.4770
     25 H          13.2556   85.0575   14.5562 H       1  UNL1        0.2954
     26 C          11.1910   78.5677   26.0173 C.2     1  UNL1        0.2839
     27 O          12.3738   78.2538   25.7154 O.2     1  UNL1       -0.2665
     28 N          10.6684   79.8553   25.6518 N.am    1  UNL1       -0.2766
     29 H           9.6303   79.9760   25.6335 H       1  UNL1        0.1553
     30 C           8.1037   77.9594   25.4076 C.3     1  UNL1        0.0345
     31 C           8.9774   77.3271   26.4488 C.ar    1  UNL1        0.0202
     32 C          10.3252   77.5963   26.7124 C.ar    1  UNL1        0.1946
     33 O          10.7521   76.8364   27.7053 O.2     1  UNL1       -0.4492
     34 C           9.7507   76.0886   28.0998 C.ar    1  UNL1        0.1452
     35 C           9.7543   75.1420   29.1183 C.ar    1  UNL1        0.0375
     36 C           8.5611   74.4455   29.3763 C.ar    1  UNL1        0.0031
     37 C           7.3878   74.7037   28.6170 C.ar    1  UNL1        0.0002
     38 C           7.4267   75.6763   27.5890 C.ar    1  UNL1        0.0028
     39 C           8.6282   76.3490   27.3604 C.ar    1  UNL1        0.0337
     40 C           6.1329   73.9615   28.8986 C.ar    1  UNL1        0.0000
     41 C           5.7439   72.8792   28.0865 C.ar    1  UNL1        0.0000
     42 C           4.5612   72.1825   28.3534 C.ar    1  UNL1        0.0000
     43 C           3.7556   72.5562   29.4314 C.ar    1  UNL1        0.0000
     44 C           4.1306   73.6278   30.2445 C.ar    1  UNL1        0.0000
     45 C           5.3117   74.3286   29.9818 C.ar    1  UNL1        0.0000
@<TRIPOS>BOND
     1    30    31    1
     2    31    32   ar
     3    32    26    1
     4    26    27    2
     5    26    28   am
     6    28     1    1
     7     1     2   ar
     8     2     3   ar
     9     3     4   ar
    10     4     7    1
    11     7     8    1
    12     8     9    1
    13     9    10    1
    14    10    13    1
    15    13    14    1
    16    14    15    1
    17    15    16   ar
    18    16    17   ar
    19    17    18   ar
    20    18    19   ar
    21    19    22    1
    22    22    23    2
    23    22    24    1
    24    19    20   ar
    25    20    21    1
    26    10    11    1
    27    11    12    1
    28     4     5   ar
    29     5     6   ar
    30    32    33   ar
    31    33    34   ar
    32    34    35   ar
    33    35    36   ar
    34    36    37   ar
    35    37    40    1
    36    40    41   ar
    37    41    42   ar
    38    42    43   ar
    39    43    44   ar
    40    44    45   ar
    41    37    38   ar
    42    38    39   ar
    43    39    31   ar
    44     6     1   ar
    45    39    34   ar
    46    12     7    1
    47    45    40   ar
    48    20    15   ar
    49    28    29    1
    50    24    25    1
@<TRIPOS>MOLECULE
*****
 45 50 0 0 0
SMALL
GASTEIGER

@<TRIPOS>ATOM
      1 C          11.6011   81.2124   25.3913 C.ar    1  UNL1        0.0702
      2 C          12.3983   81.8759   26.3303 C.ar    1  UNL1        0.0191
      3 C          13.2225   82.9308   25.9359 C.ar    1  UNL1        0.0356
      4 C          13.2629   83.3156   24.5831 C.ar    1  UNL1        0.1318
      5 N          12.4963   82.6344   23.6853 N.ar    1  UNL1       -0.2279
      6 C          11.6837   81.6069   24.0472 C.ar    1  UNL1        0.1149
      7 N          14.0960   84.4110   24.1341 N.pl3   1  UNL1       -0.2932
      8 C          14.2718   85.6132   24.9690 C.3     1  UNL1        0.0923
      9 C          14.8925   86.7743   24.1777 C.3     1  UNL1        0.0252
     10 C          14.2450   86.8681   22.7852 C.3     1  UNL1        0.0472
     11 C          14.4566   85.5645   21.9681 C.3     1  UNL1        0.0252
     12 C          14.7925   84.3423   22.8394 C.3     1  UNL1        0.0923
     13 C          14.7726   88.1002   22.0256 C.3     1  UNL1        0.2055
     14 O          13.6976   88.9356   21.5917 O.3     1  UNL1       -0.4732
     15 C          13.0651   88.8721   20.3387 C.ar    1  UNL1        0.1660
     16 C          11.6652   88.8814   20.1945 C.ar    1  UNL1        0.0392
     17 C          11.0896   88.8153   18.9256 C.ar    1  UNL1        0.0035
     18 C          11.8960   88.7398   17.7891 C.ar    1  UNL1        0.0089
     19 C          13.2964   88.7283   17.9084 C.ar    1  UNL1        0.1059
     20 C          13.8723   88.8039   19.1939 C.ar    1  UNL1        0.1800
     21 F          15.2217   88.7824   19.3468 F       1  UNL1       -0.2008
     22 C          14.1506   88.6589   16.6971 C.2     1  UNL1        0.3403
     23 O          15.0649   89.5075   16.5217 O.2     1  UNL1       -0.2450
     24 O          13.9718   87.6649   15.7360 O.3     1  UNL1       -0.4770
     25 H          13.3203   86.9007   15.8611 H       1  UNL1        0.2954
     26 C          11.2558   78.7734   26.0056 C.2     1  UNL1        0.2839
     27 O          12.3912   78.4376   25.5735 O.2     1  UNL1       -0.2665
     28 N          10.7740   80.1128   25.8092 N.am    1  UNL1       -0.2766
     29 H           9.7458   80.2812   25.8930 H       1  UNL1        0.1553
     30 C           8.1405   78.2387   25.4749 C.3     1  UNL1        0.0345
     31 C           9.0400   77.5415   26.4506 C.ar    1  UNL1        0.0202
     32 C          10.4000   77.7787   26.6798 C.ar    1  UNL1        0.1946
     33 O          10.8496   76.9625   27.6165 O.2     1  UNL1       -0.4492
     34 C           9.8512   76.2086   28.0071 C.ar    1  UNL1        0.1452
     35 C           9.8758   75.2102   28.9746 C.ar    1  UNL1        0.0375
     36 C           8.6818   74.5171   29.2384 C.ar    1  UNL1        0.0031
     37 C           7.4870   74.8301   28.5354 C.ar    1  UNL1        0.0002
     38 C           7.5050   75.8543   27.5582 C.ar    1  UNL1        0.0028
     39 C           8.7079   76.5220   27.3223 C.ar    1  UNL1        0.0337
     40 C           6.2316   74.0910   28.8225 C.ar    1  UNL1        0.0000
     41 C           5.4215   74.4534   29.9155 C.ar    1  UNL1        0.0000
     42 C           4.2403   73.7550   30.1841 C.ar    1  UNL1        0.0000
     43 C           3.8541   72.6903   29.3669 C.ar    1  UNL1        0.0000
     44 C           4.6489   72.3211   28.2795 C.ar    1  UNL1        0.0000
     45 C           5.8316   73.0154   28.0067 C.ar    1  UNL1        0.0000
@<TRIPOS>BOND
     1    30    31    1
     2    31    32   ar
     3    32    26    1
     4    26    27    2
     5    26    28   am
     6    28     1    1
     7     1     2   ar
     8     2     3   ar
     9     3     4   ar
    10     4     7    1
    11     7     8    1
    12     8     9    1
    13     9    10    1
    14    10    13    1
    15    13    14    1
    16    14    15    1
    17    15    16   ar
    18    16    17   ar
    19    17    18   ar
    20    18    19   ar
    21    19    22    1
    22    22    23    2
    23    22    24    1
    24    19    20   ar
    25    20    21    1
    26    10    11    1
    27    11    12    1
    28     4     5   ar
    29     5     6   ar
    30    32    33   ar
    31    33    34   ar
    32    34    35   ar
    33    35    36   ar
    34    36    37   ar
    35    37    40    1
    36    40    41   ar
    37    41    42   ar
    38    42    43   ar
    39    43    44   ar
    40    44    45   ar
    41    37    38   ar
    42    38    39   ar
    43    39    31   ar
    44     6     1   ar
    45    39    34   ar
    46    12     7    1
    47    45    40   ar
    48    20    15   ar
    49    28    29    1
    50    24    25    1
@<TRIPOS>MOLECULE
*****
 45 50 0 0 0
SMALL
GASTEIGER

@<TRIPOS>ATOM
      1 C          11.5984   80.7299   25.3163 C.ar    1  UNL1        0.0702
      2 C          12.9851   80.5555   25.2534 C.ar    1  UNL1        0.0191
      3 C          13.8167   81.6279   24.9272 C.ar    1  UNL1        0.0356
      4 C          13.2533   82.8856   24.6438 C.ar    1  UNL1        0.1318
      5 N          11.8976   83.0206   24.6861 N.ar    1  UNL1       -0.2279
      6 C          11.0690   81.9916   25.0049 C.ar    1  UNL1        0.1149
      7 N          14.0806   84.0261   24.3115 N.pl3   1  UNL1       -0.2932
      8 C          13.9313   85.3003   25.0378 C.3     1  UNL1        0.0923
      9 C          14.6384   86.4572   24.3158 C.3     1  UNL1        0.0252
     10 C          14.3719   86.3751   22.8026 C.3     1  UNL1        0.0472
     11 C          14.8975   85.0430   22.2018 C.3     1  UNL1        0.0252
     12 C          15.0945   83.9335   23.2487 C.3     1  UNL1        0.0923
     13 C          14.9752   87.5949   22.0805 C.3     1  UNL1        0.2055
     14 O          14.4050   87.7562   20.7803 O.3     1  UNL1       -0.4732
     15 C          14.0637   86.7151   19.9006 C.ar    1  UNL1        0.1660
     16 C          12.7295   86.3807   19.6028 C.ar    1  UNL1        0.0392
     17 C          12.4473   85.3362   18.7223 C.ar    1  UNL1        0.0035
     18 C          13.4844   84.6149   18.1292 C.ar    1  UNL1        0.0089
     19 C          14.8245   84.9302   18.4121 C.ar    1  UNL1        0.1059
     20 C          15.1032   85.9929   19.2969 C.ar    1  UNL1        0.1800
     21 F          16.3865   86.3167   19.6024 F       1  UNL1       -0.2008
     22 C          15.9245   84.1679   17.7713 C.2     1  UNL1        0.3403
     23 O          16.5329   83.2754   18.4191 O.2     1  UNL1       -0.2450
     24 O          16.3068   84.4106   16.4527 O.3     1  UNL1       -0.4770
     25 H          15.7998   85.0457   15.8494 H       1  UNL1        0.2954
     26 C           9.8704   79.5628   26.7645 C.2     1  UNL1        0.2839
     27 O           9.9797   80.4113   27.6901 O.2     1  UNL1       -0.2665
     28 N          10.7533   79.6100   25.6318 N.am    1  UNL1       -0.2766
     29 H          10.8505   78.7473   25.0497 H       1  UNL1        0.1553
     30 C           9.5152   77.4623   29.1591 C.3     1  UNL1        0.0345
     31 C           8.7010   77.5738   27.9054 C.ar    1  UNL1        0.0202
     32 C           8.8600   78.4922   26.8615 C.ar    1  UNL1        0.1946
     33 O           7.9498   78.2777   25.9282 O.2     1  UNL1       -0.4492
     34 C           7.2091   77.2671   26.3124 C.ar    1  UNL1        0.1452
     35 C           6.1331   76.7039   25.6354 C.ar    1  UNL1        0.0375
     36 C           5.4719   75.6177   26.2341 C.ar    1  UNL1        0.0031
     37 C           5.8932   75.1127   27.4939 C.ar    1  UNL1        0.0002
     38 C           6.9940   75.7148   28.1498 C.ar    1  UNL1        0.0028
     39 C           7.6272   76.7911   27.5261 C.ar    1  UNL1        0.0337
     40 C           5.1868   73.9648   28.1169 C.ar    1  UNL1        0.0000
     41 C           5.3775   72.6575   27.6303 C.ar    1  UNL1        0.0000
     42 C           4.7102   71.5784   28.2183 C.ar    1  UNL1        0.0000
     43 C           3.8479   71.7906   29.2963 C.ar    1  UNL1        0.0000
     44 C           3.6505   73.0826   29.7883 C.ar    1  UNL1        0.0000
     45 C           4.3144   74.1654   29.2037 C.ar    1  UNL1        0.0000
@<TRIPOS>BOND
     1    30    31    1
     2    31    32   ar
     3    32    26    1
     4    26    27    2
     5    26    28   am
     6    28     1    1
     7     1     2   ar
     8     2     3   ar
     9     3     4   ar
    10     4     7    1
    11     7     8    1
    12     8     9    1
    13     9    10    1
    14    10    13    1
    15    13    14    1
    16    14    15    1
    17    15    16   ar
    18    16    17   ar
    19    17    18   ar
    20    18    19   ar
    21    19    22    1
    22    22    23    2
    23    22    24    1
    24    19    20   ar
    25    20    21    1
    26    10    11    1
    27    11    12    1
    28     4     5   ar
    29     5     6   ar
    30    32    33   ar
    31    33    34   ar
    32    34    35   ar
    33    35    36   ar
    34    36    37   ar
    35    37    40    1
    36    40    41   ar
    37    41    42   ar
    38    42    43   ar
    39    43    44   ar
    40    44    45   ar
    41    37    38   ar
    42    38    39   ar
    43    39    31   ar
    44     6     1   ar
    45    39    34   ar
    46    12     7    1
    47    45    40   ar
    48    20    15   ar
    49    28    29    1
    50    24    25    1
@<TRIPOS>MOLECULE
*****
 45 50 0 0 0
SMALL
GASTEIGER

@<TRIPOS>ATOM
      1 C          11.4318   80.6901   24.9077 C.ar    1  UNL1        0.0702
      2 C          12.8133   80.4741   24.8593 C.ar    1  UNL1        0.0191
      3 C          13.6908   81.5500   24.7173 C.ar    1  UNL1        0.0356
      4 C          13.1797   82.8561   24.6051 C.ar    1  UNL1        0.1318
      5 N          11.8286   83.0349   24.6282 N.ar    1  UNL1       -0.2279
      6 C          10.9558   82.0028   24.7694 C.ar    1  UNL1        0.1149
      7 N          14.0554   84.0005   24.4670 N.pl3   1  UNL1       -0.2932
      8 C          13.9849   85.1209   25.4225 C.3     1  UNL1        0.0923
      9 C          14.7332   86.3600   24.9084 C.3     1  UNL1        0.0252
     10 C          14.4311   86.5757   23.4152 C.3     1  UNL1        0.0472
     11 C          14.8772   85.3581   22.5607 C.3     1  UNL1        0.0252
     12 C          15.0408   84.0639   23.3757 C.3     1  UNL1        0.0923
     13 C          15.0789   87.8812   22.9157 C.3     1  UNL1        0.2055
     14 O          14.1098   88.7342   22.3035 O.3     1  UNL1       -0.4732
     15 C          13.3499   88.4245   21.1630 C.ar    1  UNL1        0.1660
     16 C          11.9987   88.0375   21.2342 C.ar    1  UNL1        0.0392
     17 C          11.2913   87.7400   20.0693 C.ar    1  UNL1        0.0035
     18 C          11.9164   87.8240   18.8244 C.ar    1  UNL1        0.0089
     19 C          13.2651   88.2076   18.7286 C.ar    1  UNL1        0.1059
     20 C          13.9725   88.5151   19.9097 C.ar    1  UNL1        0.1800
     21 F          15.2805   88.8770   19.8551 F       1  UNL1       -0.2008
     22 C          13.9233   88.3061   17.4024 C.2     1  UNL1        0.3403
     23 O          13.9958   87.2923   16.6584 O.2     1  UNL1       -0.2450
     24 O          14.4673   89.5062   16.9469 O.3     1  UNL1       -0.4770
     25 H          14.3606   90.3763   17.4525 H       1  UNL1        0.2954
     26 C          10.8608   78.3602   25.7386 C.2     1  UNL1        0.2839
     27 O          12.0510   78.1196   26.0765 O.2     1  UNL1       -0.2665
     28 N          10.5396   79.5692   25.0318 N.am    1  UNL1       -0.2766
     29 H           9.6374   79.6043   24.5050 H       1  UNL1        0.1553
     30 C           9.4104   77.8803   28.5563 C.3     1  UNL1        0.0345
     31 C           9.1623   77.1674   27.2611 C.ar    1  UNL1        0.0202
     32 C           9.7986   77.3795   26.0329 C.ar    1  UNL1        0.1946
     33 O           9.3079   76.5580   25.1219 O.2     1  UNL1       -0.4492
     34 C           8.3866   75.8236   25.6959 C.ar    1  UNL1        0.1452
     35 C           7.6122   74.8296   25.1081 C.ar    1  UNL1        0.0375
     36 C           6.6734   74.1617   25.9130 C.ar    1  UNL1        0.0031
     37 C           6.5229   74.4948   27.2864 C.ar    1  UNL1        0.0002
     38 C           7.3319   75.5130   27.8460 C.ar    1  UNL1        0.0028
     39 C           8.2538   76.1551   27.0176 C.ar    1  UNL1        0.0337
     40 C           5.5276   73.7824   28.1270 C.ar    1  UNL1        0.0000
     41 C           5.1893   72.4429   27.8556 C.ar    1  UNL1        0.0000
     42 C           4.2510   71.7747   28.6483 C.ar    1  UNL1        0.0000
     43 C           3.6415   72.4333   29.7186 C.ar    1  UNL1        0.0000
     44 C           3.9687   73.7619   29.9982 C.ar    1  UNL1        0.0000
     45 C           4.9056   74.4352   29.2084 C.ar    1  UNL1        0.0000
@<TRIPOS>BOND
     1    30    31    1
     2    31    32   ar
     3    32    26    1
     4    26    27    2
     5    26    28   am
     6    28     1    1
     7     1     2   ar
     8     2     3   ar
     9     3     4   ar
    10     4     7    1
    11     7     8    1
    12     8     9    1
    13     9    10    1
    14    10    13    1
    15    13    14    1
    16    14    15    1
    17    15    16   ar
    18    16    17   ar
    19    17    18   ar
    20    18    19   ar
    21    19    22    1
    22    22    23    2
    23    22    24    1
    24    19    20   ar
    25    20    21    1
    26    10    11    1
    27    11    12    1
    28     4     5   ar
    29     5     6   ar
    30    32    33   ar
    31    33    34   ar
    32    34    35   ar
    33    35    36   ar
    34    36    37   ar
    35    37    40    1
    36    40    41   ar
    37    41    42   ar
    38    42    43   ar
    39    43    44   ar
    40    44    45   ar
    41    37    38   ar
    42    38    39   ar
    43    39    31   ar
    44     6     1   ar
    45    39    34   ar
    46    12     7    1
    47    45    40   ar
    48    20    15   ar
    49    28    29    1
    50    24    25    1
@<TRIPOS>MOLECULE
*****
 45 50 0 0 0
SMALL
GASTEIGER

@<TRIPOS>ATOM
      1 C          10.0028   79.4508   24.0187 C.ar    1  UNL1        0.0702
      2 C           9.6982   79.2121   22.6742 C.ar    1  UNL1        0.0191
      3 C           9.0786   78.0213   22.2921 C.ar    1  UNL1        0.0356
      4 C           8.7754   77.0503   23.2641 C.ar    1  UNL1        0.1318
      5 N           9.1076   77.2975   24.5627 N.ar    1  UNL1       -0.2279
      6 C           9.7077   78.4510   24.9581 C.ar    1  UNL1        0.1149
      7 N           8.1238   75.8066   22.9116 N.pl3   1  UNL1       -0.2932
      8 C           8.2982   75.2202   21.5703 C.3     1  UNL1        0.0923
      9 C           7.2693   74.1145   21.2904 C.3     1  UNL1        0.0252
     10 C           5.8797   74.5504   21.7868 C.3     1  UNL1        0.0472
     11 C           5.8804   74.8283   23.3147 C.3     1  UNL1        0.0252
     12 C           7.2819   75.0973   23.8885 C.3     1  UNL1        0.0923
     13 C           4.8165   73.5025   21.4060 C.3     1  UNL1        0.2055
     14 O           3.6478   74.1271   20.8715 O.3     1  UNL1       -0.4732
     15 C           3.5047   75.4974   20.5958 C.ar    1  UNL1        0.1660
     16 C           2.8417   76.3811   21.4675 C.ar    1  UNL1        0.0392
     17 C           2.7275   77.7331   21.1436 C.ar    1  UNL1        0.0035
     18 C           3.2697   78.2208   19.9537 C.ar    1  UNL1        0.0089
     19 C           3.9356   77.3571   19.0672 C.ar    1  UNL1        0.1059
     20 C           4.0548   75.9926   19.4046 C.ar    1  UNL1        0.1800
     21 F           4.6809   75.1274   18.5654 F       1  UNL1       -0.2008
     22 C           4.5201   77.8813   17.8081 C.2     1  UNL1        0.3403
     23 O           4.9906   79.0492   17.7706 O.2     1  UNL1       -0.2450
     24 O           4.5690   77.1065   16.6501 O.3     1  UNL1       -0.4770
     25 H           4.2950   76.1324   16.6376 H       1  UNL1        0.2954
     26 C          12.0743   80.7851   24.6300 C.2     1  UNL1        0.2839
     27 O          12.7792   79.7491   24.7666 O.2     1  UNL1       -0.2665
     28 N          10.6614   80.6729   24.3937 N.am    1  UNL1       -0.2766
     29 H          10.0640   81.5084   24.5875 H       1  UNL1        0.1553
     30 C          13.0214   82.2257   27.3319 C.3     1  UNL1        0.0345
     31 C          13.1083   82.7509   25.9305 C.ar    1  UNL1        0.0202
     32 C          12.6927   82.1188   24.7532 C.ar    1  UNL1        0.1946
     33 O          12.9353   82.8963   23.7129 O.2     1  UNL1       -0.4492
     34 C          13.4862   84.0003   24.1546 C.ar    1  UNL1        0.1452
     35 C          13.9052   85.0933   23.4042 C.ar    1  UNL1        0.0375
     36 C          14.4768   86.1817   24.0855 C.ar    1  UNL1        0.0031
     37 C          14.6204   86.1623   25.4993 C.ar    1  UNL1        0.0002
     38 C          14.1801   85.0299   26.2259 C.ar    1  UNL1        0.0028
     39 C          13.6171   83.9674   25.5171 C.ar    1  UNL1        0.0337
     40 C          15.2259   87.3180   26.2082 C.ar    1  UNL1        0.0000
     41 C          14.9351   87.5579   27.5647 C.ar    1  UNL1        0.0000
     42 C          15.5061   88.6475   28.2296 C.ar    1  UNL1        0.0000
     43 C          16.3722   89.5076   27.5508 C.ar    1  UNL1        0.0000
     44 C          16.6688   89.2802   26.2051 C.ar    1  UNL1        0.0000
     45 C          16.1001   88.1928   25.5350 C.ar    1  UNL1        0.0000
@<TRIPOS>BOND
     1    30    31    1
     2    31    32   ar
     3    32    26    1
     4    26    27    2
     5    26    28   am
     6    28     1    1
     7     1     2   ar
     8     2     3   ar
     9     3     4   ar
    10     4     7    1
    11     7     8    1
    12     8     9    1
    13     9    10    1
    14    10    13    1
    15    13    14    1
    16    14    15    1
    17    15    16   ar
    18    16    17   ar
    19    17    18   ar
    20    18    19   ar
    21    19    22    1
    22    22    23    2
    23    22    24    1
    24    19    20   ar
    25    20    21    1
    26    10    11    1
    27    11    12    1
    28     4     5   ar
    29     5     6   ar
    30    32    33   ar
    31    33    34   ar
    32    34    35   ar
    33    35    36   ar
    34    36    37   ar
    35    37    40    1
    36    40    41   ar
    37    41    42   ar
    38    42    43   ar
    39    43    44   ar
    40    44    45   ar
    41    37    38   ar
    42    38    39   ar
    43    39    31   ar
    44     6     1   ar
    45    39    34   ar
    46    12     7    1
    47    45    40   ar
    48    20    15   ar
    49    28    29    1
    50    24    25    1
@<TRIPOS>MOLECULE
*****
 45 50 0 0 0
SMALL
GASTEIGER

@<TRIPOS>ATOM
      1 C          10.6535   81.1818   24.7724 C.ar    1  UNL1        0.0702
      2 C          10.0833   80.5483   23.6629 C.ar    1  UNL1        0.0191
      3 C           9.3975   79.3423   23.8146 C.ar    1  UNL1        0.0356
      4 C           9.2955   78.7539   25.0886 C.ar    1  UNL1        0.1318
      5 N           9.8835   79.3790   26.1476 N.ar    1  UNL1       -0.2279
      6 C          10.5527   80.5554   26.0241 C.ar    1  UNL1        0.1149
      7 N           8.5842   77.5095   25.2910 N.pl3   1  UNL1       -0.2932
      8 C           9.3112   76.2771   25.6460 C.3     1  UNL1        0.0923
      9 C           8.4360   75.0264   25.4746 C.3     1  UNL1        0.0252
     10 C           7.6338   75.1203   24.1649 C.3     1  UNL1        0.0472
     11 C           6.7016   76.3624   24.1542 C.3     1  UNL1        0.0252
     12 C           7.1198   77.4517   25.1564 C.3     1  UNL1        0.0923
     13 C           6.8429   73.8210   23.9211 C.3     1  UNL1        0.2055
     14 O           5.5638   74.0980   23.3476 O.3     1  UNL1       -0.4732
     15 C           5.2952   74.2437   21.9761 C.ar    1  UNL1        0.1660
     16 C           6.0861   73.6409   20.9803 C.ar    1  UNL1        0.0392
     17 C           5.7744   73.8196   19.6324 C.ar    1  UNL1        0.0035
     18 C           4.6765   74.5964   19.2600 C.ar    1  UNL1        0.0089
     19 C           3.8726   75.2088   20.2368 C.ar    1  UNL1        0.1059
     20 C           4.1883   75.0174   21.5983 C.ar    1  UNL1        0.1800
     21 F           3.4404   75.6046   22.5682 F       1  UNL1       -0.2008
     22 C           2.6998   76.0252   19.8373 C.2     1  UNL1        0.3403
     23 O           2.8512   77.2377   19.5314 O.2     1  UNL1       -0.2450
     24 O           1.4174   75.4808   19.7851 O.3     1  UNL1       -0.4770
     25 H           1.2410   74.4944   19.9271 H       1  UNL1        0.2954
     26 C          12.7675   82.5804   24.9134 C.2     1  UNL1        0.2839
     27 O          13.3695   81.7161   25.6058 O.2     1  UNL1       -0.2665
     28 N          11.3761   82.4125   24.5965 N.am    1  UNL1       -0.2766
     29 H          10.8355   83.2565   24.3000 H       1  UNL1        0.1553
     30 C          15.4635   82.6893   23.1835 C.3     1  UNL1        0.0345
     31 C          14.6578   83.8412   23.7042 C.ar    1  UNL1        0.0202
     32 C          13.4813   83.7893   24.4602 C.ar    1  UNL1        0.1946
     33 O          13.0632   85.0132   24.7303 O.2     1  UNL1       -0.4492
     34 C          13.9082   85.8563   24.1891 C.ar    1  UNL1        0.1452
     35 C          13.8539   87.2452   24.2244 C.ar    1  UNL1        0.0375
     36 C          14.8706   87.9624   23.5706 C.ar    1  UNL1        0.0031
     37 C          15.9213   87.2848   22.8948 C.ar    1  UNL1        0.0002
     38 C          15.9396   85.8693   22.8834 C.ar    1  UNL1        0.0028
     39 C          14.9144   85.1895   23.5430 C.ar    1  UNL1        0.0337
     40 C          16.9900   88.0531   22.2074 C.ar    1  UNL1        0.0000
     41 C          16.7465   88.6594   20.9603 C.ar    1  UNL1        0.0000
     42 C          17.7550   89.3816   20.3148 C.ar    1  UNL1        0.0000
     43 C          19.0145   89.5076   20.9050 C.ar    1  UNL1        0.0000
     44 C          19.2685   88.9111   22.1419 C.ar    1  UNL1        0.0000
     45 C          18.2641   88.1871   22.7915 C.ar    1  UNL1        0.0000
@<TRIPOS>BOND
     1    30    31    1
     2    31    32   ar
     3    32    26    1
     4    26    27    2
     5    26    28   am
     6    28     1    1
     7     1     2   ar
     8     2     3   ar
     9     3     4   ar
    10     4     7    1
    11     7     8    1
    12     8     9    1
    13     9    10    1
    14    10    13    1
    15    13    14    1
    16    14    15    1
    17    15    16   ar
    18    16    17   ar
    19    17    18   ar
    20    18    19   ar
    21    19    22    1
    22    22    23    2
    23    22    24    1
    24    19    20   ar
    25    20    21    1
    26    10    11    1
    27    11    12    1
    28     4     5   ar
    29     5     6   ar
    30    32    33   ar
    31    33    34   ar
    32    34    35   ar
    33    35    36   ar
    34    36    37   ar
    35    37    40    1
    36    40    41   ar
    37    41    42   ar
    38    42    43   ar
    39    43    44   ar
    40    44    45   ar
    41    37    38   ar
    42    38    39   ar
    43    39    31   ar
    44     6     1   ar
    45    39    34   ar
    46    12     7    1
    47    45    40   ar
    48    20    15   ar
    49    28    29    1
    50    24    25    1
@<TRIPOS>MOLECULE
*****
 45 50 0 0 0
SMALL
GASTEIGER

@<TRIPOS>ATOM
      1 C          10.4517   81.1374   24.6380 C.ar    1  UNL1        0.0702
      2 C           9.9553   80.5880   23.4509 C.ar    1  UNL1        0.0191
      3 C           9.1891   79.4218   23.4798 C.ar    1  UNL1        0.0356
      4 C           8.9305   78.7880   24.7091 C.ar    1  UNL1        0.1318
      5 N           9.4490   79.3301   25.8472 N.ar    1  UNL1       -0.2279
      6 C          10.1944   80.4665   25.8433 C.ar    1  UNL1        0.1149
      7 N           8.1319   77.5830   24.7843 N.pl3   1  UNL1       -0.2932
      8 C           8.5090   76.4866   25.6947 C.3     1  UNL1        0.0923
      9 C           7.7508   75.1897   25.3742 C.3     1  UNL1        0.0252
     10 C           7.7022   74.9705   23.8520 C.3     1  UNL1        0.0472
     11 C           6.9785   76.1393   23.1296 C.3     1  UNL1        0.0252
     12 C           6.9215   77.4324   23.9606 C.3     1  UNL1        0.0923
     13 C           7.0496   73.6146   23.5217 C.3     1  UNL1        0.2055
     14 O           7.7783   72.9284   22.5021 O.3     1  UNL1       -0.4732
     15 C           9.1779   72.8773   22.3889 C.ar    1  UNL1        0.1660
     16 C           9.9271   71.7428   22.7526 C.ar    1  UNL1        0.0392
     17 C          11.3158   71.7466   22.6205 C.ar    1  UNL1        0.0035
     18 C          11.9736   72.8740   22.1266 C.ar    1  UNL1        0.0089
     19 C          11.2465   74.0188   21.7577 C.ar    1  UNL1        0.1059
     20 C           9.8417   74.0055   21.8858 C.ar    1  UNL1        0.1800
     21 F           9.1088   75.0988   21.5506 F       1  UNL1       -0.2008
     22 C          11.9484   75.2117   21.2228 C.2     1  UNL1        0.3403
     23 O          12.3208   75.2365   20.0198 O.2     1  UNL1       -0.2450
     24 O          12.2073   76.3238   22.0228 O.3     1  UNL1       -0.4770
     25 H          11.8537   76.4062   22.9675 H       1  UNL1        0.2954
     26 C          12.6947   82.3265   24.6274 C.2     1  UNL1        0.2839
     27 O          13.3205   81.2849   24.9620 O.2     1  UNL1       -0.2665
     28 N          11.2583   82.3269   24.5896 N.am    1  UNL1       -0.2766
     29 H          10.7674   83.2494   24.6134 H       1  UNL1        0.1553
     30 C          15.5277   82.5473   23.1449 C.3     1  UNL1        0.0345
     31 C          14.6724   83.6633   23.6647 C.ar    1  UNL1        0.0202
     32 C          13.4360   83.5625   24.3125 C.ar    1  UNL1        0.1946
     33 O          12.9878   84.7665   24.6207 O.2     1  UNL1       -0.4492
     34 C          13.8699   85.6431   24.2071 C.ar    1  UNL1        0.1452
     35 C          13.8029   87.0270   24.3232 C.ar    1  UNL1        0.0375
     36 C          14.8667   87.7852   23.8045 C.ar    1  UNL1        0.0031
     37 C          15.9760   87.1527   23.1806 C.ar    1  UNL1        0.0002
     38 C          16.0053   85.7407   23.0835 C.ar    1  UNL1        0.0028
     39 C          14.9322   85.0194   23.6096 C.ar    1  UNL1        0.0337
     40 C          17.0941   87.9641   22.6361 C.ar    1  UNL1        0.0000
     41 C          17.0700   88.4114   21.3013 C.ar    1  UNL1        0.0000
     42 C          18.1247   89.1746   20.7909 C.ar    1  UNL1        0.0000
     43 C          19.2123   89.5002   21.6044 C.ar    1  UNL1        0.0000
     44 C          19.2479   89.0627   22.9302 C.ar    1  UNL1        0.0000
     45 C          18.1965   88.2986   23.4456 C.ar    1  UNL1        0.0000
@<TRIPOS>BOND
     1    30    31    1
     2    31    32   ar
     3    32    26    1
     4    26    27    2
     5    26    28   am
     6    28     1    1
     7     1     2   ar
     8     2     3   ar
     9     3     4   ar
    10     4     7    1
    11     7     8    1
    12     8     9    1
    13     9    10    1
    14    10    13    1
    15    13    14    1
    16    14    15    1
    17    15    16   ar
    18    16    17   ar
    19    17    18   ar
    20    18    19   ar
    21    19    22    1
    22    22    23    2
    23    22    24    1
    24    19    20   ar
    25    20    21    1
    26    10    11    1
    27    11    12    1
    28     4     5   ar
    29     5     6   ar
    30    32    33   ar
    31    33    34   ar
    32    34    35   ar
    33    35    36   ar
    34    36    37   ar
    35    37    40    1
    36    40    41   ar
    37    41    42   ar
    38    42    43   ar
    39    43    44   ar
    40    44    45   ar
    41    37    38   ar
    42    38    39   ar
    43    39    31   ar
    44     6     1   ar
    45    39    34   ar
    46    12     7    1
    47    45    40   ar
    48    20    15   ar
    49    28    29    1
    50    24    25    1
@<TRIPOS>MOLECULE
*****
 45 50 0 0 0
SMALL
GASTEIGER

@<TRIPOS>ATOM
      1 C          10.3962   80.8684   24.6096 C.ar    1  UNL1        0.0702
      2 C           9.9618   80.1930   23.4639 C.ar    1  UNL1        0.0191
      3 C           9.2961   78.9714   23.5752 C.ar    1  UNL1        0.0356
      4 C           9.0774   78.4102   24.8468 C.ar    1  UNL1        0.1318
      5 N           9.5349   79.0766   25.9443 N.ar    1  UNL1       -0.2279
      6 C          10.1820   80.2687   25.8600 C.ar    1  UNL1        0.1149
      7 N           8.3821   77.1507   25.0069 N.pl3   1  UNL1       -0.2932
      8 C           6.9164   77.0778   24.8663 C.3     1  UNL1        0.0923
      9 C           6.3543   75.7544   25.4069 C.3     1  UNL1        0.0252
     10 C           7.0386   75.3961   26.7377 C.3     1  UNL1        0.0472
     11 C           8.5728   75.2295   26.5641 C.3     1  UNL1        0.0252
     12 C           9.1254   75.9155   25.3033 C.3     1  UNL1        0.0923
     13 C           6.4014   74.1345   27.3507 C.3     1  UNL1        0.2055
     14 O           6.1819   74.2992   28.7529 O.3     1  UNL1       -0.4732
     15 C           5.8060   75.4947   29.3884 C.ar    1  UNL1        0.1660
     16 C           4.4610   75.8507   29.5997 C.ar    1  UNL1        0.0392
     17 C           4.1441   77.0512   30.2355 C.ar    1  UNL1        0.0035
     18 C           5.1570   77.9086   30.6676 C.ar    1  UNL1        0.0089
     19 C           6.5073   77.5745   30.4669 C.ar    1  UNL1        0.1059
     20 C           6.8212   76.3552   29.8307 C.ar    1  UNL1        0.1800
     21 F           8.1152   76.0066   29.6092 F       1  UNL1       -0.2008
     22 C           7.5816   78.4835   30.9373 C.2     1  UNL1        0.3403
     23 O           8.3158   78.1442   31.9029 O.2     1  UNL1       -0.2450
     24 O           7.8087   79.7179   30.3302 O.3     1  UNL1       -0.4770
     25 H           7.3185   80.0092   29.4941 H       1  UNL1        0.2954
     26 C          12.5024   82.2792   24.7456 C.2     1  UNL1        0.2839
     27 O          13.1403   81.3822   25.3596 O.2     1  UNL1       -0.2665
     28 N          11.1004   82.1153   24.4774 N.am    1  UNL1       -0.2766
     29 H          10.5406   82.9694   24.2544 H       1  UNL1        0.1553
     30 C          15.4298   82.5318   23.4651 C.3     1  UNL1        0.0345
     31 C          14.4637   83.6351   23.7757 C.ar    1  UNL1        0.0202
     32 C          13.1863   83.5205   24.3358 C.ar    1  UNL1        0.1946
     33 O          12.6370   84.7160   24.4568 O.2     1  UNL1       -0.4492
     34 C          13.4923   85.6002   24.0048 C.ar    1  UNL1        0.1452
     35 C          13.3267   86.9793   23.9420 C.ar    1  UNL1        0.0375
     36 C          14.3792   87.7472   23.4146 C.ar    1  UNL1        0.0031
     37 C          15.5754   87.1291   22.9600 C.ar    1  UNL1        0.0002
     38 C          15.7038   85.7216   23.0422 C.ar    1  UNL1        0.0028
     39 C          14.6391   84.9905   23.5716 C.ar    1  UNL1        0.0337
     40 C          16.6806   87.9507   22.4044 C.ar    1  UNL1        0.0000
     41 C          16.5709   88.5262   21.1242 C.ar    1  UNL1        0.0000
     42 C          17.6135   89.2987   20.6031 C.ar    1  UNL1        0.0000
     43 C          18.7742   89.5060   21.3518 C.ar    1  UNL1        0.0000
     44 C          18.8951   88.9408   22.6231 C.ar    1  UNL1        0.0000
     45 C          17.8561   88.1667   23.1488 C.ar    1  UNL1        0.0000
@<TRIPOS>BOND
     1    30    31    1
     2    31    32   ar
     3    32    26    1
     4    26    27    2
     5    26    28   am
     6    28     1    1
     7     1     2   ar
     8     2     3   ar
     9     3     4   ar
    10     4     7    1
    11     7     8    1
    12     8     9    1
    13     9    10    1
    14    10    13    1
    15    13    14    1
    16    14    15    1
    17    15    16   ar
    18    16    17   ar
    19    17    18   ar
    20    18    19   ar
    21    19    22    1
    22    22    23    2
    23    22    24    1
    24    19    20   ar
    25    20    21    1
    26    10    11    1
    27    11    12    1
    28     4     5   ar
    29     5     6   ar
    30    32    33   ar
    31    33    34   ar
    32    34    35   ar
    33    35    36   ar
    34    36    37   ar
    35    37    40    1
    36    40    41   ar
    37    41    42   ar
    38    42    43   ar
    39    43    44   ar
    40    44    45   ar
    41    37    38   ar
    42    38    39   ar
    43    39    31   ar
    44     6     1   ar
    45    39    34   ar
    46    12     7    1
    47    45    40   ar
    48    20    15   ar
    49    28    29    1
    50    24    25    1
@<TRIPOS>MOLECULE
*****
 45 50 0 0 0
SMALL
GASTEIGER

@<TRIPOS>ATOM
      1 C           8.4485   78.1934   22.8488 C.ar    1  UNL1        0.0702
      2 C           9.0283   77.6309   23.9912 C.ar    1  UNL1        0.0191
      3 C           9.9960   78.3342   24.7100 C.ar    1  UNL1        0.0356
      4 C          10.4012   79.6082   24.2714 C.ar    1  UNL1        0.1318
      5 N           9.8393   80.1207   23.1403 N.ar    1  UNL1       -0.2279
      6 C           8.8930   79.4557   22.4268 C.ar    1  UNL1        0.1149
      7 N          11.3940   80.3751   24.9937 N.pl3   1  UNL1       -0.2932
      8 C          10.9918   81.4938   25.8657 C.3     1  UNL1        0.0923
      9 C          12.1878   82.3763   26.2533 C.3     1  UNL1        0.0252
     10 C          13.0858   82.6147   25.0269 C.3     1  UNL1        0.0472
     11 C          13.6399   81.2806   24.4570 C.3     1  UNL1        0.0252
     12 C          12.8242   80.0472   24.8801 C.3     1  UNL1        0.0923
     13 C          14.2233   83.5947   25.3722 C.3     1  UNL1        0.2055
     14 O          13.9603   84.8949   24.8411 O.3     1  UNL1       -0.4732
     15 C          14.0208   85.2530   23.4838 C.ar    1  UNL1        0.1660
     16 C          14.9634   84.7024   22.5956 C.ar    1  UNL1        0.0392
     17 C          14.9797   85.0948   21.2571 C.ar    1  UNL1        0.0035
     18 C          14.0620   86.0354   20.7874 C.ar    1  UNL1        0.0089
     19 C          13.1118   86.5996   21.6559 C.ar    1  UNL1        0.1059
     20 C          13.0954   86.1923   23.0064 C.ar    1  UNL1        0.1800
     21 F          12.1991   86.7261   23.8763 F       1  UNL1       -0.2008
     22 C          12.1308   87.5914   21.1504 C.2     1  UNL1        0.3403
     23 O          12.1337   88.7669   21.6028 O.2     1  UNL1       -0.2450
     24 O          11.1957   87.2570   20.1719 O.3     1  UNL1       -0.4770
     25 H          11.2003   86.3611   19.7012 H       1  UNL1        0.2954
     26 C           6.2952   76.8581   22.6891 C.2     1  UNL1        0.2839
     27 O           6.1935   76.7515   23.9409 O.2     1  UNL1       -0.2665
     28 N           7.4690   77.4471   22.1062 N.am    1  UNL1       -0.2766
     29 H           7.6674   77.2509   21.0988 H       1  UNL1        0.1553
     30 C           3.2241   76.3910   23.4785 C.3     1  UNL1        0.0345
     31 C           3.8829   76.1357   22.1563 C.ar    1  UNL1        0.0202
     32 C           5.2248   76.3403   21.8160 C.ar    1  UNL1        0.1946
     33 O           5.4282   76.0006   20.5555 O.2     1  UNL1       -0.4492
     34 C           4.2878   75.5855   20.0608 C.ar    1  UNL1        0.1452
     35 C           4.0426   75.1340   18.7688 C.ar    1  UNL1        0.0375
     36 C           2.7342   74.7349   18.4461 C.ar    1  UNL1        0.0031
     37 C           1.6952   74.7924   19.4141 C.ar    1  UNL1        0.0002
     38 C           1.9874   75.2580   20.7187 C.ar    1  UNL1        0.0028
     39 C           3.2975   75.6458   21.0044 C.ar    1  UNL1        0.0337
     40 C           0.3165   74.3683   19.0616 C.ar    1  UNL1        0.0000
     41 C          -0.7540   75.2796   19.1369 C.ar    1  UNL1        0.0000
     42 C          -2.0515   74.8773   18.8052 C.ar    1  UNL1        0.0000
     43 C          -2.2950   73.5647   18.3949 C.ar    1  UNL1        0.0000
     44 C          -1.2416   72.6512   18.3159 C.ar    1  UNL1        0.0000
     45 C           0.0577   73.0478   18.6471 C.ar    1  UNL1        0.0000
@<TRIPOS>BOND
     1    30    31    1
     2    31    32   ar
     3    32    26    1
     4    26    27    2
     5    26    28   am
     6    28     1    1
     7     1     2   ar
     8     2     3   ar
     9     3     4   ar
    10     4     7    1
    11     7     8    1
    12     8     9    1
    13     9    10    1
    14    10    13    1
    15    13    14    1
    16    14    15    1
    17    15    16   ar
    18    16    17   ar
    19    17    18   ar
    20    18    19   ar
    21    19    22    1
    22    22    23    2
    23    22    24    1
    24    19    20   ar
    25    20    21    1
    26    10    11    1
    27    11    12    1
    28     4     5   ar
    29     5     6   ar
    30    32    33   ar
    31    33    34   ar
    32    34    35   ar
    33    35    36   ar
    34    36    37   ar
    35    37    40    1
    36    40    41   ar
    37    41    42   ar
    38    42    43   ar
    39    43    44   ar
    40    44    45   ar
    41    37    38   ar
    42    38    39   ar
    43    39    31   ar
    44     6     1   ar
    45    39    34   ar
    46    12     7    1
    47    45    40   ar
    48    20    15   ar
    49    28    29    1
    50    24    25    1
