@<TRIPOS>MOLECULE
*****
 35 39 0 0 0
SMALL
GASTEIGER

@<TRIPOS>ATOM
      1 C         -21.4697   -7.8239   -9.7233 C.2     1  UNL1        0.2498
      2 O         -22.0557   -7.3179   -8.7277 O.2     1  UNL1       -0.2699
      3 N         -21.8563   -7.4134  -11.0522 N.am    1  UNL1       -0.2759
      4 C         -20.8948   -7.3850  -12.1623 C.3     1  UNL1        0.0954
      5 C         -21.4585   -8.1192  -13.3937 C.3     1  UNL1        0.0399
      6 C         -23.0126   -8.0206  -13.5437 C.3     1  UNL1        0.0645
      7 C         -23.5427   -6.7845  -12.7705 C.3     1  UNL1        0.0399
      8 C         -23.2002   -6.8592  -11.2707 C.3     1  UNL1        0.0954
      9 C         -23.7034   -9.3163  -12.9787 C.3     1  UNL1        0.0477
     10 C         -23.5572  -10.4647  -13.9288 C.ar    1  UNL1        0.0220
     11 C         -23.7669  -11.8112  -13.7410 C.ar    1  UNL1        0.0923
     12 N         -23.7343  -12.4135  -14.9582 N.ar    1  UNL1       -0.2534
     13 N         -23.5687  -11.4904  -15.9019 N.ar    1  UNL1       -0.1651
     14 C         -23.4543  -10.3071  -15.2753 C.ar    1  UNL1        0.1515
     15 C         -23.3801   -8.9818  -15.8715 C.2     1  UNL1        0.2650
     16 O         -23.3892   -8.8235  -17.1206 O.2     1  UNL1       -0.2684
     17 N         -23.3303   -7.8538  -14.9830 N.am    1  UNL1       -0.3023
     18 H         -23.3374   -6.8960  -15.4018 H       1  UNL1        0.1497
     19 C         -19.5601  -12.2311  -10.8823 C.ar    1  UNL1        0.2248
     20 N         -18.6153  -13.1934  -10.6844 N.ar    1  UNL1       -0.2101
     21 C         -17.6430  -13.0692   -9.7435 C.ar    1  UNL1        0.1021
     22 C         -17.5783  -11.9253   -8.9474 C.ar    1  UNL1        0.0209
     23 C         -18.5300  -10.9123   -9.1202 C.ar    1  UNL1        0.0069
     24 C         -18.4779   -9.7427   -8.3502 C.ar    1  UNL1        0.0117
     25 C         -19.4189   -8.7232   -8.5385 C.ar    1  UNL1        0.0620
     26 CL        -19.2382   -7.2517   -7.5873 Cl      1  UNL1       -0.0821
     27 C         -20.4435   -8.8741   -9.4999 C.ar    1  UNL1        0.0643
     28 C         -20.5060  -10.0602  -10.2506 C.ar    1  UNL1        0.0100
     29 C         -19.5451  -11.0688  -10.0886 C.ar    1  UNL1        0.0534
     30 C         -20.3691  -13.2744  -12.9817 C.3     1  UNL1        0.2542
     31 O         -20.5286  -12.3875  -11.8818 O.3     1  UNL1       -0.4561
     32 C         -24.0222  -13.8297  -15.2663 C.3     1  UNL1        0.0867
     33 C         -22.7533  -14.7055  -15.1638 C.3     1  UNL1        0.0244
     34 C         -25.0746  -14.3499  -14.2725 C.3     1  UNL1        0.0244
     35 C         -24.5745  -13.9369  -16.7016 C.3     1  UNL1        0.0244
@<TRIPOS>BOND
     1    30    31    1
     2    31    19    1
     3    19    20   ar
     4    20    21   ar
     5    21    22   ar
     6    22    23   ar
     7    23    24   ar
     8    24    25   ar
     9    25    26    1
    10    25    27   ar
    11    27     1    1
    12     1     2    2
    13     1     3   am
    14     3     4    1
    15     4     5    1
    16     5     6    1
    17     6     7    1
    18     7     8    1
    19     6     9    1
    20     9    10    1
    21    10    11   ar
    22    11    12   ar
    23    12    32    1
    24    32    33    1
    25    32    34    1
    26    32    35    1
    27    12    13   ar
    28    13    14   ar
    29    14    15    1
    30    15    16    2
    31    15    17   am
    32    27    28   ar
    33    28    29   ar
    34    29    19   ar
    35    29    23   ar
    36     8     3    1
    37    14    10   ar
    38    17     6    1
    39    17    18    1
@<TRIPOS>MOLECULE
*****
 35 39 0 0 0
SMALL
GASTEIGER

@<TRIPOS>ATOM
      1 C         -21.4126   -8.5649   -9.3137 C.2     1  UNL1        0.2498
      2 O         -22.1119   -8.4283   -8.2730 O.2     1  UNL1       -0.2699
      3 N         -21.7131   -7.7619  -10.4751 N.am    1  UNL1       -0.2759
      4 C         -20.6661   -7.3427  -11.4162 C.3     1  UNL1        0.0954
      5 C         -21.0752   -7.6602  -12.8671 C.3     1  UNL1        0.0399
      6 C         -22.6144   -7.5741  -13.1332 C.3     1  UNL1        0.0645
      7 C         -23.2879   -6.6732  -12.0647 C.3     1  UNL1        0.0399
      8 C         -23.0678   -7.2153  -10.6400 C.3     1  UNL1        0.0954
      9 C         -23.2629   -9.0067  -13.0815 C.3     1  UNL1        0.0477
     10 C         -22.9622   -9.7813  -14.3274 C.ar    1  UNL1        0.0220
     11 C         -23.0974  -11.1230  -14.5991 C.ar    1  UNL1        0.0923
     12 N         -22.9235  -11.2991  -15.9348 N.ar    1  UNL1       -0.2534
     13 N         -22.7409  -10.1156  -16.5147 N.ar    1  UNL1       -0.1651
     14 C         -22.7578   -9.1943  -15.5366 C.ar    1  UNL1        0.1515
     15 C         -22.7218   -7.7458  -15.6702 C.2     1  UNL1        0.2650
     16 O         -22.6369   -7.1936  -16.7987 O.2     1  UNL1       -0.2684
     17 N         -22.8211   -6.9636  -14.4692 N.am    1  UNL1       -0.3023
     18 H         -22.8565   -5.9227  -14.5606 H       1  UNL1        0.1497
     19 C         -17.3714  -10.5492   -7.2778 C.ar    1  UNL1        0.2248
     20 N         -16.3914  -11.4965   -7.2896 N.ar    1  UNL1       -0.2101
     21 C         -16.3087  -12.4389   -8.2648 C.ar    1  UNL1        0.1021
     22 C         -17.2504  -12.4690   -9.2938 C.ar    1  UNL1        0.0209
     23 C         -18.2743  -11.5136   -9.3174 C.ar    1  UNL1        0.0069
     24 C         -19.2468  -11.5318  -10.3261 C.ar    1  UNL1        0.0117
     25 C         -20.2804  -10.5874  -10.3363 C.ar    1  UNL1        0.0620
     26 CL        -21.5080  -10.7258  -11.5920 Cl      1  UNL1       -0.0821
     27 C         -20.3415   -9.5936   -9.3337 C.ar    1  UNL1        0.0643
     28 C         -19.3486   -9.5647   -8.3398 C.ar    1  UNL1        0.0100
     29 C         -18.3315  -10.5296   -8.3070 C.ar    1  UNL1        0.0534
     30 C         -17.6861   -9.9735   -4.8861 C.3     1  UNL1        0.2542
     31 O         -17.4356   -9.6127   -6.2385 O.3     1  UNL1       -0.4561
     32 C         -23.0904  -12.5495  -16.7040 C.3     1  UNL1        0.0867
     33 C         -24.4429  -13.2314  -16.3986 C.3     1  UNL1        0.0244
     34 C         -23.0192  -12.2222  -18.2052 C.3     1  UNL1        0.0244
     35 C         -21.9569  -13.5282  -16.3379 C.3     1  UNL1        0.0244
@<TRIPOS>BOND
     1    30    31    1
     2    31    19    1
     3    19    20   ar
     4    20    21   ar
     5    21    22   ar
     6    22    23   ar
     7    23    24   ar
     8    24    25   ar
     9    25    26    1
    10    25    27   ar
    11    27     1    1
    12     1     2    2
    13     1     3   am
    14     3     4    1
    15     4     5    1
    16     5     6    1
    17     6     7    1
    18     7     8    1
    19     6     9    1
    20     9    10    1
    21    10    11   ar
    22    11    12   ar
    23    12    32    1
    24    32    33    1
    25    32    34    1
    26    32    35    1
    27    12    13   ar
    28    13    14   ar
    29    14    15    1
    30    15    16    2
    31    15    17   am
    32    27    28   ar
    33    28    29   ar
    34    29    19   ar
    35    29    23   ar
    36     8     3    1
    37    14    10   ar
    38    17     6    1
    39    17    18    1
@<TRIPOS>MOLECULE
*****
 35 39 0 0 0
SMALL
GASTEIGER

@<TRIPOS>ATOM
      1 C         -20.7718  -11.3328  -11.0822 C.2     1  UNL1        0.2498
      2 O         -20.7151  -12.1735  -10.1438 O.2     1  UNL1       -0.2699
      3 N         -20.6273   -9.9286  -10.7800 N.am    1  UNL1       -0.2759
      4 C         -20.0285   -8.9899  -11.7379 C.3     1  UNL1        0.0954
      5 C         -20.9255   -7.7514  -11.9245 C.3     1  UNL1        0.0399
      6 C         -21.7316   -7.3447  -10.6469 C.3     1  UNL1        0.0645
      7 C         -21.0398   -7.9131   -9.3800 C.3     1  UNL1        0.0399
      8 C         -20.9383   -9.4493   -9.4254 C.3     1  UNL1        0.0954
      9 C         -23.2017   -7.9002  -10.7237 C.3     1  UNL1        0.0477
     10 C         -24.0376   -7.0885  -11.6646 C.ar    1  UNL1        0.0220
     11 C         -25.2651   -7.3552  -12.2252 C.ar    1  UNL1        0.0923
     12 N         -25.7128   -6.2155  -12.8137 N.ar    1  UNL1       -0.2534
     13 N         -24.8405   -5.2351  -12.5947 N.ar    1  UNL1       -0.1651
     14 C         -23.8195   -5.7677  -11.9022 C.ar    1  UNL1        0.1515
     15 C         -22.6778   -5.0796  -11.3188 C.2     1  UNL1        0.2650
     16 O         -22.5255   -3.8364  -11.4484 O.2     1  UNL1       -0.2684
     17 N         -21.7449   -5.8642  -10.5582 N.am    1  UNL1       -0.3023
     18 H         -20.9549   -5.3688  -10.0855 H       1  UNL1        0.1497
     19 C         -23.0166  -10.6976  -15.4378 C.ar    1  UNL1        0.2248
     20 N         -23.2673  -11.1278  -16.7065 N.ar    1  UNL1       -0.2101
     21 C         -22.7433  -12.2822  -17.1952 C.ar    1  UNL1        0.1021
     22 C         -21.9089  -13.0670  -16.3988 C.ar    1  UNL1        0.0209
     23 C         -21.6254  -12.6592  -15.0891 C.ar    1  UNL1        0.0069
     24 C         -20.7739  -13.4156  -14.2728 C.ar    1  UNL1        0.0117
     25 C         -20.4767  -12.9955  -12.9707 C.ar    1  UNL1        0.0620
     26 CL        -19.3359  -13.9590  -12.0363 Cl      1  UNL1       -0.0821
     27 C         -21.0493  -11.8082  -12.4616 C.ar    1  UNL1        0.0643
     28 C         -21.9230  -11.0680  -13.2760 C.ar    1  UNL1        0.0100
     29 C         -22.1960  -11.4676  -14.5922 C.ar    1  UNL1        0.0534
     30 C         -23.0222   -8.2194  -15.3431 C.3     1  UNL1        0.2542
     31 O         -23.5554   -9.4875  -14.9832 O.3     1  UNL1       -0.4561
     32 C         -27.0312   -5.9880  -13.4409 C.3     1  UNL1        0.0867
     33 C         -27.8069   -7.3103  -13.6347 C.3     1  UNL1        0.0244
     34 C         -27.8533   -5.0491  -12.5419 C.3     1  UNL1        0.0244
     35 C         -26.8321   -5.3322  -14.8218 C.3     1  UNL1        0.0244
@<TRIPOS>BOND
     1    30    31    1
     2    31    19    1
     3    19    20   ar
     4    20    21   ar
     5    21    22   ar
     6    22    23   ar
     7    23    24   ar
     8    24    25   ar
     9    25    26    1
    10    25    27   ar
    11    27     1    1
    12     1     2    2
    13     1     3   am
    14     3     4    1
    15     4     5    1
    16     5     6    1
    17     6     7    1
    18     7     8    1
    19     6     9    1
    20     9    10    1
    21    10    11   ar
    22    11    12   ar
    23    12    32    1
    24    32    33    1
    25    32    34    1
    26    32    35    1
    27    12    13   ar
    28    13    14   ar
    29    14    15    1
    30    15    16    2
    31    15    17   am
    32    27    28   ar
    33    28    29   ar
    34    29    19   ar
    35    29    23   ar
    36     8     3    1
    37    14    10   ar
    38    17     6    1
    39    17    18    1
@<TRIPOS>MOLECULE
*****
 35 39 0 0 0
SMALL
GASTEIGER

@<TRIPOS>ATOM
      1 C         -23.5603   -7.9251  -13.4304 C.2     1  UNL1        0.2498
      2 O         -23.4991   -7.1850  -14.4498 O.2     1  UNL1       -0.2699
      3 N         -23.1309   -7.4042  -12.1545 N.am    1  UNL1       -0.2759
      4 C         -23.7364   -7.8527  -10.8936 C.3     1  UNL1        0.0954
      5 C         -22.6506   -8.2552   -9.8776 C.3     1  UNL1        0.0399
      6 C         -21.3227   -7.4372   -9.9997 C.3     1  UNL1        0.0645
      7 C         -21.5966   -6.0838  -10.7071 C.3     1  UNL1        0.0399
      8 C         -22.1783   -6.2850  -12.1190 C.3     1  UNL1        0.0954
      9 C         -20.2538   -8.2431  -10.8264 C.3     1  UNL1        0.0477
     10 C         -19.6511   -9.3409  -10.0053 C.ar    1  UNL1        0.0220
     11 C         -18.8936  -10.4254  -10.3828 C.ar    1  UNL1        0.0923
     12 N         -18.3858  -10.9930   -9.2579 N.ar    1  UNL1       -0.2534
     13 N         -18.7499  -10.2742   -8.1992 N.ar    1  UNL1       -0.1651
     14 C         -19.5244   -9.2743   -8.6533 C.ar    1  UNL1        0.1515
     15 C         -20.0681   -8.1517   -7.9039 C.2     1  UNL1        0.2650
     16 O         -19.8659   -8.0299   -6.6670 O.2     1  UNL1       -0.2684
     17 N         -20.8175   -7.1655   -8.6319 N.am    1  UNL1       -0.3023
     18 H         -21.1605   -6.3253   -8.1129 H       1  UNL1        0.1497
     19 C         -22.4770  -12.7081  -14.0336 C.ar    1  UNL1        0.2248
     20 N         -22.8889  -14.0002  -14.1689 N.ar    1  UNL1       -0.2101
     21 C         -24.2037  -14.3425  -14.1793 C.ar    1  UNL1        0.1021
     22 C         -25.1857  -13.3617  -14.0372 C.ar    1  UNL1        0.0209
     23 C         -24.8039  -12.0217  -13.8943 C.ar    1  UNL1        0.0069
     24 C         -25.7668  -11.0172  -13.7284 C.ar    1  UNL1        0.0117
     25 C         -25.3816   -9.6809  -13.5663 C.ar    1  UNL1        0.0620
     26 CL        -26.6474   -8.4890  -13.2839 Cl      1  UNL1       -0.0821
     27 C         -24.0126   -9.3313  -13.5856 C.ar    1  UNL1        0.0643
     28 C         -23.0531  -10.3396  -13.7785 C.ar    1  UNL1        0.0100
     29 C         -23.4336  -11.6833  -13.9070 C.ar    1  UNL1        0.0534
     30 C         -20.1707  -13.1409  -13.2310 C.3     1  UNL1        0.2542
     31 O         -21.1106  -12.4023  -14.0009 O.3     1  UNL1       -0.4561
     32 C         -17.4230  -12.1106   -9.1732 C.3     1  UNL1        0.0867
     33 C         -15.9840  -11.6501   -9.4970 C.3     1  UNL1        0.0244
     34 C         -17.4579  -12.6891   -7.7484 C.3     1  UNL1        0.0244
     35 C         -17.8234  -13.2058  -10.1817 C.3     1  UNL1        0.0244
@<TRIPOS>BOND
     1    30    31    1
     2    31    19    1
     3    19    20   ar
     4    20    21   ar
     5    21    22   ar
     6    22    23   ar
     7    23    24   ar
     8    24    25   ar
     9    25    26    1
    10    25    27   ar
    11    27     1    1
    12     1     2    2
    13     1     3   am
    14     3     4    1
    15     4     5    1
    16     5     6    1
    17     6     7    1
    18     7     8    1
    19     6     9    1
    20     9    10    1
    21    10    11   ar
    22    11    12   ar
    23    12    32    1
    24    32    33    1
    25    32    34    1
    26    32    35    1
    27    12    13   ar
    28    13    14   ar
    29    14    15    1
    30    15    16    2
    31    15    17   am
    32    27    28   ar
    33    28    29   ar
    34    29    19   ar
    35    29    23   ar
    36     8     3    1
    37    14    10   ar
    38    17     6    1
    39    17    18    1
@<TRIPOS>MOLECULE
*****
 35 39 0 0 0
SMALL
GASTEIGER

@<TRIPOS>ATOM
      1 C         -21.8806   -8.1287  -14.3857 C.2     1  UNL1        0.2498
      2 O         -21.6000   -7.2745  -15.2701 O.2     1  UNL1       -0.2699
      3 N         -22.0325   -7.7007  -13.0155 N.am    1  UNL1       -0.2759
      4 C         -22.9512   -8.3788  -12.0916 C.3     1  UNL1        0.0954
      5 C         -22.2401   -8.7280  -10.7704 C.3     1  UNL1        0.0399
      6 C         -21.1283   -7.7101  -10.3517 C.3     1  UNL1        0.0645
      7 C         -21.3774   -6.3408  -11.0371 C.3     1  UNL1        0.0399
      8 C         -21.3758   -6.4622  -12.5725 C.3     1  UNL1        0.0954
      9 C         -19.7081   -8.2437  -10.7688 C.3     1  UNL1        0.0477
     10 C         -19.2442   -9.3258   -9.8432 C.ar    1  UNL1        0.0220
     11 C         -18.2174  -10.2321   -9.9727 C.ar    1  UNL1        0.0923
     12 N         -18.0448  -10.8432   -8.7718 N.ar    1  UNL1       -0.2534
     13 N         -18.8843  -10.3156   -7.8847 N.ar    1  UNL1       -0.1651
     14 C         -19.6175   -9.3983   -8.5379 C.ar    1  UNL1        0.1515
     15 C         -20.5864   -8.4655   -7.9825 C.2     1  UNL1        0.2650
     16 O         -20.8599   -8.4590   -6.7534 O.2     1  UNL1       -0.2684
     17 N         -21.1974   -7.5260   -8.8815 N.am    1  UNL1       -0.3023
     18 H         -21.8492   -6.8133   -8.4812 H       1  UNL1        0.1497
     19 C         -21.1996  -12.8975  -13.2863 C.ar    1  UNL1        0.2248
     20 N         -21.2995  -14.2115  -13.6343 N.ar    1  UNL1       -0.2101
     21 C         -21.7915  -14.6052  -14.8380 C.ar    1  UNL1        0.1021
     22 C         -22.2266  -13.6559  -15.7632 C.ar    1  UNL1        0.0209
     23 C         -22.1420  -12.2948  -15.4436 C.ar    1  UNL1        0.0069
     24 C         -22.5910  -11.3193  -16.3438 C.ar    1  UNL1        0.0117
     25 C         -22.5232   -9.9603  -16.0138 C.ar    1  UNL1        0.0620
     26 CL        -23.1806   -8.8009  -17.1656 Cl      1  UNL1       -0.0821
     27 C         -21.9835   -9.5594  -14.7709 C.ar    1  UNL1        0.0643
     28 C         -21.5110  -10.5410  -13.8834 C.ar    1  UNL1        0.0100
     29 C         -21.6086  -11.9046  -14.1963 C.ar    1  UNL1        0.0534
     30 C         -19.6159  -13.1944  -11.4011 C.3     1  UNL1        0.2542
     31 O         -20.7116  -12.5364  -12.0242 O.3     1  UNL1       -0.4561
     32 C         -16.9869  -11.8047   -8.3985 C.3     1  UNL1        0.0867
     33 C         -15.7730  -11.7158   -9.3504 C.3     1  UNL1        0.0244
     34 C         -16.5244  -11.5015   -6.9632 C.3     1  UNL1        0.0244
     35 C         -17.5538  -13.2369   -8.4632 C.3     1  UNL1        0.0244
@<TRIPOS>BOND
     1    30    31    1
     2    31    19    1
     3    19    20   ar
     4    20    21   ar
     5    21    22   ar
     6    22    23   ar
     7    23    24   ar
     8    24    25   ar
     9    25    26    1
    10    25    27   ar
    11    27     1    1
    12     1     2    2
    13     1     3   am
    14     3     4    1
    15     4     5    1
    16     5     6    1
    17     6     7    1
    18     7     8    1
    19     6     9    1
    20     9    10    1
    21    10    11   ar
    22    11    12   ar
    23    12    32    1
    24    32    33    1
    25    32    34    1
    26    32    35    1
    27    12    13   ar
    28    13    14   ar
    29    14    15    1
    30    15    16    2
    31    15    17   am
    32    27    28   ar
    33    28    29   ar
    34    29    19   ar
    35    29    23   ar
    36     8     3    1
    37    14    10   ar
    38    17     6    1
    39    17    18    1
