@<TRIPOS>MOLECULE
*****
 46 51 0 0 0
SMALL
GASTEIGER

@<TRIPOS>ATOM
      1 C          13.4848   83.3891   24.4941 C.ar    1  UNL1        0.1334
      2 C          14.1197   82.1616   24.7441 C.ar    1  UNL1        0.0357
      3 C          13.3536   81.0424   25.0739 C.ar    1  UNL1        0.0191
      4 C          11.9559   81.1417   25.1432 C.ar    1  UNL1        0.0702
      5 C          11.3630   82.3902   24.9203 C.ar    1  UNL1        0.1149
      6 N          12.1287   83.4658   24.5987 N.ar    1  UNL1       -0.2278
      7 C          15.0470   84.6010   22.9013 C.3     1  UNL1        0.1934
      8 C          15.5325   86.0373   22.6059 C.3     1  UNL1        0.0547
      9 C          14.3929   87.0424   22.8539 C.3     1  UNL1        0.0496
     10 C          13.9638   87.0314   24.3425 C.3     1  UNL1        0.0254
     11 C          14.2767   85.7087   25.0648 C.3     1  UNL1        0.0945
     12 N          14.2419   84.5658   24.1396 N.pl3   1  UNL1       -0.2716
     13 C          14.8065   84.5259   20.5824 C.3     1  UNL1        0.1761
     14 O          14.2401   84.1547   21.8210 O.3     1  UNL1       -0.3349
     15 C          14.7859   88.4524   22.3705 C.3     1  UNL1        0.2055
     16 O          14.9206   88.4814   20.9469 O.3     1  UNL1       -0.4755
     17 C          13.8801   88.6048   20.0113 C.ar    1  UNL1        0.1388
     18 C          12.5285   88.7414   20.3805 C.ar    1  UNL1        0.0369
     19 C          11.5411   88.8588   19.4002 C.ar    1  UNL1        0.0033
     20 C          11.8863   88.8515   18.0475 C.ar    1  UNL1        0.0066
     21 C          13.2306   88.7325   17.6591 C.ar    1  UNL1        0.0785
     22 C          14.2201   88.6147   18.6524 C.ar    1  UNL1        0.0433
     23 C          13.5960   88.7311   16.2252 C.2     1  UNL1        0.3381
     24 O          14.7968   88.5798   15.8719 O.2     1  UNL1       -0.2451
     25 O          12.6150   88.8971   15.2507 O.3     1  UNL1       -0.4771
     26 H          12.8542   88.8976   14.2664 H       1  UNL1        0.2954
     27 N          11.1326   80.0210   25.5060 N.am    1  UNL1       -0.2766
     28 C           9.9914   79.5804   24.7489 C.2     1  UNL1        0.2839
     29 O           9.6972   80.1343   23.6562 O.2     1  UNL1       -0.2665
     30 H          11.3554   79.5401   26.4045 H       1  UNL1        0.1553
     31 C           9.1537   78.4612   25.2137 C.ar    1  UNL1        0.1946
     32 O           8.9171   77.3983   24.4649 O.2     1  UNL1       -0.4492
     33 C           8.1520   76.5847   25.1508 C.ar    1  UNL1        0.1452
     34 C           7.6626   75.3458   24.7517 C.ar    1  UNL1        0.0375
     35 C           6.8496   74.6361   25.6528 C.ar    1  UNL1        0.0031
     36 C           6.5390   75.1722   26.9322 C.ar    1  UNL1        0.0002
     37 C           7.0575   76.4377   27.2981 C.ar    1  UNL1        0.0028
     38 C           7.8620   77.1121   26.3795 C.ar    1  UNL1        0.0337
     39 C           8.4866   78.3414   26.4393 C.ar    1  UNL1        0.0202
     40 C           8.4148   79.3273   27.5657 C.3     1  UNL1        0.0345
     41 C           5.6791   74.4138   27.8758 C.ar    1  UNL1        0.0000
     42 C           5.4831   73.0293   27.7110 C.ar    1  UNL1        0.0000
     43 C           4.6720   72.3180   28.6006 C.ar    1  UNL1        0.0000
     44 C           4.0493   72.9777   29.6625 C.ar    1  UNL1        0.0000
     45 C           4.2361   74.3507   29.8369 C.ar    1  UNL1        0.0000
     46 C           5.0453   75.0673   28.9499 C.ar    1  UNL1        0.0000
@<TRIPOS>BOND
     1    13    14    1
     2    14     7    1
     3     7     8    1
     4     8     9    1
     5     9    15    1
     6    15    16    1
     7    16    17    1
     8    17    18   ar
     9    18    19   ar
    10    19    20   ar
    11    20    21   ar
    12    21    23    1
    13    23    24    2
    14    23    25    1
    15    21    22   ar
    16     9    10    1
    17    10    11    1
    18    11    12    1
    19    12     1    1
    20     1     2   ar
    21     2     3   ar
    22     3     4   ar
    23     4    27    1
    24    27    28   am
    25    28    29    2
    26    28    31    1
    27    31    32   ar
    28    32    33   ar
    29    33    34   ar
    30    34    35   ar
    31    35    36   ar
    32    36    41    1
    33    41    42   ar
    34    42    43   ar
    35    43    44   ar
    36    44    45   ar
    37    45    46   ar
    38    36    37   ar
    39    37    38   ar
    40    38    39   ar
    41    39    40    1
    42     4     5   ar
    43     5     6   ar
    44    12     7    1
    45     6     1   ar
    46    22    17   ar
    47    39    31   ar
    48    38    33   ar
    49    46    41   ar
    50    25    26    1
    51    27    30    1
@<TRIPOS>MOLECULE
*****
 46 51 0 0 0
SMALL
GASTEIGER

@<TRIPOS>ATOM
      1 C           8.6641   77.2805   23.4607 C.ar    1  UNL1        0.1334
      2 C           9.1412   77.5947   24.7437 C.ar    1  UNL1        0.0357
      3 C           9.8165   78.7981   24.9538 C.ar    1  UNL1        0.0191
      4 C          10.0065   79.6936   23.8906 C.ar    1  UNL1        0.0702
      5 C           9.5458   79.3292   22.6199 C.ar    1  UNL1        0.1149
      6 N           8.8892   78.1532   22.4391 N.ar    1  UNL1       -0.2278
      7 C           6.7406   75.7066   23.9793 C.3     1  UNL1        0.1934
      8 C           6.0130   74.5002   23.3457 C.3     1  UNL1        0.0547
      9 C           5.9748   74.6504   21.8139 C.3     1  UNL1        0.0496
     10 C           7.4077   74.6460   21.2247 C.3     1  UNL1        0.0254
     11 C           8.4875   75.0950   22.2255 C.3     1  UNL1        0.0945
     12 N           7.9518   76.0511   23.2064 N.pl3   1  UNL1       -0.2716
     13 C           4.8108   76.6414   24.8972 C.3     1  UNL1        0.1761
     14 O           5.8663   76.8259   23.9782 O.3     1  UNL1       -0.3349
     15 C           5.0784   73.5708   21.1759 C.3     1  UNL1        0.2055
     16 O           3.8363   74.1330   20.7441 O.3     1  UNL1       -0.4755
     17 C           3.5591   75.4960   20.5479 C.ar    1  UNL1        0.1388
     18 C           3.9797   76.2083   19.4088 C.ar    1  UNL1        0.0369
     19 C           3.6720   77.5637   19.2747 C.ar    1  UNL1        0.0033
     20 C           2.9371   78.2209   20.2633 C.ar    1  UNL1        0.0066
     21 C           2.4946   77.5241   21.3994 C.ar    1  UNL1        0.0785
     22 C           2.8083   76.1586   21.5276 C.ar    1  UNL1        0.0433
     23 C           1.7106   78.2202   22.4435 C.2     1  UNL1        0.3381
     24 O           2.2926   78.8870   23.3415 O.2     1  UNL1       -0.2451
     25 O           0.3199   78.1453   22.4441 O.3     1  UNL1       -0.4771
     26 H          -0.2263   78.6182   23.1541 H       1  UNL1        0.2954
     27 N          10.7200   80.9299   24.0580 N.am    1  UNL1       -0.2766
     28 C          12.0843   81.0190   24.5055 C.2     1  UNL1        0.2839
     29 O          12.7598   79.9750   24.7080 O.2     1  UNL1       -0.2665
     30 H          10.1867   81.8111   23.8932 H       1  UNL1        0.1553
     31 C          12.7343   82.3243   24.7155 C.ar    1  UNL1        0.1946
     32 O          13.0384   83.1307   23.7137 O.2     1  UNL1       -0.4492
     33 C          13.5953   84.2054   24.2164 C.ar    1  UNL1        0.1452
     34 C          14.0657   85.3165   23.5254 C.ar    1  UNL1        0.0375
     35 C          14.6346   86.3646   24.2701 C.ar    1  UNL1        0.0031
     36 C          14.7248   86.2870   25.6866 C.ar    1  UNL1        0.0002
     37 C          14.2342   85.1369   26.3505 C.ar    1  UNL1        0.0028
     38 C          13.6748   84.1179   25.5795 C.ar    1  UNL1        0.0337
     39 C          13.1379   82.8953   25.9290 C.ar    1  UNL1        0.0202
     40 C          13.0561   82.3159   27.3087 C.3     1  UNL1        0.0345
     41 C          15.3277   87.3999   26.4629 C.ar    1  UNL1        0.0000
     42 C          16.3320   88.2071   25.8953 C.ar    1  UNL1        0.0000
     43 C          16.8986   89.2538   26.6292 C.ar    1  UNL1        0.0000
     44 C          16.4704   89.5072   27.9342 C.ar    1  UNL1        0.0000
     45 C          15.4748   88.7139   28.5084 C.ar    1  UNL1        0.0000
     46 C          14.9053   87.6653   27.7796 C.ar    1  UNL1        0.0000
@<TRIPOS>BOND
     1    13    14    1
     2    14     7    1
     3     7     8    1
     4     8     9    1
     5     9    15    1
     6    15    16    1
     7    16    17    1
     8    17    18   ar
     9    18    19   ar
    10    19    20   ar
    11    20    21   ar
    12    21    23    1
    13    23    24    2
    14    23    25    1
    15    21    22   ar
    16     9    10    1
    17    10    11    1
    18    11    12    1
    19    12     1    1
    20     1     2   ar
    21     2     3   ar
    22     3     4   ar
    23     4    27    1
    24    27    28   am
    25    28    29    2
    26    28    31    1
    27    31    32   ar
    28    32    33   ar
    29    33    34   ar
    30    34    35   ar
    31    35    36   ar
    32    36    41    1
    33    41    42   ar
    34    42    43   ar
    35    43    44   ar
    36    44    45   ar
    37    45    46   ar
    38    36    37   ar
    39    37    38   ar
    40    38    39   ar
    41    39    40    1
    42     4     5   ar
    43     5     6   ar
    44    12     7    1
    45     6     1   ar
    46    22    17   ar
    47    39    31   ar
    48    38    33   ar
    49    46    41   ar
    50    25    26    1
    51    27    30    1
@<TRIPOS>MOLECULE
*****
 46 51 0 0 0
SMALL
GASTEIGER

@<TRIPOS>ATOM
      1 C           9.0655   79.0370   25.4983 C.ar    1  UNL1        0.1334
      2 C           9.7787   79.6991   26.5108 C.ar    1  UNL1        0.0357
      3 C          10.5537   80.8156   26.1927 C.ar    1  UNL1        0.0191
      4 C          10.6094   81.2801   24.8700 C.ar    1  UNL1        0.0702
      5 C           9.9114   80.5731   23.8838 C.ar    1  UNL1        0.1149
      6 N           9.1616   79.4897   24.2170 N.ar    1  UNL1       -0.2278
      7 C           7.7303   77.6516   27.1547 C.3     1  UNL1        0.1934
      8 C           6.6688   76.5294   27.1533 C.3     1  UNL1        0.0547
      9 C           5.7192   76.7010   25.9536 C.3     1  UNL1        0.0496
     10 C           6.4909   76.5643   24.6171 C.3     1  UNL1        0.0254
     11 C           7.9899   76.8940   24.7340 C.3     1  UNL1        0.0945
     12 N           8.2448   77.8859   25.7897 N.pl3   1  UNL1       -0.2716
     13 C           7.0812   78.8634   29.0391 C.3     1  UNL1        0.1761
     14 O           7.1344   78.8506   27.6285 O.3     1  UNL1       -0.3349
     15 C           4.5325   75.7215   26.0447 C.3     1  UNL1        0.2055
     16 O           3.3009   76.3884   25.7553 O.3     1  UNL1       -0.4755
     17 C           2.9425   76.9905   24.5378 C.ar    1  UNL1        0.1388
     18 C           2.5833   78.3473   24.4292 C.ar    1  UNL1        0.0369
     19 C           2.2360   78.8847   23.1881 C.ar    1  UNL1        0.0033
     20 C           2.2516   78.0845   22.0441 C.ar    1  UNL1        0.0066
     21 C           2.6227   76.7328   22.1289 C.ar    1  UNL1        0.0785
     22 C           2.9713   76.1982   23.3828 C.ar    1  UNL1        0.0433
     23 C           2.6447   75.8872   20.9148 C.2     1  UNL1        0.3381
     24 O           3.2076   76.2944   19.8626 O.2     1  UNL1       -0.2451
     25 O           2.0429   74.6313   20.9230 O.3     1  UNL1       -0.4771
     26 H           2.0524   74.0444   20.0974 H       1  UNL1        0.2954
     27 N          11.4165   82.4087   24.4954 N.am    1  UNL1       -0.2766
     28 C          12.8487   82.4534   24.6226 C.2     1  UNL1        0.2839
     29 O          13.4871   81.4405   25.0147 O.2     1  UNL1       -0.2665
     30 H          10.9148   83.2608   24.1630 H       1  UNL1        0.1553
     31 C          13.6075   83.6681   24.2777 C.ar    1  UNL1        0.1946
     32 O          13.1918   84.8779   24.6091 O.2     1  UNL1       -0.4492
     33 C          14.0758   85.7414   24.1723 C.ar    1  UNL1        0.1452
     34 C          14.0435   87.1252   24.3042 C.ar    1  UNL1        0.0375
     35 C          15.1038   87.8656   23.7525 C.ar    1  UNL1        0.0031
     36 C          16.1744   87.2156   23.0803 C.ar    1  UNL1        0.0002
     37 C          16.1676   85.8044   22.9678 C.ar    1  UNL1        0.0028
     38 C          15.1006   85.1027   23.5289 C.ar    1  UNL1        0.0337
     39 C          14.8114   83.7537   23.5672 C.ar    1  UNL1        0.0202
     40 C          15.6088   82.6499   22.9412 C.3     1  UNL1        0.0345
     41 C          17.2890   88.0077   22.5013 C.ar    1  UNL1        0.0000
     42 C          17.2179   88.4825   21.1777 C.ar    1  UNL1        0.0000
     43 C          18.2696   89.2272   20.6349 C.ar    1  UNL1        0.0000
     44 C          19.4009   89.5069   21.4045 C.ar    1  UNL1        0.0000
     45 C          19.4834   89.0420   22.7187 C.ar    1  UNL1        0.0000
     46 C          18.4353   88.2959   23.2665 C.ar    1  UNL1        0.0000
@<TRIPOS>BOND
     1    13    14    1
     2    14     7    1
     3     7     8    1
     4     8     9    1
     5     9    15    1
     6    15    16    1
     7    16    17    1
     8    17    18   ar
     9    18    19   ar
    10    19    20   ar
    11    20    21   ar
    12    21    23    1
    13    23    24    2
    14    23    25    1
    15    21    22   ar
    16     9    10    1
    17    10    11    1
    18    11    12    1
    19    12     1    1
    20     1     2   ar
    21     2     3   ar
    22     3     4   ar
    23     4    27    1
    24    27    28   am
    25    28    29    2
    26    28    31    1
    27    31    32   ar
    28    32    33   ar
    29    33    34   ar
    30    34    35   ar
    31    35    36   ar
    32    36    41    1
    33    41    42   ar
    34    42    43   ar
    35    43    44   ar
    36    44    45   ar
    37    45    46   ar
    38    36    37   ar
    39    37    38   ar
    40    38    39   ar
    41    39    40    1
    42     4     5   ar
    43     5     6   ar
    44    12     7    1
    45     6     1   ar
    46    22    17   ar
    47    39    31   ar
    48    38    33   ar
    49    46    41   ar
    50    25    26    1
    51    27    30    1
@<TRIPOS>MOLECULE
*****
 46 51 0 0 0
SMALL
GASTEIGER

@<TRIPOS>ATOM
      1 C          13.5924   83.9953   24.2567 C.ar    1  UNL1        0.1334
      2 C          14.0022   83.5971   25.5397 C.ar    1  UNL1        0.0357
      3 C          13.3606   82.5291   26.1690 C.ar    1  UNL1        0.0191
      4 C          12.3201   81.8501   25.5173 C.ar    1  UNL1        0.0702
      5 C          11.9184   82.2985   24.2534 C.ar    1  UNL1        0.1149
      6 N          12.5588   83.3393   23.6590 N.ar    1  UNL1       -0.2278
      7 C          15.2378   84.8293   22.5122 C.3     1  UNL1        0.1934
      8 C          15.5742   86.1293   21.7487 C.3     1  UNL1        0.0547
      9 C          14.2864   86.9229   21.4621 C.3     1  UNL1        0.0496
     10 C          13.6063   87.3637   22.7826 C.3     1  UNL1        0.0254
     11 C          13.9583   86.4705   23.9856 C.3     1  UNL1        0.0945
     12 N          14.2383   85.0879   23.5692 N.pl3   1  UNL1       -0.2716
     13 C          15.0920   84.1814   20.2762 C.3     1  UNL1        0.1761
     14 O          14.7003   83.8833   21.5993 O.3     1  UNL1       -0.3349
     15 C          14.5692   88.1141   20.5257 C.3     1  UNL1        0.2055
     16 O          13.6793   88.1019   19.4061 O.3     1  UNL1       -0.4755
     17 C          14.0176   87.8181   18.0727 C.ar    1  UNL1        0.1388
     18 C          14.0271   88.7949   17.0590 C.ar    1  UNL1        0.0369
     19 C          14.3723   88.4468   15.7515 C.ar    1  UNL1        0.0033
     20 C          14.7198   87.1308   15.4407 C.ar    1  UNL1        0.0066
     21 C          14.7320   86.1452   16.4410 C.ar    1  UNL1        0.0785
     22 C          14.3832   86.5033   17.7561 C.ar    1  UNL1        0.0433
     23 C          15.1065   84.7521   16.1116 C.2     1  UNL1        0.3381
     24 O          14.2597   83.9646   15.6091 O.2     1  UNL1       -0.2451
     25 O          16.4002   84.2970   16.3539 O.3     1  UNL1       -0.4771
     26 H          16.6671   83.3453   16.1321 H       1  UNL1        0.2954
     27 N          11.6154   80.7637   26.1407 N.am    1  UNL1       -0.2766
     28 C          11.6323   79.4089   25.6572 C.2     1  UNL1        0.2839
     29 O          12.3504   79.0911   24.6720 O.2     1  UNL1       -0.2665
     30 H          11.0156   80.9967   26.9617 H       1  UNL1        0.1553
     31 C          10.8349   78.3562   26.3100 C.ar    1  UNL1        0.1946
     32 O          11.3709   77.4744   27.1357 O.2     1  UNL1       -0.4492
     33 C          10.4150   76.6809   27.5534 C.ar    1  UNL1        0.1452
     34 C          10.5276   75.6137   28.4377 C.ar    1  UNL1        0.0375
     35 C           9.3638   74.8885   28.7482 C.ar    1  UNL1        0.0031
     36 C           8.1118   75.2383   28.1731 C.ar    1  UNL1        0.0002
     37 C           8.0419   76.3317   27.2766 C.ar    1  UNL1        0.0028
     38 C           9.2162   77.0292   26.9934 C.ar    1  UNL1        0.0337
     39 C           9.4646   78.1054   26.1657 C.ar    1  UNL1        0.0202
     40 C           8.4729   78.8050   25.2864 C.3     1  UNL1        0.0345
     41 C           6.8891   74.4652   28.5083 C.ar    1  UNL1        0.0000
     42 C           6.1882   74.7165   29.7032 C.ar    1  UNL1        0.0000
     43 C           5.0377   73.9861   30.0166 C.ar    1  UNL1        0.0000
     44 C           4.5740   72.9997   29.1435 C.ar    1  UNL1        0.0000
     45 C           5.2602   72.7411   27.9550 C.ar    1  UNL1        0.0000
     46 C           6.4117   73.4676   27.6368 C.ar    1  UNL1        0.0000
@<TRIPOS>BOND
     1    13    14    1
     2    14     7    1
     3     7     8    1
     4     8     9    1
     5     9    15    1
     6    15    16    1
     7    16    17    1
     8    17    18   ar
     9    18    19   ar
    10    19    20   ar
    11    20    21   ar
    12    21    23    1
    13    23    24    2
    14    23    25    1
    15    21    22   ar
    16     9    10    1
    17    10    11    1
    18    11    12    1
    19    12     1    1
    20     1     2   ar
    21     2     3   ar
    22     3     4   ar
    23     4    27    1
    24    27    28   am
    25    28    29    2
    26    28    31    1
    27    31    32   ar
    28    32    33   ar
    29    33    34   ar
    30    34    35   ar
    31    35    36   ar
    32    36    41    1
    33    41    42   ar
    34    42    43   ar
    35    43    44   ar
    36    44    45   ar
    37    45    46   ar
    38    36    37   ar
    39    37    38   ar
    40    38    39   ar
    41    39    40    1
    42     4     5   ar
    43     5     6   ar
    44    12     7    1
    45     6     1   ar
    46    22    17   ar
    47    39    31   ar
    48    38    33   ar
    49    46    41   ar
    50    25    26    1
    51    27    30    1
@<TRIPOS>MOLECULE
*****
 46 51 0 0 0
SMALL
GASTEIGER

@<TRIPOS>ATOM
      1 C           8.8085   77.3499   23.4008 C.ar    1  UNL1        0.1334
      2 C           8.9212   78.2632   22.3398 C.ar    1  UNL1        0.0357
      3 C           9.5913   79.4716   22.5372 C.ar    1  UNL1        0.0191
      4 C          10.1592   79.7659   23.7859 C.ar    1  UNL1        0.0702
      5 C           9.9965   78.8448   24.8275 C.ar    1  UNL1        0.1149
      6 N           9.3419   77.6736   24.6118 N.ar    1  UNL1       -0.2278
      7 C           7.0516   75.6789   24.1538 C.3     1  UNL1        0.1934
      8 C           6.3102   74.4369   23.6117 C.3     1  UNL1        0.0547
      9 C           6.0654   74.5854   22.0989 C.3     1  UNL1        0.0496
     10 C           7.4078   74.6549   21.3285 C.3     1  UNL1        0.0254
     11 C           8.5843   75.1585   22.1837 C.3     1  UNL1        0.0945
     12 N           8.1327   76.0855   23.2326 N.pl3   1  UNL1       -0.2716
     13 C           5.6575   76.8644   25.6001 C.3     1  UNL1        0.1761
     14 O           6.1287   76.7518   24.2742 O.3     1  UNL1       -0.3349
     15 C           5.1498   73.4613   21.5753 C.3     1  UNL1        0.2055
     16 O           3.9524   74.0035   21.0116 O.3     1  UNL1       -0.4755
     17 C           3.6539   75.3646   20.8345 C.ar    1  UNL1        0.1388
     18 C           3.0319   76.1488   21.8244 C.ar    1  UNL1        0.0369
     19 C           2.7613   77.4975   21.5847 C.ar    1  UNL1        0.0033
     20 C           3.1137   78.0816   20.3666 C.ar    1  UNL1        0.0066
     21 C           3.7495   77.3202   19.3724 C.ar    1  UNL1        0.0785
     22 C           4.0190   75.9619   19.6211 C.ar    1  UNL1        0.0433
     23 C           4.1281   77.9418   18.0841 C.2     1  UNL1        0.3381
     24 O           4.0864   79.1940   17.9421 O.2     1  UNL1       -0.2451
     25 O           4.5350   77.1482   17.0145 O.3     1  UNL1       -0.4771
     26 H           4.7964   77.5635   16.1283 H       1  UNL1        0.2954
     27 N          10.8332   81.0097   24.0388 N.am    1  UNL1       -0.2766
     28 C          12.2255   81.1164   24.3848 C.2     1  UNL1        0.2839
     29 O          12.9576   80.0914   24.4111 O.2     1  UNL1       -0.2665
     30 H          10.2525   81.8761   24.0196 H       1  UNL1        0.1553
     31 C          12.8371   82.4208   24.6929 C.ar    1  UNL1        0.1946
     32 O          13.1875   83.2766   23.7488 O.2     1  UNL1       -0.4492
     33 C          13.6923   84.3359   24.3327 C.ar    1  UNL1        0.1452
     34 C          14.1839   85.4846   23.7225 C.ar    1  UNL1        0.0375
     35 C          14.6862   86.5065   24.5472 C.ar    1  UNL1        0.0031
     36 C          14.6902   86.3659   25.9617 C.ar    1  UNL1        0.0002
     37 C          14.1808   85.1792   26.5419 C.ar    1  UNL1        0.0028
     38 C          13.6890   84.1877   25.6929 C.ar    1  UNL1        0.0337
     39 C          13.1543   82.9423   25.9534 C.ar    1  UNL1        0.0202
     40 C          12.9981   82.2994   27.2982 C.3     1  UNL1        0.0345
     41 C          15.2233   87.4517   26.8230 C.ar    1  UNL1        0.0000
     42 C          16.1818   88.3549   26.3253 C.ar    1  UNL1        0.0000
     43 C          16.6827   89.3758   27.1391 C.ar    1  UNL1        0.0000
     44 C          16.2338   89.5074   28.4550 C.ar    1  UNL1        0.0000
     45 C          15.2832   88.6180   28.9603 C.ar    1  UNL1        0.0000
     46 C          14.7794   87.5947   28.1515 C.ar    1  UNL1        0.0000
@<TRIPOS>BOND
     1    13    14    1
     2    14     7    1
     3     7     8    1
     4     8     9    1
     5     9    15    1
     6    15    16    1
     7    16    17    1
     8    17    18   ar
     9    18    19   ar
    10    19    20   ar
    11    20    21   ar
    12    21    23    1
    13    23    24    2
    14    23    25    1
    15    21    22   ar
    16     9    10    1
    17    10    11    1
    18    11    12    1
    19    12     1    1
    20     1     2   ar
    21     2     3   ar
    22     3     4   ar
    23     4    27    1
    24    27    28   am
    25    28    29    2
    26    28    31    1
    27    31    32   ar
    28    32    33   ar
    29    33    34   ar
    30    34    35   ar
    31    35    36   ar
    32    36    41    1
    33    41    42   ar
    34    42    43   ar
    35    43    44   ar
    36    44    45   ar
    37    45    46   ar
    38    36    37   ar
    39    37    38   ar
    40    38    39   ar
    41    39    40    1
    42     4     5   ar
    43     5     6   ar
    44    12     7    1
    45     6     1   ar
    46    22    17   ar
    47    39    31   ar
    48    38    33   ar
    49    46    41   ar
    50    25    26    1
    51    27    30    1
@<TRIPOS>MOLECULE
*****
 46 51 0 0 0
SMALL
GASTEIGER

@<TRIPOS>ATOM
      1 C           9.0806   79.1470   25.1310 C.ar    1  UNL1        0.1334
      2 C           9.7597   79.8170   26.1616 C.ar    1  UNL1        0.0357
      3 C          10.5758   80.9073   25.8560 C.ar    1  UNL1        0.0191
      4 C          10.7066   81.3381   24.5271 C.ar    1  UNL1        0.0702
      5 C          10.0401   80.6235   23.5246 C.ar    1  UNL1        0.1149
      6 N           9.2493   79.5660   23.8458 N.ar    1  UNL1       -0.2278
      7 C           7.8986   77.0386   24.3540 C.3     1  UNL1        0.1934
      8 C           7.1988   75.8003   24.9565 C.3     1  UNL1        0.0547
      9 C           7.8975   75.3812   26.2629 C.3     1  UNL1        0.0496
     10 C           7.7863   76.4993   27.3296 C.3     1  UNL1        0.0254
     11 C           7.5890   77.9041   26.7323 C.3     1  UNL1        0.0945
     12 N           8.2192   78.0224   25.4086 N.pl3   1  UNL1       -0.2716
     13 C           8.9397   76.5098   22.3348 C.3     1  UNL1        0.1761
     14 O           9.1075   76.6286   23.7314 O.3     1  UNL1       -0.3349
     15 C           7.3518   74.0326   26.7723 C.3     1  UNL1        0.2055
     16 O           5.9241   74.0606   26.8522 O.3     1  UNL1       -0.4755
     17 C           5.1546   74.1804   28.0213 C.ar    1  UNL1        0.1388
     18 C           4.6362   73.0710   28.7156 C.ar    1  UNL1        0.0369
     19 C           3.8771   73.2586   29.8725 C.ar    1  UNL1        0.0033
     20 C           3.6343   74.5460   30.3553 C.ar    1  UNL1        0.0066
     21 C           4.1563   75.6648   29.6860 C.ar    1  UNL1        0.0785
     22 C           4.9203   75.4680   28.5211 C.ar    1  UNL1        0.0433
     23 C           3.9036   77.0283   30.2021 C.2     1  UNL1        0.3381
     24 O           4.4180   78.0311   29.6368 O.2     1  UNL1       -0.2451
     25 O           3.0935   77.2171   31.3190 O.3     1  UNL1       -0.4771
     26 H           2.9138   78.1463   31.6804 H       1  UNL1        0.2954
     27 N          11.5577   82.4385   24.1664 N.am    1  UNL1       -0.2766
     28 C          12.8273   82.7121   24.7850 C.2     1  UNL1        0.2839
     29 O          13.2980   81.9280   25.6515 O.2     1  UNL1       -0.2665
     30 H          11.1954   83.1024   23.4480 H       1  UNL1        0.1553
     31 C          13.6197   83.8957   24.4087 C.ar    1  UNL1        0.1946
     32 O          13.2863   85.1175   24.7863 O.2     1  UNL1       -0.4492
     33 C          14.1803   85.9460   24.3045 C.ar    1  UNL1        0.1452
     34 C          14.2243   87.3271   24.4599 C.ar    1  UNL1        0.0375
     35 C          15.2802   88.0265   23.8495 C.ar    1  UNL1        0.0031
     36 C          16.2708   87.3392   23.0966 C.ar    1  UNL1        0.0002
     37 C          16.1878   85.9323   22.9627 C.ar    1  UNL1        0.0028
     38 C          15.1276   85.2717   23.5835 C.ar    1  UNL1        0.0337
     39 C          14.7764   83.9374   23.6201 C.ar    1  UNL1        0.0202
     40 C          15.4756   82.8090   22.9245 C.3     1  UNL1        0.0345
     41 C          17.3816   88.0883   22.4562 C.ar    1  UNL1        0.0000
     42 C          17.2362   88.6132   21.1579 C.ar    1  UNL1        0.0000
     43 C          18.2844   89.3172   20.5571 C.ar    1  UNL1        0.0000
     44 C          19.4862   89.5059   21.2430 C.ar    1  UNL1        0.0000
     45 C          19.6427   88.9904   22.5314 C.ar    1  UNL1        0.0000
     46 C          18.5984   88.2848   23.1369 C.ar    1  UNL1        0.0000
@<TRIPOS>BOND
     1    13    14    1
     2    14     7    1
     3     7     8    1
     4     8     9    1
     5     9    15    1
     6    15    16    1
     7    16    17    1
     8    17    18   ar
     9    18    19   ar
    10    19    20   ar
    11    20    21   ar
    12    21    23    1
    13    23    24    2
    14    23    25    1
    15    21    22   ar
    16     9    10    1
    17    10    11    1
    18    11    12    1
    19    12     1    1
    20     1     2   ar
    21     2     3   ar
    22     3     4   ar
    23     4    27    1
    24    27    28   am
    25    28    29    2
    26    28    31    1
    27    31    32   ar
    28    32    33   ar
    29    33    34   ar
    30    34    35   ar
    31    35    36   ar
    32    36    41    1
    33    41    42   ar
    34    42    43   ar
    35    43    44   ar
    36    44    45   ar
    37    45    46   ar
    38    36    37   ar
    39    37    38   ar
    40    38    39   ar
    41    39    40    1
    42     4     5   ar
    43     5     6   ar
    44    12     7    1
    45     6     1   ar
    46    22    17   ar
    47    39    31   ar
    48    38    33   ar
    49    46    41   ar
    50    25    26    1
    51    27    30    1
@<TRIPOS>MOLECULE
*****
 46 51 0 0 0
SMALL
GASTEIGER

@<TRIPOS>ATOM
      1 C          14.2188   84.8219   24.8442 C.ar    1  UNL1        0.1334
      2 C          14.3050   84.5624   26.2217 C.ar    1  UNL1        0.0357
      3 C          13.6006   83.4881   26.7674 C.ar    1  UNL1        0.0191
      4 C          12.8205   82.6652   25.9411 C.ar    1  UNL1        0.0702
      5 C          12.7335   82.9767   24.5790 C.ar    1  UNL1        0.1149
      6 N          13.4296   84.0266   24.0692 N.ar    1  UNL1       -0.2278
      7 C          15.5888   85.7587   22.9228 C.3     1  UNL1        0.1934
      8 C          16.0519   87.1265   22.3742 C.3     1  UNL1        0.0547
      9 C          14.9634   88.1886   22.6142 C.3     1  UNL1        0.0496
     10 C          14.7196   88.3939   24.1304 C.3     1  UNL1        0.0254
     11 C          15.1026   87.1739   24.9873 C.3     1  UNL1        0.0945
     12 N          14.9410   85.9167   24.2412 N.pl3   1  UNL1       -0.2716
     13 C          15.2829   84.2926   21.1346 C.3     1  UNL1        0.1761
     14 O          14.6504   85.1924   22.0195 O.3     1  UNL1       -0.3349
     15 C          15.3113   89.5072   21.8955 C.3     1  UNL1        0.2055
     16 O          14.8711   89.4750   20.5351 O.3     1  UNL1       -0.4755
     17 C          14.0399   88.5064   19.9484 C.ar    1  UNL1        0.1388
     18 C          12.6692   88.3892   20.2469 C.ar    1  UNL1        0.0369
     19 C          11.8977   87.4029   19.6290 C.ar    1  UNL1        0.0033
     20 C          12.4763   86.5320   18.7037 C.ar    1  UNL1        0.0066
     21 C          13.8384   86.6432   18.3803 C.ar    1  UNL1        0.0785
     22 C          14.6094   87.6394   19.0069 C.ar    1  UNL1        0.0433
     23 C          14.4491   85.7236   17.3950 C.2     1  UNL1        0.3381
     24 O          15.3634   84.9286   17.7440 O.2     1  UNL1       -0.2451
     25 O          14.0188   85.7276   16.0705 O.3     1  UNL1       -0.4771
     26 H          14.4300   85.1021   15.3879 H       1  UNL1        0.2954
     27 N          12.0583   81.5661   26.4667 N.am    1  UNL1       -0.2766
     28 C          10.7969   81.1300   25.9298 C.2     1  UNL1        0.2839
     29 O          10.3240   81.6669   24.8929 O.2     1  UNL1       -0.2665
     30 H          12.4281   81.0994   27.3233 H       1  UNL1        0.1553
     31 C          10.0383   80.0346   26.5584 C.ar    1  UNL1        0.1946
     32 O           9.9522   79.8976   27.8699 O.2     1  UNL1       -0.4492
     33 C           9.2127   78.8440   28.1171 C.ar    1  UNL1        0.1452
     34 C           8.8569   78.3331   29.3604 C.ar    1  UNL1        0.0375
     35 C           8.0516   77.1811   29.3946 C.ar    1  UNL1        0.0031
     36 C           7.6166   76.5599   28.1923 C.ar    1  UNL1        0.0002
     37 C           8.0026   77.1126   26.9474 C.ar    1  UNL1        0.0028
     38 C           8.8002   78.2570   26.9521 C.ar    1  UNL1        0.0337
     39 C           9.3387   79.0015   25.9222 C.ar    1  UNL1        0.0202
     40 C           9.2181   78.7180   24.4556 C.3     1  UNL1        0.0345
     41 C           6.7664   75.3435   28.2404 C.ar    1  UNL1        0.0000
     42 C           6.7225   74.4570   27.1475 C.ar    1  UNL1        0.0000
     43 C           5.9201   73.3128   27.1953 C.ar    1  UNL1        0.0000
     44 C           5.1548   73.0402   28.3313 C.ar    1  UNL1        0.0000
     45 C           5.1899   73.9115   29.4220 C.ar    1  UNL1        0.0000
     46 C           5.9897   75.0577   29.3795 C.ar    1  UNL1        0.0000
@<TRIPOS>BOND
     1    13    14    1
     2    14     7    1
     3     7     8    1
     4     8     9    1
     5     9    15    1
     6    15    16    1
     7    16    17    1
     8    17    18   ar
     9    18    19   ar
    10    19    20   ar
    11    20    21   ar
    12    21    23    1
    13    23    24    2
    14    23    25    1
    15    21    22   ar
    16     9    10    1
    17    10    11    1
    18    11    12    1
    19    12     1    1
    20     1     2   ar
    21     2     3   ar
    22     3     4   ar
    23     4    27    1
    24    27    28   am
    25    28    29    2
    26    28    31    1
    27    31    32   ar
    28    32    33   ar
    29    33    34   ar
    30    34    35   ar
    31    35    36   ar
    32    36    41    1
    33    41    42   ar
    34    42    43   ar
    35    43    44   ar
    36    44    45   ar
    37    45    46   ar
    38    36    37   ar
    39    37    38   ar
    40    38    39   ar
    41    39    40    1
    42     4     5   ar
    43     5     6   ar
    44    12     7    1
    45     6     1   ar
    46    22    17   ar
    47    39    31   ar
    48    38    33   ar
    49    46    41   ar
    50    25    26    1
    51    27    30    1
@<TRIPOS>MOLECULE
*****
 46 51 0 0 0
SMALL
GASTEIGER

@<TRIPOS>ATOM
      1 C           9.9862   78.8510   25.0426 C.ar    1  UNL1        0.1334
      2 C          11.3627   78.5792   24.9807 C.ar    1  UNL1        0.0357
      3 C          12.2596   79.6144   24.7123 C.ar    1  UNL1        0.0191
      4 C          11.7882   80.9214   24.5174 C.ar    1  UNL1        0.0702
      5 C          10.4069   81.1457   24.5537 C.ar    1  UNL1        0.1149
      6 N           9.5523   80.1228   24.8187 N.ar    1  UNL1       -0.2278
      7 C           8.4540   77.6628   26.6817 C.3     1  UNL1        0.1934
      8 C           7.2687   76.6723   26.6675 C.3     1  UNL1        0.0547
      9 C           6.3782   76.9306   25.4383 C.3     1  UNL1        0.0496
     10 C           7.1641   76.6793   24.1269 C.3     1  UNL1        0.0254
     11 C           8.6877   76.8340   24.2817 C.3     1  UNL1        0.0945
     12 N           9.0287   77.8093   25.3285 N.pl3   1  UNL1       -0.2716
     13 C           7.8866   78.9728   28.5263 C.3     1  UNL1        0.1761
     14 O           7.9902   78.9320   27.1190 O.3     1  UNL1       -0.3349
     15 C           5.0829   76.0982   25.5107 C.3     1  UNL1        0.2055
     16 O           5.2932   74.8963   26.2567 O.3     1  UNL1       -0.4755
     17 C           4.9164   74.6632   27.5897 C.ar    1  UNL1        0.1388
     18 C           4.9840   73.3943   28.1955 C.ar    1  UNL1        0.0369
     19 C           4.5930   73.2293   29.5258 C.ar    1  UNL1        0.0033
     20 C           4.1415   74.3219   30.2685 C.ar    1  UNL1        0.0066
     21 C           4.0820   75.5990   29.6872 C.ar    1  UNL1        0.0785
     22 C           4.4777   75.7575   28.3464 C.ar    1  UNL1        0.0433
     23 C           3.6092   76.7573   30.4772 C.2     1  UNL1        0.3381
     24 O           2.3899   76.8710   30.7776 O.2     1  UNL1       -0.2451
     25 O           4.5082   77.7345   30.8972 O.3     1  UNL1       -0.4771
     26 H           4.1950   78.5314   31.4385 H       1  UNL1        0.2954
     27 N          12.6751   82.0102   24.2117 N.am    1  UNL1       -0.2766
     28 C          12.9976   83.0694   25.1302 C.2     1  UNL1        0.2839
     29 O          12.5568   83.0481   26.3103 O.2     1  UNL1       -0.2665
     30 H          13.0588   82.0514   23.2426 H       1  UNL1        0.1553
     31 C          13.8661   84.1894   24.7282 C.ar    1  UNL1        0.1946
     32 O          13.8841   85.3382   25.3812 O.2     1  UNL1       -0.4492
     33 C          14.7529   86.1229   24.7918 C.ar    1  UNL1        0.1452
     34 C          15.0967   87.4224   25.1476 C.ar    1  UNL1        0.0375
     35 C          16.0591   88.0874   24.3677 C.ar    1  UNL1        0.0031
     36 C          16.6599   87.4477   23.2495 C.ar    1  UNL1        0.0002
     37 C          16.2802   86.1239   22.9216 C.ar    1  UNL1        0.0028
     38 C          15.3240   85.4947   23.7188 C.ar    1  UNL1        0.0337
     39 C          14.7511   84.2412   23.6440 C.ar    1  UNL1        0.0202
     40 C          15.0095   83.2009   22.5966 C.3     1  UNL1        0.0345
     41 C          17.6752   88.1598   22.4328 C.ar    1  UNL1        0.0000
     42 C          17.3553   88.6326   21.1458 C.ar    1  UNL1        0.0000
     43 C          18.3139   89.3019   20.3786 C.ar    1  UNL1        0.0000
     44 C          19.5989   89.5073   20.8855 C.ar    1  UNL1        0.0000
     45 C          19.9285   89.0434   22.1608 C.ar    1  UNL1        0.0000
     46 C          18.9744   88.3726   22.9321 C.ar    1  UNL1        0.0000
@<TRIPOS>BOND
     1    13    14    1
     2    14     7    1
     3     7     8    1
     4     8     9    1
     5     9    15    1
     6    15    16    1
     7    16    17    1
     8    17    18   ar
     9    18    19   ar
    10    19    20   ar
    11    20    21   ar
    12    21    23    1
    13    23    24    2
    14    23    25    1
    15    21    22   ar
    16     9    10    1
    17    10    11    1
    18    11    12    1
    19    12     1    1
    20     1     2   ar
    21     2     3   ar
    22     3     4   ar
    23     4    27    1
    24    27    28   am
    25    28    29    2
    26    28    31    1
    27    31    32   ar
    28    32    33   ar
    29    33    34   ar
    30    34    35   ar
    31    35    36   ar
    32    36    41    1
    33    41    42   ar
    34    42    43   ar
    35    43    44   ar
    36    44    45   ar
    37    45    46   ar
    38    36    37   ar
    39    37    38   ar
    40    38    39   ar
    41    39    40    1
    42     4     5   ar
    43     5     6   ar
    44    12     7    1
    45     6     1   ar
    46    22    17   ar
    47    39    31   ar
    48    38    33   ar
    49    46    41   ar
    50    25    26    1
    51    27    30    1
@<TRIPOS>MOLECULE
*****
 46 51 0 0 0
SMALL
GASTEIGER

@<TRIPOS>ATOM
      1 C           9.1160   78.5703   25.0855 C.ar    1  UNL1        0.1334
      2 C           9.4205   79.5110   26.0829 C.ar    1  UNL1        0.0357
      3 C          10.1578   80.6501   25.7556 C.ar    1  UNL1        0.0191
      4 C          10.5816   80.8590   24.4346 C.ar    1  UNL1        0.0702
      5 C          10.2871   79.8819   23.4762 C.ar    1  UNL1        0.1149
      6 N           9.5662   78.7815   23.8172 N.ar    1  UNL1       -0.2278
      7 C           8.9956   76.1873   25.9535 C.3     1  UNL1        0.1934
      8 C           7.9376   75.1694   26.4335 C.3     1  UNL1        0.0547
      9 C           6.7999   75.8976   27.1722 C.3     1  UNL1        0.0496
     10 C           6.0596   76.8702   26.2202 C.3     1  UNL1        0.0254
     11 C           6.9182   77.3453   25.0343 C.3     1  UNL1        0.0945
     12 N           8.3467   77.3856   25.3826 N.pl3   1  UNL1       -0.2716
     13 C          10.7444   75.5932   27.3780 C.3     1  UNL1        0.1761
     14 O           9.7907   76.5845   27.0613 O.3     1  UNL1       -0.3349
     15 C           5.8413   74.8908   27.8383 C.3     1  UNL1        0.2055
     16 O           6.0044   74.8988   29.2591 O.3     1  UNL1       -0.4755
     17 C           6.3279   76.0087   30.0570 C.ar    1  UNL1        0.1388
     18 C           5.4848   76.4941   31.0745 C.ar    1  UNL1        0.0369
     19 C           5.8651   77.6037   31.8321 C.ar    1  UNL1        0.0033
     20 C           7.0876   78.2345   31.5937 C.ar    1  UNL1        0.0066
     21 C           7.9499   77.7557   30.5940 C.ar    1  UNL1        0.0785
     22 C           7.5600   76.6372   29.8348 C.ar    1  UNL1        0.0433
     23 C           9.2480   78.4213   30.3464 C.2     1  UNL1        0.3381
     24 O           9.8056   79.0929   31.2563 O.2     1  UNL1       -0.2451
     25 O           9.8673   78.3119   29.1038 O.3     1  UNL1       -0.4771
     26 H          10.7560   78.7635   28.9238 H       1  UNL1        0.2954
     27 N          11.3657   82.0040   24.0612 N.am    1  UNL1       -0.2766
     28 C          12.6047   82.3732   24.6922 C.2     1  UNL1        0.2839
     29 O          13.1106   81.6407   25.5837 O.2     1  UNL1       -0.2665
     30 H          10.9731   82.6269   23.3222 H       1  UNL1        0.1553
     31 C          13.3251   83.5971   24.3005 C.ar    1  UNL1        0.1946
     32 O          12.8160   84.8035   24.4792 O.2     1  UNL1       -0.4492
     33 C          13.6883   85.6777   24.0403 C.ar    1  UNL1        0.1452
     34 C          13.5695   87.0632   24.0376 C.ar    1  UNL1        0.0375
     35 C          14.6341   87.8158   23.5115 C.ar    1  UNL1        0.0031
     36 C          15.7951   87.1762   22.9982 C.ar    1  UNL1        0.0002
     37 C          15.8748   85.7629   23.0193 C.ar    1  UNL1        0.0028
     38 C          14.8005   85.0492   23.5505 C.ar    1  UNL1        0.0337
     39 C          14.5824   83.6935   23.6911 C.ar    1  UNL1        0.0202
     40 C          15.4920   82.5901   23.2430 C.3     1  UNL1        0.0345
     41 C          16.9134   87.9813   22.4448 C.ar    1  UNL1        0.0000
     42 C          16.8519   88.4844   21.1312 C.ar    1  UNL1        0.0000
     43 C          17.9071   89.2413   20.6126 C.ar    1  UNL1        0.0000
     44 C          19.0325   89.5049   21.3964 C.ar    1  UNL1        0.0000
     45 C          19.1054   89.0117   22.7009 C.ar    1  UNL1        0.0000
     46 C          18.0538   88.2534   23.2246 C.ar    1  UNL1        0.0000
@<TRIPOS>BOND
     1    13    14    1
     2    14     7    1
     3     7     8    1
     4     8     9    1
     5     9    15    1
     6    15    16    1
     7    16    17    1
     8    17    18   ar
     9    18    19   ar
    10    19    20   ar
    11    20    21   ar
    12    21    23    1
    13    23    24    2
    14    23    25    1
    15    21    22   ar
    16     9    10    1
    17    10    11    1
    18    11    12    1
    19    12     1    1
    20     1     2   ar
    21     2     3   ar
    22     3     4   ar
    23     4    27    1
    24    27    28   am
    25    28    29    2
    26    28    31    1
    27    31    32   ar
    28    32    33   ar
    29    33    34   ar
    30    34    35   ar
    31    35    36   ar
    32    36    41    1
    33    41    42   ar
    34    42    43   ar
    35    43    44   ar
    36    44    45   ar
    37    45    46   ar
    38    36    37   ar
    39    37    38   ar
    40    38    39   ar
    41    39    40    1
    42     4     5   ar
    43     5     6   ar
    44    12     7    1
    45     6     1   ar
    46    22    17   ar
    47    39    31   ar
    48    38    33   ar
    49    46    41   ar
    50    25    26    1
    51    27    30    1
