@<TRIPOS>MOLECULE
*****
 36 40 0 0 0
SMALL
GASTEIGER

@<TRIPOS>ATOM
      1 C          50.5513   11.4945  -24.7687 C.2     1  UNL1        0.2520
      2 O          51.7086   11.8036  -25.1631 O.2     1  UNL1       -0.2698
      3 N          50.3412   11.1468  -23.3894 N.am    1  UNL1       -0.2759
      4 C          51.0663   11.8621  -22.3357 C.3     1  UNL1        0.0954
      5 C          50.1158   12.1404  -21.1689 C.3     1  UNL1        0.0399
      6 C          49.3976   10.8564  -20.6269 C.3     1  UNL1        0.0645
      7 C          49.6215    9.6298  -21.5588 C.3     1  UNL1        0.0399
      8 C          49.5079    9.9845  -23.0482 C.3     1  UNL1        0.0954
      9 C          49.9688   10.4927  -19.2109 C.3     1  UNL1        0.0477
     10 C          49.4364   11.4256  -18.1655 C.ar    1  UNL1        0.0220
     11 C          49.8832   11.7050  -16.8951 C.ar    1  UNL1        0.0923
     12 N          48.9477   12.4764  -16.2858 N.ar    1  UNL1       -0.2534
     13 N          47.9168   12.6605  -17.1065 N.ar    1  UNL1       -0.1651
     14 C          48.2159   12.0210  -18.2500 C.ar    1  UNL1        0.1515
     15 C          47.3870   11.8650  -19.4348 C.2     1  UNL1        0.2650
     16 O          46.2179   12.3302  -19.4845 O.2     1  UNL1       -0.2684
     17 N          47.9415   11.1357  -20.5409 N.am    1  UNL1       -0.3023
     18 H          47.3271   10.9575  -21.3669 H       1  UNL1        0.1497
     19 C          48.3651   12.4046  -25.6114 C.ar    1  UNL1        0.1430
     20 C          47.3047   12.3606  -26.5366 C.ar    1  UNL1        0.0372
     21 C          47.3155   11.4367  -27.5906 C.ar    1  UNL1        0.0091
     22 C          46.2613   11.3971  -28.5125 C.ar    1  UNL1        0.0210
     23 C          46.2975   10.4730  -29.5562 C.ar    1  UNL1        0.1021
     24 N          47.3473    9.6198  -29.6769 N.ar    1  UNL1       -0.2101
     25 C          48.3925    9.6260  -28.8020 C.ar    1  UNL1        0.2248
     26 C          48.3990   10.5416  -27.7319 C.ar    1  UNL1        0.0536
     27 C          49.4524   10.5805  -26.8051 C.ar    1  UNL1        0.0122
     28 C          49.4325   11.4911  -25.7371 C.ar    1  UNL1        0.0876
     29 C          47.3850   13.5125  -23.5865 C.3     1  UNL1        0.2525
     30 O          48.3984   13.3514  -24.5730 O.3     1  UNL1       -0.4713
     31 O          49.4530    8.7265  -28.9668 O.3     1  UNL1       -0.4561
     32 C          49.5282    7.8125  -30.0544 C.3     1  UNL1        0.2542
     33 C          49.0064   12.9736  -14.8966 C.3     1  UNL1        0.0867
     34 C          48.4032   11.9185  -13.9517 C.3     1  UNL1        0.0244
     35 C          50.4718   13.2462  -14.5049 C.3     1  UNL1        0.0244
     36 C          48.2065   14.2868  -14.7559 C.3     1  UNL1        0.0244
@<TRIPOS>BOND
     1    29    30    1
     2    30    19    1
     3    19    20   ar
     4    20    21   ar
     5    21    22   ar
     6    22    23   ar
     7    23    24   ar
     8    24    25   ar
     9    25    31    1
    10    31    32    1
    11    25    26   ar
    12    26    27   ar
    13    27    28   ar
    14    28     1    1
    15     1     2    2
    16     1     3   am
    17     3     4    1
    18     4     5    1
    19     5     6    1
    20     6     7    1
    21     7     8    1
    22     6     9    1
    23     9    10    1
    24    10    11   ar
    25    11    12   ar
    26    12    33    1
    27    33    34    1
    28    33    35    1
    29    33    36    1
    30    12    13   ar
    31    13    14   ar
    32    14    15    1
    33    15    16    2
    34    15    17   am
    35    28    19   ar
    36     8     3    1
    37    14    10   ar
    38    26    21   ar
    39    17     6    1
    40    17    18    1
@<TRIPOS>MOLECULE
*****
 36 40 0 0 0
SMALL
GASTEIGER

@<TRIPOS>ATOM
      1 C          50.0558    8.7661  -24.0051 C.2     1  UNL1        0.2520
      2 O          49.9057    7.5142  -24.0289 O.2     1  UNL1       -0.2698
      3 N          49.4668    9.5310  -22.9394 N.am    1  UNL1       -0.2759
      4 C          49.4465    8.9926  -21.5766 C.3     1  UNL1        0.0954
      5 C          49.7819   10.1111  -20.5873 C.3     1  UNL1        0.0399
      6 C          48.8670   11.3753  -20.7384 C.3     1  UNL1        0.0645
      7 C          47.9913   11.3071  -22.0235 C.3     1  UNL1        0.0399
      8 C          48.7636   10.7859  -23.2437 C.3     1  UNL1        0.0954
      9 C          47.9011   11.4756  -19.5054 C.3     1  UNL1        0.0477
     10 C          48.6356   11.9556  -18.2901 C.ar    1  UNL1        0.0220
     11 C          48.3111   11.8873  -16.9554 C.ar    1  UNL1        0.0923
     12 N          49.2144   12.6323  -16.2694 N.ar    1  UNL1       -0.2534
     13 N          50.0680   13.1950  -17.1208 N.ar    1  UNL1       -0.1651
     14 C          49.7149   12.7819  -18.3499 C.ar    1  UNL1        0.1515
     15 C          50.2923   13.1685  -19.6275 C.2     1  UNL1        0.2650
     16 O          51.2283   14.0078  -19.6982 O.2     1  UNL1       -0.2684
     17 N          49.7371   12.5766  -20.8125 N.am    1  UNL1       -0.3023
     18 H          50.0975   12.9027  -21.7373 H       1  UNL1        0.1497
     19 C          51.5986   10.5776  -24.8149 C.ar    1  UNL1        0.1430
     20 C          52.3082   11.1920  -25.8643 C.ar    1  UNL1        0.0372
     21 C          52.2784   10.6525  -27.1576 C.ar    1  UNL1        0.0091
     22 C          52.9883   11.2631  -28.1996 C.ar    1  UNL1        0.0210
     23 C          52.9480   10.7042  -29.4765 C.ar    1  UNL1        0.1021
     24 N          52.2265    9.5765  -29.7060 N.ar    1  UNL1       -0.2101
     25 C          51.5225    8.9517  -28.7203 C.ar    1  UNL1        0.2248
     26 C          51.5334    9.4803  -27.4150 C.ar    1  UNL1        0.0536
     27 C          50.8199    8.8721  -26.3704 C.ar    1  UNL1        0.0122
     28 C          50.8321    9.4234  -25.0796 C.ar    1  UNL1        0.0876
     29 C          52.0663   12.3873  -23.1433 C.3     1  UNL1        0.2525
     30 O          51.6494   11.0742  -23.5009 O.3     1  UNL1       -0.4713
     31 O          50.7927    7.7910  -29.0049 O.3     1  UNL1       -0.4561
     32 C          49.6466    7.7869  -29.8478 C.3     1  UNL1        0.2542
     33 C          49.2161   12.8649  -14.8112 C.3     1  UNL1        0.0867
     34 C          48.3746   14.1144  -14.4935 C.3     1  UNL1        0.0244
     35 C          48.6214   11.6397  -14.0899 C.3     1  UNL1        0.0244
     36 C          50.6555   13.0876  -14.2987 C.3     1  UNL1        0.0244
@<TRIPOS>BOND
     1    29    30    1
     2    30    19    1
     3    19    20   ar
     4    20    21   ar
     5    21    22   ar
     6    22    23   ar
     7    23    24   ar
     8    24    25   ar
     9    25    31    1
    10    31    32    1
    11    25    26   ar
    12    26    27   ar
    13    27    28   ar
    14    28     1    1
    15     1     2    2
    16     1     3   am
    17     3     4    1
    18     4     5    1
    19     5     6    1
    20     6     7    1
    21     7     8    1
    22     6     9    1
    23     9    10    1
    24    10    11   ar
    25    11    12   ar
    26    12    33    1
    27    33    34    1
    28    33    35    1
    29    33    36    1
    30    12    13   ar
    31    13    14   ar
    32    14    15    1
    33    15    16    2
    34    15    17   am
    35    28    19   ar
    36     8     3    1
    37    14    10   ar
    38    26    21   ar
    39    17     6    1
    40    17    18    1
@<TRIPOS>MOLECULE
*****
 36 40 0 0 0
SMALL
GASTEIGER

@<TRIPOS>ATOM
      1 C          50.4346   13.1333  -24.1509 C.2     1  UNL1        0.2520
      2 O          51.5828   13.4983  -24.5234 O.2     1  UNL1       -0.2698
      3 N          50.2701   12.5123  -22.8645 N.am    1  UNL1       -0.2759
      4 C          51.0533   12.9833  -21.7190 C.3     1  UNL1        0.0954
      5 C          50.1564   13.0305  -20.4798 C.3     1  UNL1        0.0399
      6 C          49.4285   11.6742  -20.1822 C.3     1  UNL1        0.0645
      7 C          49.5853   10.6625  -21.3547 C.3     1  UNL1        0.0399
      8 C          49.4223   11.3183  -22.7333 C.3     1  UNL1        0.0954
      9 C          50.0454   11.0174  -18.8971 C.3     1  UNL1        0.0477
     10 C          49.5776   11.7233  -17.6604 C.ar    1  UNL1        0.0220
     11 C          50.0806   11.7278  -16.3803 C.ar    1  UNL1        0.0923
     12 N          49.1889   12.3721  -15.5857 N.ar    1  UNL1       -0.2534
     13 N          48.1316   12.7380  -16.3056 N.ar    1  UNL1       -0.1651
     14 C          48.3698   12.3430  -17.5679 C.ar    1  UNL1        0.1515
     15 C          47.4916   12.4479  -18.7224 C.2     1  UNL1        0.2650
     16 O          46.3333   12.9321  -18.6248 O.2     1  UNL1       -0.2684
     17 N          47.9842   11.9532  -19.9775 N.am    1  UNL1       -0.3023
     18 H          47.3337   11.9590  -20.7951 H       1  UNL1        0.1497
     19 C          48.7479   12.2845  -25.8100 C.ar    1  UNL1        0.1430
     20 C          47.6620   12.5265  -26.6728 C.ar    1  UNL1        0.0372
     21 C          47.0924   13.8041  -26.7619 C.ar    1  UNL1        0.0091
     22 C          46.0094   14.0419  -27.6181 C.ar    1  UNL1        0.0210
     23 C          45.4560   15.3201  -27.6850 C.ar    1  UNL1        0.1021
     24 N          45.9635   16.3247  -26.9248 N.ar    1  UNL1       -0.2101
     25 C          47.0155   16.1352  -26.0792 C.ar    1  UNL1        0.2248
     26 C          47.6071   14.8611  -25.9789 C.ar    1  UNL1        0.0536
     27 C          48.6946   14.6215  -25.1243 C.ar    1  UNL1        0.0122
     28 C          49.2791   13.3475  -25.0500 C.ar    1  UNL1        0.0876
     29 C          50.2089   10.4032  -26.5940 C.3     1  UNL1        0.2525
     30 O          49.3068   11.0024  -25.6702 O.3     1  UNL1       -0.4713
     31 O          47.5049   17.2019  -25.3152 O.3     1  UNL1       -0.4561
     32 C          46.7438   18.3741  -25.0493 C.3     1  UNL1        0.2542
     33 C          49.3142   12.5714  -14.1279 C.3     1  UNL1        0.0867
     34 C          48.5703   11.4414  -13.3932 C.3     1  UNL1        0.0244
     35 C          50.8028   12.5600  -13.7290 C.3     1  UNL1        0.0244
     36 C          48.7028   13.9266  -13.7108 C.3     1  UNL1        0.0244
@<TRIPOS>BOND
     1    29    30    1
     2    30    19    1
     3    19    20   ar
     4    20    21   ar
     5    21    22   ar
     6    22    23   ar
     7    23    24   ar
     8    24    25   ar
     9    25    31    1
    10    31    32    1
    11    25    26   ar
    12    26    27   ar
    13    27    28   ar
    14    28     1    1
    15     1     2    2
    16     1     3   am
    17     3     4    1
    18     4     5    1
    19     5     6    1
    20     6     7    1
    21     7     8    1
    22     6     9    1
    23     9    10    1
    24    10    11   ar
    25    11    12   ar
    26    12    33    1
    27    33    34    1
    28    33    35    1
    29    33    36    1
    30    12    13   ar
    31    13    14   ar
    32    14    15    1
    33    15    16    2
    34    15    17   am
    35    28    19   ar
    36     8     3    1
    37    14    10   ar
    38    26    21   ar
    39    17     6    1
    40    17    18    1
@<TRIPOS>MOLECULE
*****
 36 40 0 0 0
SMALL
GASTEIGER

@<TRIPOS>ATOM
      1 C          53.0630    9.2732  -28.9845 C.2     1  UNL1        0.2520
      2 O          54.2860    9.5292  -29.1551 O.2     1  UNL1       -0.2698
      3 N          52.3790    9.8098  -27.8391 N.am    1  UNL1       -0.2759
      4 C          52.6883   11.1631  -27.3698 C.3     1  UNL1        0.0954
      5 C          51.3883   11.8724  -26.9834 C.3     1  UNL1        0.0399
      6 C          50.5211   11.0714  -25.9517 C.3     1  UNL1        0.0645
      7 C          51.0554    9.6239  -25.7455 C.3     1  UNL1        0.0399
      8 C          51.4753    8.9509  -27.0599 C.3     1  UNL1        0.0954
      9 C          50.5552   11.7972  -24.5605 C.3     1  UNL1        0.0477
     10 C          49.6913   13.0221  -24.5768 C.ar    1  UNL1        0.0220
     11 C          49.6624   14.1157  -23.7433 C.ar    1  UNL1        0.0923
     12 N          48.5745   14.8583  -24.0698 N.ar    1  UNL1       -0.2534
     13 N          47.8998   14.2573  -25.0463 N.ar    1  UNL1       -0.1651
     14 C          48.5809   13.1404  -25.3541 C.ar    1  UNL1        0.1515
     15 C          48.2225   12.1050  -26.3106 C.2     1  UNL1        0.2650
     16 O          47.1474   12.1582  -26.9641 O.2     1  UNL1       -0.2684
     17 N          49.1291   11.0018  -26.4646 N.am    1  UNL1       -0.3023
     18 H          48.8448   10.2192  -27.0957 H       1  UNL1        0.1497
     19 C          53.0778    7.6107  -30.8696 C.ar    1  UNL1        0.1430
     20 C          52.3768    6.8269  -31.8059 C.ar    1  UNL1        0.0372
     21 C          50.9754    6.8260  -31.8288 C.ar    1  UNL1        0.0091
     22 C          50.2797    6.0424  -32.7587 C.ar    1  UNL1        0.0210
     23 C          48.8853    6.0537  -32.7579 C.ar    1  UNL1        0.1021
     24 N          48.2089    6.8180  -31.8618 N.ar    1  UNL1       -0.2101
     25 C          48.8474    7.5938  -30.9409 C.ar    1  UNL1        0.2248
     26 C          50.2551    7.6147  -30.9044 C.ar    1  UNL1        0.0536
     27 C          50.9541    8.4019  -29.9760 C.ar    1  UNL1        0.0122
     28 C          52.3576    8.4197  -29.9659 C.ar    1  UNL1        0.0876
     29 C          55.2554    6.5274  -30.2592 C.3     1  UNL1        0.2525
     30 O          54.4815    7.5937  -30.7978 O.3     1  UNL1       -0.4713
     31 O          48.1071    8.3657  -30.0370 O.3     1  UNL1       -0.4561
     32 C          47.3076    9.4713  -30.4398 C.3     1  UNL1        0.2542
     33 C          48.1412   16.1006  -23.3993 C.3     1  UNL1        0.0867
     34 C          48.5514   16.0491  -21.9163 C.3     1  UNL1        0.0244
     35 C          48.8020   17.3150  -24.0802 C.3     1  UNL1        0.0244
     36 C          46.6079   16.2594  -23.4890 C.3     1  UNL1        0.0244
@<TRIPOS>BOND
     1    29    30    1
     2    30    19    1
     3    19    20   ar
     4    20    21   ar
     5    21    22   ar
     6    22    23   ar
     7    23    24   ar
     8    24    25   ar
     9    25    31    1
    10    31    32    1
    11    25    26   ar
    12    26    27   ar
    13    27    28   ar
    14    28     1    1
    15     1     2    2
    16     1     3   am
    17     3     4    1
    18     4     5    1
    19     5     6    1
    20     6     7    1
    21     7     8    1
    22     6     9    1
    23     9    10    1
    24    10    11   ar
    25    11    12   ar
    26    12    33    1
    27    33    34    1
    28    33    35    1
    29    33    36    1
    30    12    13   ar
    31    13    14   ar
    32    14    15    1
    33    15    16    2
    34    15    17   am
    35    28    19   ar
    36     8     3    1
    37    14    10   ar
    38    26    21   ar
    39    17     6    1
    40    17    18    1
@<TRIPOS>MOLECULE
*****
 36 40 0 0 0
SMALL
GASTEIGER

@<TRIPOS>ATOM
      1 C          49.5434   14.0451  -21.2718 C.2     1  UNL1        0.2520
      2 O          49.3963   15.2827  -21.4643 O.2     1  UNL1       -0.2698
      3 N          49.4573   13.1389  -22.3849 N.am    1  UNL1       -0.2759
      4 C          50.0115   13.5232  -23.6859 C.3     1  UNL1        0.0954
      5 C          50.7324   12.3219  -24.3019 C.3     1  UNL1        0.0399
      6 C          49.8396   11.0364  -24.3947 C.3     1  UNL1        0.0645
      7 C          48.5048   11.1998  -23.6107 C.3     1  UNL1        0.0399
      8 C          48.6923   11.8904  -22.2524 C.3     1  UNL1        0.0954
      9 C          49.4815   10.7523  -25.8962 C.3     1  UNL1        0.0477
     10 C          50.6591   10.1806  -26.6263 C.ar    1  UNL1        0.0220
     11 C          50.9257   10.0857  -27.9722 C.ar    1  UNL1        0.0923
     12 N          52.0342    9.3175  -28.1231 N.ar    1  UNL1       -0.2534
     13 N          52.4513    8.8960  -26.9321 N.ar    1  UNL1       -0.1651
     14 C          51.6139    9.4224  -26.0223 C.ar    1  UNL1        0.1515
     15 C          51.6010    9.2081  -24.5839 C.2     1  UNL1        0.2650
     16 O          52.4211    8.4308  -24.0282 O.2     1  UNL1       -0.2684
     17 N          50.5988    9.8968  -23.8197 N.am    1  UNL1       -0.3023
     18 H          50.5372    9.6928  -22.7969 H       1  UNL1        0.1497
     19 C          50.9849   12.8562  -19.5906 C.ar    1  UNL1        0.1430
     20 C          51.1854   12.3788  -18.2814 C.ar    1  UNL1        0.0372
     21 C          50.2285   12.6095  -17.2835 C.ar    1  UNL1        0.0091
     22 C          50.4317   12.1370  -15.9804 C.ar    1  UNL1        0.0210
     23 C          49.4680   12.3843  -15.0033 C.ar    1  UNL1        0.1021
     24 N          48.3427   13.0784  -15.3141 N.ar    1  UNL1       -0.2101
     25 C          48.1070   13.5554  -16.5690 C.ar    1  UNL1        0.2248
     26 C          49.0521   13.3294  -17.5884 C.ar    1  UNL1        0.0536
     27 C          48.8488   13.7987  -18.8955 C.ar    1  UNL1        0.0122
     28 C          49.7966   13.5502  -19.9006 C.ar    1  UNL1        0.0876
     29 C          53.1252   13.4651  -20.7467 C.3     1  UNL1        0.2525
     30 O          51.9499   12.6763  -20.5967 O.3     1  UNL1       -0.4713
     31 O          46.9315   14.2656  -16.8422 O.3     1  UNL1       -0.4561
     32 C          46.5974   15.4854  -16.1908 C.3     1  UNL1        0.2542
     33 C          52.6488    8.9271  -29.4078 C.3     1  UNL1        0.0867
     34 C          51.6275    8.1308  -30.2402 C.3     1  UNL1        0.0244
     35 C          53.0800   10.1886  -30.1810 C.3     1  UNL1        0.0244
     36 C          53.8943    8.0464  -29.1682 C.3     1  UNL1        0.0244
@<TRIPOS>BOND
     1    29    30    1
     2    30    19    1
     3    19    20   ar
     4    20    21   ar
     5    21    22   ar
     6    22    23   ar
     7    23    24   ar
     8    24    25   ar
     9    25    31    1
    10    31    32    1
    11    25    26   ar
    12    26    27   ar
    13    27    28   ar
    14    28     1    1
    15     1     2    2
    16     1     3   am
    17     3     4    1
    18     4     5    1
    19     5     6    1
    20     6     7    1
    21     7     8    1
    22     6     9    1
    23     9    10    1
    24    10    11   ar
    25    11    12   ar
    26    12    33    1
    27    33    34    1
    28    33    35    1
    29    33    36    1
    30    12    13   ar
    31    13    14   ar
    32    14    15    1
    33    15    16    2
    34    15    17   am
    35    28    19   ar
    36     8     3    1
    37    14    10   ar
    38    26    21   ar
    39    17     6    1
    40    17    18    1
@<TRIPOS>MOLECULE
*****
 36 40 0 0 0
SMALL
GASTEIGER

@<TRIPOS>ATOM
      1 C          50.2832   13.1472  -24.1363 C.2     1  UNL1        0.2520
      2 O          51.4606   13.3541  -24.5381 O.2     1  UNL1       -0.2698
      3 N          50.0693   12.4890  -22.8758 N.am    1  UNL1       -0.2759
      4 C          50.9536   12.7733  -21.7424 C.3     1  UNL1        0.0954
      5 C          50.1169   12.8880  -20.4661 C.3     1  UNL1        0.0399
      6 C          49.2004   11.6431  -20.2046 C.3     1  UNL1        0.0645
      7 C          49.1608   10.6846  -21.4305 C.3     1  UNL1        0.0399
      8 C          49.0536   11.4315  -22.7676 C.3     1  UNL1        0.0954
      9 C          49.7526   10.8316  -18.9799 C.3     1  UNL1        0.0477
     10 C          49.4404   11.5318  -17.6918 C.ar    1  UNL1        0.0220
     11 C          49.9811   11.3905  -16.4351 C.ar    1  UNL1        0.0923
     12 N          49.2259   12.1179  -15.5737 N.ar    1  UNL1       -0.2534
     13 N          48.2134   12.6780  -16.2303 N.ar    1  UNL1       -0.1651
     14 C          48.3456   12.3209  -17.5191 C.ar    1  UNL1        0.1515
     15 C          47.4552   12.6199  -18.6295 C.2     1  UNL1        0.2650
     16 O          46.3886   13.2675  -18.4602 O.2     1  UNL1       -0.2684
     17 N          47.8236   12.1255  -19.9267 N.am    1  UNL1       -0.3023
     18 H          47.1544   12.2740  -20.7152 H       1  UNL1        0.1497
     19 C          48.5487   14.8466  -24.7852 C.ar    1  UNL1        0.1430
     20 C          47.4523   15.2214  -25.5850 C.ar    1  UNL1        0.0372
     21 C          46.9678   14.3611  -26.5799 C.ar    1  UNL1        0.0091
     22 C          45.8792   14.7375  -27.3773 C.ar    1  UNL1        0.0210
     23 C          45.4190   13.8669  -28.3646 C.ar    1  UNL1        0.1021
     24 N          46.0231   12.6647  -28.5508 N.ar    1  UNL1       -0.2101
     25 C          47.0845   12.2609  -27.7971 C.ar    1  UNL1        0.2248
     26 C          47.5834   13.1069  -26.7878 C.ar    1  UNL1        0.0536
     27 C          48.6717   12.7302  -25.9853 C.ar    1  UNL1        0.0122
     28 C          49.1444   13.5821  -24.9748 C.ar    1  UNL1        0.0876
     29 C          48.5128   15.9343  -22.5260 C.3     1  UNL1        0.2525
     30 O          49.0805   15.7102  -23.8120 O.3     1  UNL1       -0.4713
     31 O          47.6746   11.0117  -28.0257 O.3     1  UNL1       -0.4561
     32 C          47.1007   10.0318  -28.8826 C.3     1  UNL1        0.2542
     33 C          49.4295   12.2164  -14.1144 C.3     1  UNL1        0.0867
     34 C          48.3617   11.3742  -13.3929 C.3     1  UNL1        0.0244
     35 C          50.8346   11.6981  -13.7507 C.3     1  UNL1        0.0244
     36 C          49.3093   13.6833  -13.6474 C.3     1  UNL1        0.0244
@<TRIPOS>BOND
     1    29    30    1
     2    30    19    1
     3    19    20   ar
     4    20    21   ar
     5    21    22   ar
     6    22    23   ar
     7    23    24   ar
     8    24    25   ar
     9    25    31    1
    10    31    32    1
    11    25    26   ar
    12    26    27   ar
    13    27    28   ar
    14    28     1    1
    15     1     2    2
    16     1     3   am
    17     3     4    1
    18     4     5    1
    19     5     6    1
    20     6     7    1
    21     7     8    1
    22     6     9    1
    23     9    10    1
    24    10    11   ar
    25    11    12   ar
    26    12    33    1
    27    33    34    1
    28    33    35    1
    29    33    36    1
    30    12    13   ar
    31    13    14   ar
    32    14    15    1
    33    15    16    2
    34    15    17   am
    35    28    19   ar
    36     8     3    1
    37    14    10   ar
    38    26    21   ar
    39    17     6    1
    40    17    18    1
@<TRIPOS>MOLECULE
*****
 36 40 0 0 0
SMALL
GASTEIGER

@<TRIPOS>ATOM
      1 C          49.8599    8.8761  -23.5606 C.2     1  UNL1        0.2520
      2 O          49.4762    7.6863  -23.7265 O.2     1  UNL1       -0.2698
      3 N          49.3977    9.6179  -22.4188 N.am    1  UNL1       -0.2759
      4 C          49.2389    8.9471  -21.1257 C.3     1  UNL1        0.0954
      5 C          49.7530    9.8653  -20.0145 C.3     1  UNL1        0.0399
      6 C          49.0985   11.2899  -20.0271 C.3     1  UNL1        0.0645
      7 C          48.2609   11.5318  -21.3167 C.3     1  UNL1        0.0399
      8 C          48.9533   11.0097  -22.5835 C.3     1  UNL1        0.0954
      9 C          48.1359   11.4371  -18.7961 C.3     1  UNL1        0.0477
     10 C          48.9147   11.6315  -17.5303 C.ar    1  UNL1        0.0220
     11 C          48.5471   11.4805  -16.2137 C.ar    1  UNL1        0.0923
     12 N          49.5562   11.9592  -15.4429 N.ar    1  UNL1       -0.2534
     13 N          50.5237   12.4383  -16.2204 N.ar    1  UNL1       -0.1651
     14 C          50.1321   12.2377  -17.4903 C.ar    1  UNL1        0.1515
     15 C          50.8068   12.6446  -18.7127 C.2     1  UNL1        0.2650
     16 O          51.8863   13.2921  -18.6829 O.2     1  UNL1       -0.2684
     17 N          50.1819   12.3034  -19.9601 N.am    1  UNL1       -0.3023
     18 H          50.6225   12.6541  -20.8402 H       1  UNL1        0.1497
     19 C          50.6846    9.1575  -25.9182 C.ar    1  UNL1        0.1430
     20 C          51.5854    9.7392  -26.8307 C.ar    1  UNL1        0.0372
     21 C          52.5500   10.6575  -26.3938 C.ar    1  UNL1        0.0091
     22 C          53.4429   11.2382  -27.3039 C.ar    1  UNL1        0.0210
     23 C          54.3899   12.1536  -26.8461 C.ar    1  UNL1        0.1021
     24 N          54.4442   12.4790  -25.5286 N.ar    1  UNL1       -0.2101
     25 C          53.5941   11.9374  -24.6112 C.ar    1  UNL1        0.2248
     26 C          52.6214   11.0078  -25.0273 C.ar    1  UNL1        0.0536
     27 C          51.7282   10.4221  -24.1165 C.ar    1  UNL1        0.0122
     28 C          50.7755    9.4867  -24.5496 C.ar    1  UNL1        0.0876
     29 C          49.5167    7.7987  -27.6726 C.3     1  UNL1        0.2525
     30 O          49.6802    8.2688  -26.3390 O.3     1  UNL1       -0.4713
     31 O          53.6884   12.3034  -23.2628 O.3     1  UNL1       -0.4561
     32 C          52.9677   13.3971  -22.7074 C.3     1  UNL1        0.2542
     33 C          49.5623   12.0258  -13.9678 C.3     1  UNL1        0.0867
     34 C          49.6806   13.4953  -13.5244 C.3     1  UNL1        0.0244
     35 C          48.2575   11.4190  -13.4159 C.3     1  UNL1        0.0244
     36 C          50.7560   11.2323  -13.3935 C.3     1  UNL1        0.0244
@<TRIPOS>BOND
     1    29    30    1
     2    30    19    1
     3    19    20   ar
     4    20    21   ar
     5    21    22   ar
     6    22    23   ar
     7    23    24   ar
     8    24    25   ar
     9    25    31    1
    10    31    32    1
    11    25    26   ar
    12    26    27   ar
    13    27    28   ar
    14    28     1    1
    15     1     2    2
    16     1     3   am
    17     3     4    1
    18     4     5    1
    19     5     6    1
    20     6     7    1
    21     7     8    1
    22     6     9    1
    23     9    10    1
    24    10    11   ar
    25    11    12   ar
    26    12    33    1
    27    33    34    1
    28    33    35    1
    29    33    36    1
    30    12    13   ar
    31    13    14   ar
    32    14    15    1
    33    15    16    2
    34    15    17   am
    35    28    19   ar
    36     8     3    1
    37    14    10   ar
    38    26    21   ar
    39    17     6    1
    40    17    18    1
@<TRIPOS>MOLECULE
*****
 36 40 0 0 0
SMALL
GASTEIGER

@<TRIPOS>ATOM
      1 C          46.5130   12.0078  -27.4678 C.2     1  UNL1        0.2520
      2 O          45.3853   12.5048  -27.7356 O.2     1  UNL1       -0.2698
      3 N          47.2186   12.4421  -26.2926 N.am    1  UNL1       -0.2759
      4 C          46.4802   12.7278  -25.0595 C.3     1  UNL1        0.0954
      5 C          47.2590   12.1723  -23.8649 C.3     1  UNL1        0.0399
      6 C          48.7426   12.6746  -23.7968 C.3     1  UNL1        0.0645
      7 C          49.1614   13.4234  -25.0956 C.3     1  UNL1        0.0399
      8 C          48.6579   12.7320  -26.3706 C.3     1  UNL1        0.0954
      9 C          48.9055   13.6716  -22.5955 C.3     1  UNL1        0.0477
     10 C          48.9273   12.9349  -21.2903 C.ar    1  UNL1        0.0220
     11 C          48.7251   13.3755  -20.0032 C.ar    1  UNL1        0.0923
     12 N          49.0389   12.3582  -19.1617 N.ar    1  UNL1       -0.2534
     13 N          49.4651   11.3121  -19.8646 N.ar    1  UNL1       -0.1651
     14 C          49.3962   11.6643  -21.1597 C.ar    1  UNL1        0.1515
     15 C          49.8129   10.8965  -22.3224 C.2     1  UNL1        0.2650
     16 O          50.3382    9.7583  -22.2041 O.2     1  UNL1       -0.2684
     17 N          49.6278   11.4962  -23.6142 N.am    1  UNL1       -0.3023
     18 H          49.9900   10.9823  -24.4487 H       1  UNL1        0.1497
     19 C          46.6113   10.8418  -29.6923 C.ar    1  UNL1        0.1430
     20 C          47.1665    9.8489  -30.5219 C.ar    1  UNL1        0.0372
     21 C          48.2032    9.0283  -30.0567 C.ar    1  UNL1        0.0091
     22 C          48.7570    8.0435  -30.8851 C.ar    1  UNL1        0.0210
     23 C          49.7917    7.2433  -30.4017 C.ar    1  UNL1        0.1021
     24 N          50.2581    7.4194  -29.1383 N.ar    1  UNL1       -0.2101
     25 C          49.7474    8.3659  -28.3010 C.ar    1  UNL1        0.2248
     26 C          48.7010    9.1969  -28.7456 C.ar    1  UNL1        0.0536
     27 C          48.1423   10.1818  -27.9161 C.ar    1  UNL1        0.0122
     28 C          47.0899   10.9901  -28.3738 C.ar    1  UNL1        0.0876
     29 C          45.6912   12.5113  -31.3216 C.3     1  UNL1        0.2525
     30 O          45.6022   11.7061  -30.1511 O.3     1  UNL1       -0.4713
     31 O          50.2606    8.5101  -27.0061 O.3     1  UNL1       -0.4561
     32 C          51.1908    9.5270  -26.6531 C.3     1  UNL1        0.2542
     33 C          49.0017   12.4120  -17.6865 C.3     1  UNL1        0.0867
     34 C          48.2386   11.1869  -17.1508 C.3     1  UNL1        0.0244
     35 C          50.4393   12.4135  -17.1312 C.3     1  UNL1        0.0244
     36 C          48.2874   13.6947  -17.2080 C.3     1  UNL1        0.0244
@<TRIPOS>BOND
     1    29    30    1
     2    30    19    1
     3    19    20   ar
     4    20    21   ar
     5    21    22   ar
     6    22    23   ar
     7    23    24   ar
     8    24    25   ar
     9    25    31    1
    10    31    32    1
    11    25    26   ar
    12    26    27   ar
    13    27    28   ar
    14    28     1    1
    15     1     2    2
    16     1     3   am
    17     3     4    1
    18     4     5    1
    19     5     6    1
    20     6     7    1
    21     7     8    1
    22     6     9    1
    23     9    10    1
    24    10    11   ar
    25    11    12   ar
    26    12    33    1
    27    33    34    1
    28    33    35    1
    29    33    36    1
    30    12    13   ar
    31    13    14   ar
    32    14    15    1
    33    15    16    2
    34    15    17   am
    35    28    19   ar
    36     8     3    1
    37    14    10   ar
    38    26    21   ar
    39    17     6    1
    40    17    18    1
@<TRIPOS>MOLECULE
*****
 36 40 0 0 0
SMALL
GASTEIGER

@<TRIPOS>ATOM
      1 C          50.5197   11.9662  -24.6224 C.2     1  UNL1        0.2520
      2 O          51.6946   12.2221  -25.0025 O.2     1  UNL1       -0.2698
      3 N          50.2875   11.5529  -23.2648 N.am    1  UNL1       -0.2759
      4 C          51.0574   12.1571  -22.1741 C.3     1  UNL1        0.0954
      5 C          50.1270   12.4278  -20.9895 C.3     1  UNL1        0.0399
      6 C          49.3269   11.1637  -20.5205 C.3     1  UNL1        0.0645
      7 C          49.4708    9.9816  -21.5230 C.3     1  UNL1        0.0399
      8 C          49.3805   10.4292  -22.9888 C.3     1  UNL1        0.0954
      9 C          49.8732   10.6818  -19.1302 C.3     1  UNL1        0.0477
     10 C          49.4025   11.5846  -18.0302 C.ar    1  UNL1        0.0220
     11 C          49.8664   11.7600  -16.7474 C.ar    1  UNL1        0.0923
     12 N          48.9828   12.5535  -16.0908 N.ar    1  UNL1       -0.2534
     13 N          47.9662   12.8515  -16.8955 N.ar    1  UNL1       -0.1651
     14 C          48.2232   12.2618  -18.0754 C.ar    1  UNL1        0.1515
     15 C          47.3859   12.2291  -19.2641 C.2     1  UNL1        0.2650
     16 O          46.2495   12.7711  -19.2823 O.2     1  UNL1       -0.2684
     17 N          47.8920   11.5312  -20.4128 N.am    1  UNL1       -0.3023
     18 H          47.2674   11.4417  -21.2455 H       1  UNL1        0.1497
     19 C          49.0690   11.0264  -26.4472 C.ar    1  UNL1        0.1430
     20 C          48.0153   11.1858  -27.3672 C.ar    1  UNL1        0.0372
     21 C          47.2839   12.3806  -27.4143 C.ar    1  UNL1        0.0091
     22 C          46.2332   12.5359  -28.3278 C.ar    1  UNL1        0.0210
     23 C          45.5163   13.7317  -28.3516 C.ar    1  UNL1        0.1021
     24 N          45.8350   14.7362  -27.4948 N.ar    1  UNL1       -0.2101
     25 C          46.8492   14.6254  -26.5909 C.ar    1  UNL1        0.2248
     26 C          47.6012   13.4361  -26.5309 C.ar    1  UNL1        0.0536
     27 C          48.6566   13.2799  -25.6188 C.ar    1  UNL1        0.0122
     28 C          49.4032   12.0917  -25.5851 C.ar    1  UNL1        0.0876
     29 C          50.7198    9.3514  -27.3176 C.3     1  UNL1        0.2525
     30 O          49.7873    9.8220  -26.3506 O.3     1  UNL1       -0.4713
     31 O          47.1412   15.6886  -25.7277 O.3     1  UNL1       -0.4561
     32 C          46.5173   15.8468  -24.4590 C.3     1  UNL1        0.2542
     33 C          49.0737   12.9640  -14.6753 C.3     1  UNL1        0.0867
     34 C          48.2602   14.2541  -14.4655 C.3     1  UNL1        0.0244
     35 C          48.5164   11.8450  -13.7740 C.3     1  UNL1        0.0244
     36 C          50.5427   13.2291  -14.2801 C.3     1  UNL1        0.0244
@<TRIPOS>BOND
     1    29    30    1
     2    30    19    1
     3    19    20   ar
     4    20    21   ar
     5    21    22   ar
     6    22    23   ar
     7    23    24   ar
     8    24    25   ar
     9    25    31    1
    10    31    32    1
    11    25    26   ar
    12    26    27   ar
    13    27    28   ar
    14    28     1    1
    15     1     2    2
    16     1     3   am
    17     3     4    1
    18     4     5    1
    19     5     6    1
    20     6     7    1
    21     7     8    1
    22     6     9    1
    23     9    10    1
    24    10    11   ar
    25    11    12   ar
    26    12    33    1
    27    33    34    1
    28    33    35    1
    29    33    36    1
    30    12    13   ar
    31    13    14   ar
    32    14    15    1
    33    15    16    2
    34    15    17   am
    35    28    19   ar
    36     8     3    1
    37    14    10   ar
    38    26    21   ar
    39    17     6    1
    40    17    18    1
