@<TRIPOS>MOLECULE
*****
 45 51 0 0 0
SMALL
GASTEIGER

@<TRIPOS>ATOM
      1 C         -10.3722  -12.2649   31.6121 C.3     1  UNL1        0.0814
      2 C         -10.9176  -13.0627   30.4082 C.3     1  UNL1        0.0252
      3 C          -9.7868  -13.1291   29.3709 C.3     1  UNL1        0.0278
      4 C          -8.7634  -12.1900   29.8899 C.ar    1  UNL1       -0.0251
      5 C          -7.5924  -11.8242   29.2308 C.ar    1  UNL1       -0.0046
      6 C          -6.7216  -10.9060   29.8404 C.ar    1  UNL1       -0.0005
      7 C          -7.0207  -10.4180   31.1293 C.ar    1  UNL1       -0.0046
      8 C          -8.1873  -10.8283   31.8136 C.ar    1  UNL1       -0.0255
      9 C          -9.0805  -11.6844   31.1316 C.ar    1  UNL1       -0.0156
     10 C         -12.2803  -11.4355   33.0683 C.3     1  UNL1        0.1158
     11 N         -13.0894  -10.3636   33.2513 N.3     1  UNL1       -0.2851
     12 C         -12.6349   -9.4788   32.3532 C.3     1  UNL1        0.0910
     13 C         -13.1446   -8.2154   32.1058 C.3     1  UNL1        0.1018
     14 C         -12.5393   -7.4636   31.0913 C.3     1  UNL1        0.3136
     15 N         -11.4618   -7.9554   30.3853 N.am    1  UNL1       -0.1294
     16 C         -10.9985   -9.2359   30.6199 C.2     1  UNL1        0.4047
     17 O         -10.0676   -9.7139   29.9223 O.2     1  UNL1       -0.2174
     18 C         -11.5948   -9.9957   31.6415 C.3     1  UNL1        0.2038
     19 N         -11.3429  -11.2538   32.0884 N.3     1  UNL1       -0.2473
     20 H         -13.0036   -9.9985   34.1999 H       1  UNL1        0.1244
     21 C         -13.3242  -13.7026   33.0705 C.3     1  UNL1        0.0029
     22 C         -12.4822  -12.7023   33.8544 C.3     1  UNL1        0.0326
     23 C         -10.8730   -7.1250   29.3144 C.3     1  UNL1        0.3394
     24 C          -9.5325   -6.5339   29.7134 C.ar    1  UNL1        0.0505
     25 C          -8.4385   -7.4018   29.8880 C.ar    1  UNL1        0.0021
     26 C          -7.1867   -6.9064   30.2554 C.ar    1  UNL1       -0.0001
     27 C          -7.0065   -5.5388   30.4522 C.ar    1  UNL1       -0.0003
     28 C          -8.0786   -4.6612   30.2869 C.ar    1  UNL1       -0.0044
     29 C          -9.3515   -5.1425   29.9342 C.ar    1  UNL1       -0.0193
     30 C         -10.4590   -4.1472   29.7165 C.3     1  UNL1        0.0309
     31 C          -5.4736  -10.4906   29.1555 C.ar    1  UNL1        0.0030
     32 C          -5.5596  -10.0651   27.8174 C.ar    1  UNL1        0.0001
     33 C          -4.4364   -9.5719   27.1528 C.ar    1  UNL1        0.0000
     34 C          -3.2131   -9.4900   27.8148 C.ar    1  UNL1        0.0001
     35 C          -3.1034   -9.9179   29.1386 C.ar    1  UNL1        0.0031
     36 C          -4.2174  -10.4398   29.8200 C.ar    1  UNL1        0.0371
     37 C          -4.0173  -10.9482   31.1974 C.ar    1  UNL1        0.1806
     38 N          -3.6484  -12.2089   31.4952 N.ar    1  UNL1       -0.1084
     39 N          -3.6372  -12.2605   32.8200 N.ar    1  UNL1       -0.0229
     40 N          -3.9958  -11.0882   33.3209 N.ar    1  UNL1       -0.0464
     41 N          -4.2414  -10.2552   32.3265 N.ar    1  UNL1       -0.2388
     42 H          -4.5778   -9.2745   32.4330 H       1  UNL1        0.1923
     43 C          -8.4495  -10.3541   33.2340 C.3     1  UNL1        0.0221
     44 C          -8.2703  -11.4888   34.2515 C.3     1  UNL1        0.0047
     45 C          -7.5596   -9.1575   33.5819 C.3     1  UNL1        0.0047
@<TRIPOS>BOND
     1    21    22    1
     2    22    10    1
     3    10    11    1
     4    11    12    1
     5    12    13    1
     6    13    14    1
     7    14    15    1
     8    15    23    1
     9    23    24    1
    10    24    25   ar
    11    25    26   ar
    12    26    27   ar
    13    27    28   ar
    14    28    29   ar
    15    29    30    1
    16    15    16    1
    17    16    17    2
    18    16    18    1
    19    18    19    1
    20    19     1    1
    21     1     2    1
    22     2     3    1
    23     3     4    1
    24     4     5   ar
    25     5     6   ar
    26     6    31    1
    27    31    32   ar
    28    32    33   ar
    29    33    34   ar
    30    34    35   ar
    31    35    36   ar
    32    36    37    1
    33    37    38   ar
    34    38    39   ar
    35    39    40   ar
    36    40    41   ar
    37     6     7   ar
    38     7     8   ar
    39     8    43    1
    40    43    44    1
    41    43    45    1
    42     8     9   ar
    43    19    10    1
    44     9     1    1
    45    18    12    1
    46     9     4   ar
    47    29    24   ar
    48    36    31   ar
    49    41    37   ar
    50    41    42    1
    51    11    20    1
@<TRIPOS>MOLECULE
*****
 45 51 0 0 0
SMALL
GASTEIGER

@<TRIPOS>ATOM
      1 C          -4.1615  -16.3329   21.1209 C.3     1  UNL1        0.0814
      2 C          -5.0426  -15.4754   20.1873 C.3     1  UNL1        0.0252
      3 C          -5.9798  -14.6580   21.0889 C.3     1  UNL1        0.0278
      4 C          -5.7832  -15.2401   22.4383 C.ar    1  UNL1       -0.0251
      5 C          -6.5060  -14.9003   23.5792 C.ar    1  UNL1       -0.0046
      6 C          -6.2197  -15.5516   24.7905 C.ar    1  UNL1       -0.0005
      7 C          -5.1704  -16.4925   24.8402 C.ar    1  UNL1       -0.0046
      8 C          -4.4091  -16.7998   23.6897 C.ar    1  UNL1       -0.0255
      9 C          -4.7846  -16.1887   22.4726 C.ar    1  UNL1       -0.0156
     10 C          -3.0760  -18.2516   19.8601 C.3     1  UNL1        0.1158
     11 N          -3.2752  -19.5489   19.5218 N.3     1  UNL1       -0.2851
     12 C          -4.4296  -19.8515   20.1315 C.3     1  UNL1        0.0910
     13 C          -5.1010  -21.0613   20.0778 C.3     1  UNL1        0.1018
     14 C          -6.3188  -21.1535   20.7628 C.3     1  UNL1        0.3136
     15 N          -6.8145  -20.0871   21.4828 N.am    1  UNL1       -0.1294
     16 C          -6.1489  -18.8762   21.4859 C.2     1  UNL1        0.4047
     17 O          -6.6406  -17.8808   22.0766 O.2     1  UNL1       -0.2174
     18 C          -4.9217  -18.7760   20.8072 C.3     1  UNL1        0.2038
     19 N          -4.0636  -17.7339   20.6529 N.3     1  UNL1       -0.2473
     20 H          -2.5155  -20.1369   19.8647 H       1  UNL1        0.1244
     21 C          -0.5853  -18.1601   19.7254 C.3     1  UNL1        0.0029
     22 C          -1.8943  -17.4853   19.3312 C.3     1  UNL1        0.0326
     23 C          -8.1126  -20.2356   22.1729 C.3     1  UNL1        0.3394
     24 C          -9.2645  -19.6655   21.3645 C.ar    1  UNL1        0.0505
     25 C          -8.9847  -19.0683   20.1213 C.ar    1  UNL1        0.0021
     26 C         -10.0094  -18.5293   19.3423 C.ar    1  UNL1       -0.0001
     27 C         -11.3280  -18.5796   19.7898 C.ar    1  UNL1       -0.0003
     28 C         -11.6269  -19.1649   21.0206 C.ar    1  UNL1       -0.0044
     29 C         -10.6068  -19.6976   21.8280 C.ar    1  UNL1       -0.0193
     30 C         -10.9909  -20.3651   23.1208 C.3     1  UNL1        0.0309
     31 C          -6.9817  -15.2170   26.0178 C.ar    1  UNL1        0.0030
     32 C          -6.2840  -14.6497   27.0997 C.ar    1  UNL1        0.0001
     33 C          -6.9634  -14.2257   28.2422 C.ar    1  UNL1        0.0000
     34 C          -8.3485  -14.3556   28.3197 C.ar    1  UNL1        0.0001
     35 C          -9.0584  -14.9265   27.2625 C.ar    1  UNL1        0.0031
     36 C          -8.3911  -15.3817   26.1113 C.ar    1  UNL1        0.0371
     37 C          -9.1926  -16.0482   25.0582 C.ar    1  UNL1        0.1806
     38 N          -9.4837  -17.3631   25.0438 N.ar    1  UNL1       -0.1084
     39 N         -10.1609  -17.5536   23.9200 N.ar    1  UNL1       -0.0229
     40 N         -10.2731  -16.4105   23.2609 N.ar    1  UNL1       -0.0464
     41 N          -9.6728  -15.4582   23.9507 N.ar    1  UNL1       -0.2388
     42 H          -9.5765  -14.4657   23.6473 H       1  UNL1        0.1923
     43 C          -3.2305  -17.7556   23.7832 C.3     1  UNL1        0.0221
     44 C          -2.0055  -17.2184   23.0310 C.3     1  UNL1        0.0047
     45 C          -2.8894  -18.0584   25.2449 C.3     1  UNL1        0.0047
@<TRIPOS>BOND
     1    21    22    1
     2    22    10    1
     3    10    11    1
     4    11    12    1
     5    12    13    1
     6    13    14    1
     7    14    15    1
     8    15    23    1
     9    23    24    1
    10    24    25   ar
    11    25    26   ar
    12    26    27   ar
    13    27    28   ar
    14    28    29   ar
    15    29    30    1
    16    15    16    1
    17    16    17    2
    18    16    18    1
    19    18    19    1
    20    19     1    1
    21     1     2    1
    22     2     3    1
    23     3     4    1
    24     4     5   ar
    25     5     6   ar
    26     6    31    1
    27    31    32   ar
    28    32    33   ar
    29    33    34   ar
    30    34    35   ar
    31    35    36   ar
    32    36    37    1
    33    37    38   ar
    34    38    39   ar
    35    39    40   ar
    36    40    41   ar
    37     6     7   ar
    38     7     8   ar
    39     8    43    1
    40    43    44    1
    41    43    45    1
    42     8     9   ar
    43    19    10    1
    44     9     1    1
    45    18    12    1
    46     9     4   ar
    47    29    24   ar
    48    36    31   ar
    49    41    37   ar
    50    41    42    1
    51    11    20    1
