@<TRIPOS>MOLECULE
*****
 42 46 0 0 0
SMALL
GASTEIGER

@<TRIPOS>ATOM
      1 C         -21.8855  -13.7146  -16.3690 C.3     1  UNL1        0.0323
      2 C         -21.7035  -13.0622  -15.0254 C.ar    1  UNL1       -0.0083
      3 C         -20.9688  -13.7254  -14.0296 C.ar    1  UNL1       -0.0018
      4 C         -20.7865  -13.1423  -12.7746 C.ar    1  UNL1        0.0144
      5 C         -21.3321  -11.8852  -12.4894 C.ar    1  UNL1        0.0518
      6 C         -22.0343  -11.1999  -13.4943 C.ar    1  UNL1        0.0290
      7 C         -22.2426  -11.7840  -14.7563 C.ar    1  UNL1        0.0477
      8 N         -21.1097  -11.2934  -11.1977 N.am    1  UNL1       -0.2803
      9 C         -20.4677  -10.0211  -11.0069 C.2     1  UNL1        0.2495
     10 O         -20.4508   -9.1830  -11.9501 O.2     1  UNL1       -0.2698
     11 H         -21.5381  -11.7580  -10.3655 H       1  UNL1        0.1552
     12 C         -19.8632   -9.6616   -9.7012 C.ar    1  UNL1        0.0537
     13 C         -20.3594   -8.5843   -8.9465 C.ar    1  UNL1        0.0042
     14 C         -19.7935   -8.2633   -7.7095 C.ar    1  UNL1       -0.0028
     15 C         -18.7338   -9.0242   -7.1906 C.ar    1  UNL1       -0.0061
     16 C         -18.2237  -10.0871   -7.9531 C.ar    1  UNL1       -0.0028
     17 C         -18.7893  -10.4102   -9.1891 C.ar    1  UNL1        0.0042
     18 C         -18.1243   -8.6878   -5.8435 C.3     1  UNL1        0.0992
     19 N         -18.8519   -9.2697   -4.6922 N.3     1  UNL1       -0.2665
     20 C         -20.2778   -8.8782   -4.6310 C.3     1  UNL1        0.0899
     21 C         -20.8916   -9.2652   -3.2787 C.3     1  UNL1        0.0897
     22 N         -20.2032   -8.6060   -2.1389 N.3     1  UNL1       -0.2691
     23 C         -20.9749   -7.4581   -1.6379 C.3     1  UNL1        0.0897
     24 C         -18.8095   -8.1978   -2.4352 C.3     1  UNL1        0.0897
     25 C         -18.1331   -9.1818   -3.3990 C.3     1  UNL1        0.0899
     26 N         -22.9469  -11.0570  -15.7795 N.pl3   1  UNL1       -0.2827
     27 H         -23.8204  -11.4688  -16.1784 H       1  UNL1        0.1551
     28 C         -22.5544   -9.7573  -16.2423 C.ar    1  UNL1        0.2207
     29 N         -21.3095   -9.2719  -15.9844 N.ar    1  UNL1       -0.2120
     30 C         -20.9399   -8.0349  -16.4025 C.ar    1  UNL1        0.1034
     31 C         -21.8447   -7.2362  -17.0994 C.ar    1  UNL1        0.0400
     32 C         -23.1308   -7.7361  -17.3470 C.ar    1  UNL1        0.0869
     33 N         -23.4505   -8.9854  -16.9126 N.ar    1  UNL1       -0.2135
     34 C         -24.1325   -6.9327  -18.0900 C.ar    1  UNL1        0.0338
     35 C         -24.6168   -5.7411  -17.5227 C.ar    1  UNL1        0.0043
     36 C         -25.5263   -4.9458  -18.2175 C.ar    1  UNL1        0.0207
     37 C         -25.9502   -5.3411  -19.4831 C.ar    1  UNL1        0.0985
     38 N         -25.4877   -6.4973  -20.0240 N.ar    1  UNL1       -0.2456
     39 CA        -24.6089   -7.3104  -19.3717 C.ar    1  UNL1        0.0899
     40 C         -24.1621   -8.5833  -20.0492 C.3     1  UNL1        0.1829
     41 O         -25.1619   -9.0826  -20.8970 O.3     1  UNL1       -0.3760
     42 H         -25.8527   -9.4904  -20.3116 H       1  UNL1        0.2110
@<TRIPOS>BOND
     1     1     2    1
     2     2     3   ar
     3     3     4   ar
     4     4     5   ar
     5     5     8    1
     6     8     9   am
     7     9    10    2
     8     9    12    1
     9    12    13   ar
    10    13    14   ar
    11    14    15   ar
    12    15    18    1
    13    18    19    1
    14    19    20    1
    15    20    21    1
    16    21    22    1
    17    22    23    1
    18    22    24    1
    19    24    25    1
    20    15    16   ar
    21    16    17   ar
    22     5     6   ar
    23     6     7   ar
    24     7    26    1
    25    26    28    1
    26    28    29   ar
    27    29    30   ar
    28    30    31   ar
    29    31    32   ar
    30    32    34    1
    31    34    35   ar
    32    35    36   ar
    33    36    37   ar
    34    37    38   ar
    35    38    39   ar
    36    39    40    1
    37    40    41    1
    38    32    33   ar
    39     7     2   ar
    40    33    28   ar
    41    17    12   ar
    42    39    34   ar
    43    25    19    1
    44     8    11    1
    45    26    27    1
    46    41    42    1
@<TRIPOS>MOLECULE
*****
 42 46 0 0 0
SMALL
GASTEIGER

@<TRIPOS>ATOM
      1 C         -21.5243  -14.1401  -14.5471 C.3     1  UNL1        0.0323
      2 C         -22.0487  -12.9838  -15.3545 C.ar    1  UNL1       -0.0083
      3 C         -21.9012  -12.9932  -16.7507 C.ar    1  UNL1       -0.0018
      4 C         -22.3779  -11.9322  -17.5222 C.ar    1  UNL1        0.0144
      5 C         -23.0129  -10.8421  -16.9159 C.ar    1  UNL1        0.0518
      6 C         -23.1985  -10.8457  -15.5237 C.ar    1  UNL1        0.0290
      7 C         -22.7056  -11.8984  -14.7323 C.ar    1  UNL1        0.0477
      8 N         -23.5183   -9.7724  -17.7337 N.am    1  UNL1       -0.2803
      9 C         -23.1405   -8.3957  -17.5630 C.2     1  UNL1        0.2495
     10 O         -22.0539   -8.1135  -16.9868 O.2     1  UNL1       -0.2698
     11 H         -24.0997  -10.0237  -18.5647 H       1  UNL1        0.1552
     12 C         -23.9892   -7.3019  -18.0948 C.ar    1  UNL1        0.0537
     13 C         -24.6569   -7.4371  -19.3246 C.ar    1  UNL1        0.0042
     14 C         -25.4675   -6.4070  -19.8097 C.ar    1  UNL1       -0.0028
     15 C         -25.6450   -5.2288  -19.0672 C.ar    1  UNL1       -0.0061
     16 C         -24.9619   -5.0841  -17.8491 C.ar    1  UNL1       -0.0028
     17 C         -24.1525   -6.1135  -17.3620 C.ar    1  UNL1        0.0042
     18 C         -26.5331   -4.1131  -19.5831 C.3     1  UNL1        0.0992
     19 N         -27.1273   -3.2755  -18.5161 N.3     1  UNL1       -0.2665
     20 C         -27.2287   -3.9618  -17.2088 C.3     1  UNL1        0.0899
     21 C         -28.1070   -3.1598  -16.2389 C.3     1  UNL1        0.0897
     22 N         -29.4898   -2.9780  -16.7509 N.3     1  UNL1       -0.2691
     23 C         -30.4279   -3.9075  -16.1027 C.3     1  UNL1        0.0897
     24 C         -29.6016   -3.0806  -18.2252 C.3     1  UNL1        0.0897
     25 C         -28.3464   -2.5350  -18.9191 C.3     1  UNL1        0.0899
     26 N         -22.9240  -11.8936  -13.3097 N.pl3   1  UNL1       -0.2827
     27 H         -23.7785  -12.3603  -12.9304 H       1  UNL1        0.1551
     28 C         -21.9967  -11.3389  -12.3664 C.ar    1  UNL1        0.2207
     29 N         -21.0052  -12.1025  -11.8319 N.ar    1  UNL1       -0.2120
     30 C         -20.1378  -11.5879  -10.9238 C.ar    1  UNL1        0.1034
     31 C         -20.2610  -10.2606  -10.5175 C.ar    1  UNL1        0.0400
     32 C         -21.2949   -9.4847  -11.0597 C.ar    1  UNL1        0.0869
     33 N         -22.1348  -10.0453  -11.9720 N.ar    1  UNL1       -0.2135
     34 C         -21.4694   -8.0642  -10.6689 C.ar    1  UNL1        0.0338
     35 C         -21.0708   -7.0517  -11.5590 C.ar    1  UNL1        0.0043
     36 C         -21.2621   -5.7098  -11.2348 C.ar    1  UNL1        0.0207
     37 C         -21.8557   -5.3796  -10.0197 C.ar    1  UNL1        0.0985
     38 N         -22.2307   -6.3598   -9.1585 N.ar    1  UNL1       -0.2456
     39 CA        -22.0483   -7.6831   -9.4313 C.ar    1  UNL1        0.0899
     40 C         -22.4856   -8.6999   -8.4046 C.3     1  UNL1        0.1829
     41 O         -23.5326   -8.2026   -7.6146 O.3     1  UNL1       -0.3760
     42 H         -23.1268   -7.5544   -6.9810 H       1  UNL1        0.2110
@<TRIPOS>BOND
     1     1     2    1
     2     2     3   ar
     3     3     4   ar
     4     4     5   ar
     5     5     8    1
     6     8     9   am
     7     9    10    2
     8     9    12    1
     9    12    13   ar
    10    13    14   ar
    11    14    15   ar
    12    15    18    1
    13    18    19    1
    14    19    20    1
    15    20    21    1
    16    21    22    1
    17    22    23    1
    18    22    24    1
    19    24    25    1
    20    15    16   ar
    21    16    17   ar
    22     5     6   ar
    23     6     7   ar
    24     7    26    1
    25    26    28    1
    26    28    29   ar
    27    29    30   ar
    28    30    31   ar
    29    31    32   ar
    30    32    34    1
    31    34    35   ar
    32    35    36   ar
    33    36    37   ar
    34    37    38   ar
    35    38    39   ar
    36    39    40    1
    37    40    41    1
    38    32    33   ar
    39     7     2   ar
    40    33    28   ar
    41    17    12   ar
    42    39    34   ar
    43    25    19    1
    44     8    11    1
    45    26    27    1
    46    41    42    1
@<TRIPOS>MOLECULE
*****
 42 46 0 0 0
SMALL
GASTEIGER

@<TRIPOS>ATOM
      1 C         -21.9260  -14.1075  -17.0889 C.3     1  UNL1        0.0323
      2 C         -21.6773  -13.5217  -15.7255 C.ar    1  UNL1       -0.0083
      3 C         -21.1401  -14.3325  -14.7130 C.ar    1  UNL1       -0.0018
      4 C         -20.9011  -13.8135  -13.4396 C.ar    1  UNL1        0.0144
      5 C         -21.1916  -12.4748  -13.1520 C.ar    1  UNL1        0.0518
      6 C         -21.6922  -11.6488  -14.1718 C.ar    1  UNL1        0.0290
      7 C         -21.9564  -12.1634  -15.4534 C.ar    1  UNL1        0.0477
      8 N         -20.9134  -11.9558  -11.8400 N.am    1  UNL1       -0.2803
      9 C         -21.6112  -10.8388  -11.2633 C.2     1  UNL1        0.2495
     10 O         -22.7596  -10.5336  -11.6881 O.2     1  UNL1       -0.2698
     11 H         -20.2507  -12.4887  -11.2327 H       1  UNL1        0.1552
     12 C         -21.0188  -10.0664  -10.1444 C.ar    1  UNL1        0.0537
     13 C         -21.8298   -9.3221   -9.2700 C.ar    1  UNL1        0.0042
     14 C         -21.2637   -8.6105   -8.2086 C.ar    1  UNL1       -0.0028
     15 C         -19.8780   -8.6440   -7.9856 C.ar    1  UNL1       -0.0061
     16 C         -19.0649   -9.3699   -8.8708 C.ar    1  UNL1       -0.0028
     17 C         -19.6295  -10.0830   -9.9313 C.ar    1  UNL1        0.0042
     18 C         -19.2599   -7.8837   -6.8282 C.3     1  UNL1        0.0992
     19 N         -18.9476   -8.7284   -5.6525 N.3     1  UNL1       -0.2665
     20 C         -19.9816   -8.6807   -4.5947 C.3     1  UNL1        0.0899
     21 C         -19.4696   -9.3307   -3.3023 C.3     1  UNL1        0.0897
     22 N         -18.2614   -8.6493   -2.7700 N.3     1  UNL1       -0.2691
     23 C         -18.5975   -7.7638   -1.6444 C.3     1  UNL1        0.0897
     24 C         -17.4912   -7.9065   -3.7956 C.3     1  UNL1        0.0897
     25 C         -17.5553   -8.6088   -5.1584 C.3     1  UNL1        0.0899
     26 N         -22.4497  -11.2960  -16.4906 N.pl3   1  UNL1       -0.2827
     27 H         -22.6974  -11.7102  -17.4174 H       1  UNL1        0.1551
     28 C         -22.6868   -9.8934  -16.3059 C.ar    1  UNL1        0.2207
     29 N         -22.9672   -9.0880  -17.3664 N.ar    1  UNL1       -0.2120
     30 C         -23.1723   -7.7569  -17.1995 C.ar    1  UNL1        0.1034
     31 C         -23.0871   -7.1932  -15.9279 C.ar    1  UNL1        0.0400
     32 C         -22.7814   -8.0260  -14.8424 C.ar    1  UNL1        0.0869
     33 N         -22.5910   -9.3556  -15.0610 N.ar    1  UNL1       -0.2135
     34 C         -22.6847   -7.4817  -13.4657 C.ar    1  UNL1        0.0338
     35 C         -21.4820   -6.8895  -13.0427 C.ar    1  UNL1        0.0043
     36 C         -21.3775   -6.3327  -11.7694 C.ar    1  UNL1        0.0207
     37 C         -22.4786   -6.3655  -10.9183 C.ar    1  UNL1        0.0985
     38 N         -23.6356   -6.9466  -11.3266 N.ar    1  UNL1       -0.2456
     39 CA        -23.7744   -7.5149  -12.5582 C.ar    1  UNL1        0.0899
     40 C         -25.0964   -8.1495  -12.9167 C.3     1  UNL1        0.1829
     41 O         -24.9595   -9.5334  -13.1009 O.3     1  UNL1       -0.3760
     42 H         -24.5190   -9.6601  -13.9819 H       1  UNL1        0.2110
@<TRIPOS>BOND
     1     1     2    1
     2     2     3   ar
     3     3     4   ar
     4     4     5   ar
     5     5     8    1
     6     8     9   am
     7     9    10    2
     8     9    12    1
     9    12    13   ar
    10    13    14   ar
    11    14    15   ar
    12    15    18    1
    13    18    19    1
    14    19    20    1
    15    20    21    1
    16    21    22    1
    17    22    23    1
    18    22    24    1
    19    24    25    1
    20    15    16   ar
    21    16    17   ar
    22     5     6   ar
    23     6     7   ar
    24     7    26    1
    25    26    28    1
    26    28    29   ar
    27    29    30   ar
    28    30    31   ar
    29    31    32   ar
    30    32    34    1
    31    34    35   ar
    32    35    36   ar
    33    36    37   ar
    34    37    38   ar
    35    38    39   ar
    36    39    40    1
    37    40    41    1
    38    32    33   ar
    39     7     2   ar
    40    33    28   ar
    41    17    12   ar
    42    39    34   ar
    43    25    19    1
    44     8    11    1
    45    26    27    1
    46    41    42    1
@<TRIPOS>MOLECULE
*****
 42 46 0 0 0
SMALL
GASTEIGER

@<TRIPOS>ATOM
      1 C         -20.9304  -13.6657  -13.9909 C.3     1  UNL1        0.0323
      2 C         -21.5635  -12.6004  -14.8444 C.ar    1  UNL1       -0.0083
      3 C         -21.6437  -12.7858  -16.2337 C.ar    1  UNL1       -0.0018
      4 C         -22.2252  -11.8124  -17.0476 C.ar    1  UNL1        0.0144
      5 C         -22.7397  -10.6357  -16.4909 C.ar    1  UNL1        0.0518
      6 C         -22.6978  -10.4624  -15.0977 C.ar    1  UNL1        0.0290
      7 C         -22.0971  -11.4257  -14.2680 C.ar    1  UNL1        0.0477
      8 N         -23.3568   -9.6583  -17.3465 N.am    1  UNL1       -0.2803
      9 C         -22.9666   -8.2749  -17.3826 C.2     1  UNL1        0.2495
     10 O         -21.8134   -7.9414  -16.9936 O.2     1  UNL1       -0.2698
     11 H         -24.0442   -9.9944  -18.0582 H       1  UNL1        0.1552
     12 C         -23.8852   -7.2384  -17.9130 C.ar    1  UNL1        0.0537
     13 C         -24.1133   -6.0443  -17.2069 C.ar    1  UNL1        0.0042
     14 C         -24.9683   -5.0663  -17.7228 C.ar    1  UNL1       -0.0028
     15 C         -25.5971   -5.2512  -18.9643 C.ar    1  UNL1       -0.0061
     16 C         -25.3866   -6.4524  -19.6602 C.ar    1  UNL1       -0.0028
     17 C         -24.5311   -7.4303  -19.1466 C.ar    1  UNL1        0.0042
     18 C         -26.5160   -4.1880  -19.5343 C.3     1  UNL1        0.0992
     19 N         -27.1138   -3.2990  -18.5118 N.3     1  UNL1       -0.2665
     20 C         -27.2725   -3.9392  -17.1870 C.3     1  UNL1        0.0899
     21 C         -28.1525   -3.0805  -16.2686 C.3     1  UNL1        0.0897
     22 N         -29.5143   -2.8744  -16.8257 N.3     1  UNL1       -0.2691
     23 C         -30.4981   -3.7541  -16.1758 C.3     1  UNL1        0.0897
     24 C         -29.5881   -3.0213  -18.2987 C.3     1  UNL1        0.0897
     25 C         -28.2979   -2.5360  -18.9729 C.3     1  UNL1        0.0899
     26 N         -22.0826  -11.2394  -12.8409 N.pl3   1  UNL1       -0.2827
     27 H         -22.6881  -11.8502  -12.2476 H       1  UNL1        0.1551
     28 C         -21.2290  -10.3005  -12.1719 C.ar    1  UNL1        0.2207
     29 N         -21.1607   -9.0049  -12.5825 N.ar    1  UNL1       -0.2120
     30 C         -20.3396   -8.1176  -11.9658 C.ar    1  UNL1        0.1034
     31 C         -19.5419   -8.5311  -10.9006 C.ar    1  UNL1        0.0400
     32 C         -19.6051   -9.8711  -10.4938 C.ar    1  UNL1        0.0869
     33 N         -20.4494  -10.7201  -11.1404 N.ar    1  UNL1       -0.2135
     34 C         -18.7837  -10.3650   -9.3614 C.ar    1  UNL1        0.0338
     35 C         -17.9532  -11.4834   -9.5502 C.ar    1  UNL1        0.0043
     36 C         -17.1397  -11.9426   -8.5159 C.ar    1  UNL1        0.0207
     37 C         -17.1544  -11.2805   -7.2914 C.ar    1  UNL1        0.0985
     38 N         -17.9648  -10.2065   -7.1097 N.ar    1  UNL1       -0.2456
     39 CA        -18.7857   -9.7347   -8.0906 C.ar    1  UNL1        0.0899
     40 C         -19.6612   -8.5424   -7.7892 C.3     1  UNL1        0.1829
     41 O         -18.9384   -7.3448   -7.8951 O.3     1  UNL1       -0.3760
     42 H         -18.3668   -7.2859   -7.0851 H       1  UNL1        0.2110
@<TRIPOS>BOND
     1     1     2    1
     2     2     3   ar
     3     3     4   ar
     4     4     5   ar
     5     5     8    1
     6     8     9   am
     7     9    10    2
     8     9    12    1
     9    12    13   ar
    10    13    14   ar
    11    14    15   ar
    12    15    18    1
    13    18    19    1
    14    19    20    1
    15    20    21    1
    16    21    22    1
    17    22    23    1
    18    22    24    1
    19    24    25    1
    20    15    16   ar
    21    16    17   ar
    22     5     6   ar
    23     6     7   ar
    24     7    26    1
    25    26    28    1
    26    28    29   ar
    27    29    30   ar
    28    30    31   ar
    29    31    32   ar
    30    32    34    1
    31    34    35   ar
    32    35    36   ar
    33    36    37   ar
    34    37    38   ar
    35    38    39   ar
    36    39    40    1
    37    40    41    1
    38    32    33   ar
    39     7     2   ar
    40    33    28   ar
    41    17    12   ar
    42    39    34   ar
    43    25    19    1
    44     8    11    1
    45    26    27    1
    46    41    42    1
@<TRIPOS>MOLECULE
*****
 42 46 0 0 0
SMALL
GASTEIGER

@<TRIPOS>ATOM
      1 C         -24.3627  -10.2607   -8.7134 C.3     1  UNL1        0.0323
      2 C         -24.9996   -9.6180   -9.9156 C.ar    1  UNL1       -0.0083
      3 C         -26.1856   -8.8831   -9.7587 C.ar    1  UNL1       -0.0018
      4 C         -26.7968   -8.2781  -10.8581 C.ar    1  UNL1        0.0144
      5 C         -26.2355   -8.3930  -12.1352 C.ar    1  UNL1        0.0518
      6 C         -25.0283   -9.0937  -12.2918 C.ar    1  UNL1        0.0290
      7 C         -24.4125   -9.7248  -11.1965 C.ar    1  UNL1        0.0477
      8 N         -26.8696   -7.7400  -13.2487 N.am    1  UNL1       -0.2803
      9 C         -26.5429   -6.4076  -13.6790 C.2     1  UNL1        0.2495
     10 O         -25.4194   -5.9144  -13.3842 O.2     1  UNL1       -0.2698
     11 H         -27.5176   -8.3042  -13.8434 H       1  UNL1        0.1552
     12 C         -27.4911   -5.6200  -14.5036 C.ar    1  UNL1        0.0537
     13 C         -28.8707   -5.8892  -14.4754 C.ar    1  UNL1        0.0042
     14 C         -29.7583   -5.1308  -15.2438 C.ar    1  UNL1       -0.0028
     15 C         -29.2894   -4.0741  -16.0404 C.ar    1  UNL1       -0.0061
     16 C         -27.9096   -3.8180  -16.0856 C.ar    1  UNL1       -0.0028
     17 C         -27.0212   -4.5742  -15.3169 C.ar    1  UNL1        0.0042
     18 C         -30.2495   -3.2403  -16.8665 C.3     1  UNL1        0.0992
     19 N         -31.2545   -2.5076  -16.0624 N.3     1  UNL1       -0.2665
     20 C         -30.9952   -2.5488  -14.6059 C.3     1  UNL1        0.0899
     21 C         -32.2094   -2.0336  -13.8215 C.3     1  UNL1        0.0897
     22 N         -33.4288   -2.8431  -14.0761 N.3     1  UNL1       -0.2691
     23 C         -33.6931   -3.7768  -12.9705 C.3     1  UNL1        0.0897
     24 C         -33.4072   -3.5697  -15.3678 C.3     1  UNL1        0.0897
     25 C         -32.6622   -2.7702  -16.4450 C.3     1  UNL1        0.0899
     26 N         -23.1650  -10.4204  -11.3737 N.pl3   1  UNL1       -0.2827
     27 H         -23.1853  -11.4226  -11.6688 H       1  UNL1        0.1551
     28 C         -21.8813   -9.7961  -11.2323 C.ar    1  UNL1        0.2207
     29 N         -21.5152   -8.7641  -12.0402 N.ar    1  UNL1       -0.2120
     30 C         -20.2941   -8.1833  -11.9240 C.ar    1  UNL1        0.1034
     31 C         -19.3891   -8.6494  -10.9723 C.ar    1  UNL1        0.0400
     32 C         -19.7668   -9.7237  -10.1548 C.ar    1  UNL1        0.0869
     33 N         -21.0050  -10.2675  -10.3060 N.ar    1  UNL1       -0.2135
     34 C         -18.8466  -10.2565   -9.1202 C.ar    1  UNL1        0.0338
     35 C         -18.0523  -11.3777   -9.4172 C.ar    1  UNL1        0.0043
     36 C         -17.1490  -11.8729   -8.4786 C.ar    1  UNL1        0.0207
     37 C         -17.0374  -11.2442   -7.2417 C.ar    1  UNL1        0.0985
     38 N         -17.8128  -10.1674   -6.9547 N.ar    1  UNL1       -0.2456
     39 CA        -18.7183   -9.6609   -7.8392 C.ar    1  UNL1        0.0899
     40 C         -19.5454   -8.4683   -7.4238 C.3     1  UNL1        0.1829
     41 O         -18.9398   -7.2684   -7.8254 O.3     1  UNL1       -0.3760
     42 H         -18.1796   -7.1130   -7.2056 H       1  UNL1        0.2110
@<TRIPOS>BOND
     1     1     2    1
     2     2     3   ar
     3     3     4   ar
     4     4     5   ar
     5     5     8    1
     6     8     9   am
     7     9    10    2
     8     9    12    1
     9    12    13   ar
    10    13    14   ar
    11    14    15   ar
    12    15    18    1
    13    18    19    1
    14    19    20    1
    15    20    21    1
    16    21    22    1
    17    22    23    1
    18    22    24    1
    19    24    25    1
    20    15    16   ar
    21    16    17   ar
    22     5     6   ar
    23     6     7   ar
    24     7    26    1
    25    26    28    1
    26    28    29   ar
    27    29    30   ar
    28    30    31   ar
    29    31    32   ar
    30    32    34    1
    31    34    35   ar
    32    35    36   ar
    33    36    37   ar
    34    37    38   ar
    35    38    39   ar
    36    39    40    1
    37    40    41    1
    38    32    33   ar
    39     7     2   ar
    40    33    28   ar
    41    17    12   ar
    42    39    34   ar
    43    25    19    1
    44     8    11    1
    45    26    27    1
    46    41    42    1
@<TRIPOS>MOLECULE
*****
 42 46 0 0 0
SMALL
GASTEIGER

@<TRIPOS>ATOM
      1 C         -20.8740   -6.7138   -9.8481 C.3     1  UNL1        0.0323
      2 C         -22.1803   -6.4819  -10.5577 C.ar    1  UNL1       -0.0083
      3 C         -22.4692   -5.2087  -11.0741 C.ar    1  UNL1       -0.0018
      4 C         -23.6743   -4.9674  -11.7355 C.ar    1  UNL1        0.0144
      5 C         -24.6141   -5.9922  -11.8963 C.ar    1  UNL1        0.0518
      6 C         -24.3137   -7.2777  -11.4165 C.ar    1  UNL1        0.0290
      7 C         -23.1122   -7.5299  -10.7308 C.ar    1  UNL1        0.0477
      8 N         -25.8379   -5.7263  -12.6033 N.am    1  UNL1       -0.2803
      9 C         -25.9884   -5.8982  -14.0228 C.2     1  UNL1        0.2495
     10 O         -25.2118   -6.6758  -14.6431 O.2     1  UNL1       -0.2698
     11 H         -26.6909   -5.5072  -12.0410 H       1  UNL1        0.1552
     12 C         -27.0730   -5.2083  -14.7625 C.ar    1  UNL1        0.0537
     13 C         -26.7853   -4.1723  -15.6683 C.ar    1  UNL1        0.0042
     14 C         -27.8130   -3.5390  -16.3728 C.ar    1  UNL1       -0.0028
     15 C         -29.1474   -3.9410  -16.2031 C.ar    1  UNL1       -0.0061
     16 C         -29.4378   -4.9610  -15.2831 C.ar    1  UNL1       -0.0028
     17 C         -28.4116   -5.5961  -14.5793 C.ar    1  UNL1        0.0042
     18 C         -30.2649   -3.2655  -16.9742 C.3     1  UNL1        0.0992
     19 N         -31.2179   -2.5188  -16.1212 N.3     1  UNL1       -0.2665
     20 C         -30.9366   -2.6353  -14.6729 C.3     1  UNL1        0.0899
     21 C         -32.1098   -2.0942  -13.8447 C.3     1  UNL1        0.0897
     22 N         -33.3728   -2.8301  -14.1100 N.3     1  UNL1       -0.2691
     23 C         -33.6654   -3.7961  -13.0397 C.3     1  UNL1        0.0897
     24 C         -33.4097   -3.5009  -15.4312 C.3     1  UNL1        0.0897
     25 C         -32.6433   -2.6942  -16.4878 C.3     1  UNL1        0.0899
     26 N         -22.8138   -8.8587  -10.2651 N.pl3   1  UNL1       -0.2827
     27 H         -23.0416   -9.1082   -9.2764 H       1  UNL1        0.1551
     28 C         -22.2777   -9.8917  -11.1036 C.ar    1  UNL1        0.2207
     29 N         -21.4663  -10.8558  -10.5899 N.ar    1  UNL1       -0.2120
     30 C         -20.9402  -11.8235  -11.3827 C.ar    1  UNL1        0.1034
     31 C         -21.2206  -11.8341  -12.7478 C.ar    1  UNL1        0.0400
     32 C         -22.0435  -10.8282  -13.2729 C.ar    1  UNL1        0.0869
     33 N         -22.5518   -9.8840  -12.4351 N.ar    1  UNL1       -0.2135
     34 C         -22.3811  -10.7940  -14.7172 C.ar    1  UNL1        0.0338
     35 C         -22.8848  -11.9526  -15.3338 C.ar    1  UNL1        0.0043
     36 C         -23.2495  -11.9362  -16.6788 C.ar    1  UNL1        0.0207
     37 C         -23.1130  -10.7583  -17.4081 C.ar    1  UNL1        0.0985
     38 N         -22.6173   -9.6439  -16.8118 N.ar    1  UNL1       -0.2456
     39 CA        -22.2358   -9.6221  -15.5031 C.ar    1  UNL1        0.0899
     40 C         -21.6828   -8.3385  -14.9325 C.3     1  UNL1        0.1829
     41 O         -22.6800   -7.6101  -14.2670 O.3     1  UNL1       -0.3760
     42 H         -23.2474   -7.1980  -14.9701 H       1  UNL1        0.2110
@<TRIPOS>BOND
     1     1     2    1
     2     2     3   ar
     3     3     4   ar
     4     4     5   ar
     5     5     8    1
     6     8     9   am
     7     9    10    2
     8     9    12    1
     9    12    13   ar
    10    13    14   ar
    11    14    15   ar
    12    15    18    1
    13    18    19    1
    14    19    20    1
    15    20    21    1
    16    21    22    1
    17    22    23    1
    18    22    24    1
    19    24    25    1
    20    15    16   ar
    21    16    17   ar
    22     5     6   ar
    23     6     7   ar
    24     7    26    1
    25    26    28    1
    26    28    29   ar
    27    29    30   ar
    28    30    31   ar
    29    31    32   ar
    30    32    34    1
    31    34    35   ar
    32    35    36   ar
    33    36    37   ar
    34    37    38   ar
    35    38    39   ar
    36    39    40    1
    37    40    41    1
    38    32    33   ar
    39     7     2   ar
    40    33    28   ar
    41    17    12   ar
    42    39    34   ar
    43    25    19    1
    44     8    11    1
    45    26    27    1
    46    41    42    1
@<TRIPOS>MOLECULE
*****
 42 46 0 0 0
SMALL
GASTEIGER

@<TRIPOS>ATOM
      1 C         -21.1409  -13.7771  -14.3526 C.3     1  UNL1        0.0323
      2 C         -21.7190  -12.6703  -15.1920 C.ar    1  UNL1       -0.0083
      3 C         -22.1224  -12.9412  -16.5091 C.ar    1  UNL1       -0.0018
      4 C         -22.6607  -11.9317  -17.3088 C.ar    1  UNL1        0.0144
      5 C         -22.8086  -10.6326  -16.8091 C.ar    1  UNL1        0.0518
      6 C         -22.4434  -10.3650  -15.4796 C.ar    1  UNL1        0.0290
      7 C         -21.8814  -11.3675  -14.6694 C.ar    1  UNL1        0.0477
      8 N         -23.3889   -9.6149  -17.6433 N.am    1  UNL1       -0.2803
      9 C         -23.0400   -8.2228  -17.5568 C.2     1  UNL1        0.2495
     10 O         -21.9304   -7.8873  -17.0581 O.2     1  UNL1       -0.2698
     11 H         -24.0097   -9.9188  -18.4269 H       1  UNL1        0.1552
     12 C         -23.9473   -7.1762  -18.0869 C.ar    1  UNL1        0.0537
     13 C         -24.6139   -7.3497  -19.3124 C.ar    1  UNL1        0.0042
     14 C         -25.4796   -6.3647  -19.7959 C.ar    1  UNL1       -0.0028
     15 C         -25.7139   -5.1949  -19.0557 C.ar    1  UNL1       -0.0061
     16 C         -25.0326   -5.0112  -17.8419 C.ar    1  UNL1       -0.0028
     17 C         -24.1681   -5.9956  -17.3565 C.ar    1  UNL1        0.0042
     18 C         -26.6617   -4.1286  -19.5697 C.3     1  UNL1        0.0992
     19 N         -27.2165   -3.2558  -18.5097 N.3     1  UNL1       -0.2665
     20 C         -27.3987   -3.9408  -17.2105 C.3     1  UNL1        0.0899
     21 C         -28.2371   -3.0818  -16.2543 C.3     1  UNL1        0.0897
     22 N         -29.5904   -2.7945  -16.7958 N.3     1  UNL1       -0.2691
     23 C         -30.6096   -3.6557  -16.1763 C.3     1  UNL1        0.0897
     24 C         -29.6756   -2.8793  -18.2731 C.3     1  UNL1        0.0897
     25 C         -28.3677   -2.4241  -18.9341 C.3     1  UNL1        0.0899
     26 N         -21.5329  -11.0786  -13.3031 N.pl3   1  UNL1       -0.2827
     27 H         -20.9750  -11.7808  -12.7670 H       1  UNL1        0.1551
     28 C         -21.8519   -9.8435  -12.6470 C.ar    1  UNL1        0.2207
     29 N         -20.8867   -8.9175  -12.3967 N.ar    1  UNL1       -0.2120
     30 C         -21.1794   -7.7563  -11.7582 C.ar    1  UNL1        0.1034
     31 C         -22.4839   -7.5019  -11.3389 C.ar    1  UNL1        0.0400
     32 C         -23.4697   -8.4676  -11.5853 C.ar    1  UNL1        0.0869
     33 N         -23.1267   -9.6130  -12.2351 N.ar    1  UNL1       -0.2135
     34 C         -24.8760   -8.2472  -11.1676 C.ar    1  UNL1        0.0338
     35 C         -25.7119   -7.4432  -11.9620 C.ar    1  UNL1        0.0043
     36 C         -27.0485   -7.2540  -11.6153 C.ar    1  UNL1        0.0207
     37 C         -27.5511   -7.8722  -10.4738 C.ar    1  UNL1        0.0985
     38 N         -26.7385   -8.6404   -9.7038 N.ar    1  UNL1       -0.2456
     39 CA        -25.4226   -8.8390  -10.0000 C.ar    1  UNL1        0.0899
     40 C         -24.5952   -9.6988   -9.0753 C.3     1  UNL1        0.1829
     41 O         -24.0443   -8.9368   -8.0343 O.3     1  UNL1       -0.3760
     42 H         -23.2927   -8.4204   -8.4278 H       1  UNL1        0.2110
@<TRIPOS>BOND
     1     1     2    1
     2     2     3   ar
     3     3     4   ar
     4     4     5   ar
     5     5     8    1
     6     8     9   am
     7     9    10    2
     8     9    12    1
     9    12    13   ar
    10    13    14   ar
    11    14    15   ar
    12    15    18    1
    13    18    19    1
    14    19    20    1
    15    20    21    1
    16    21    22    1
    17    22    23    1
    18    22    24    1
    19    24    25    1
    20    15    16   ar
    21    16    17   ar
    22     5     6   ar
    23     6     7   ar
    24     7    26    1
    25    26    28    1
    26    28    29   ar
    27    29    30   ar
    28    30    31   ar
    29    31    32   ar
    30    32    34    1
    31    34    35   ar
    32    35    36   ar
    33    36    37   ar
    34    37    38   ar
    35    38    39   ar
    36    39    40    1
    37    40    41    1
    38    32    33   ar
    39     7     2   ar
    40    33    28   ar
    41    17    12   ar
    42    39    34   ar
    43    25    19    1
    44     8    11    1
    45    26    27    1
    46    41    42    1
@<TRIPOS>MOLECULE
*****
 42 46 0 0 0
SMALL
GASTEIGER

@<TRIPOS>ATOM
      1 C         -19.0721   -9.7914   -9.6391 C.3     1  UNL1        0.0323
      2 C         -20.2924   -9.1170  -10.2046 C.ar    1  UNL1       -0.0083
      3 C         -20.3266   -7.7165  -10.2980 C.ar    1  UNL1       -0.0018
      4 C         -21.4472   -7.0666  -10.8177 C.ar    1  UNL1        0.0144
      5 C         -22.5548   -7.8016  -11.2563 C.ar    1  UNL1        0.0518
      6 C         -22.5105   -9.2044  -11.2019 C.ar    1  UNL1        0.0290
      7 C         -21.3963   -9.8712  -10.6622 C.ar    1  UNL1        0.0477
      8 N         -23.6879   -7.1114  -11.8113 N.am    1  UNL1       -0.2803
      9 C         -25.0517   -7.4653  -11.5251 C.2     1  UNL1        0.2495
     10 O         -25.3228   -8.1032  -10.4706 O.2     1  UNL1       -0.2698
     11 H         -23.5103   -6.2390  -12.3585 H       1  UNL1        0.1552
     12 C         -26.1515   -7.0519  -12.4301 C.ar    1  UNL1        0.0537
     13 C         -26.1916   -5.7565  -12.9751 C.ar    1  UNL1        0.0042
     14 C         -27.2235   -5.3814  -13.8400 C.ar    1  UNL1       -0.0028
     15 C         -28.2254   -6.2984  -14.1954 C.ar    1  UNL1       -0.0061
     16 C         -28.1979   -7.5856  -13.6352 C.ar    1  UNL1       -0.0028
     17 C         -27.1663   -7.9626  -12.7717 C.ar    1  UNL1        0.0042
     18 C         -29.3404   -5.9004  -15.1430 C.3     1  UNL1        0.0992
     19 N         -29.6147   -4.4453  -15.1712 N.3     1  UNL1       -0.2665
     20 C         -31.0463   -4.1070  -15.0090 C.3     1  UNL1        0.0899
     21 C         -31.2977   -2.6293  -15.3378 C.3     1  UNL1        0.0897
     22 N         -30.9193   -2.2910  -16.7341 N.3     1  UNL1       -0.2691
     23 C         -32.1021   -2.2075  -17.6048 C.3     1  UNL1        0.0897
     24 C         -29.9131   -3.2073  -17.3213 C.3     1  UNL1        0.0897
     25 C         -28.9269   -3.7081  -16.2577 C.3     1  UNL1        0.0899
     26 N         -21.3614  -11.3098  -10.6344 N.pl3   1  UNL1       -0.2827
     27 H         -21.5854  -11.8012   -9.7399 H       1  UNL1        0.1551
     28 C         -21.0995  -12.1196  -11.7890 C.ar    1  UNL1        0.2207
     29 N         -20.1331  -13.0773  -11.7642 N.ar    1  UNL1       -0.2120
     30 C         -19.8676  -13.8324  -12.8602 C.ar    1  UNL1        0.1034
     31 C         -20.5831  -13.6258  -14.0381 C.ar    1  UNL1        0.0400
     32 C         -21.5657  -12.6263  -14.0614 C.ar    1  UNL1        0.0869
     33 N         -21.7987  -11.9005  -12.9341 N.ar    1  UNL1       -0.2135
     34 C         -22.3627  -12.3673  -15.2855 C.ar    1  UNL1        0.0338
     35 C         -21.9770  -11.3286  -16.1508 C.ar    1  UNL1        0.0043
     36 C         -22.6829  -11.0909  -17.3287 C.ar    1  UNL1        0.0207
     37 C         -23.7748  -11.8949  -17.6436 C.ar    1  UNL1        0.0985
     38 N         -24.1503  -12.8910  -16.8010 N.ar    1  UNL1       -0.2456
     39 CA        -23.4956  -13.1471  -15.6327 C.ar    1  UNL1        0.0899
     40 C         -23.9963  -14.2679  -14.7541 C.3     1  UNL1        0.1829
     41 O         -23.3560  -15.4772  -15.0631 O.3     1  UNL1       -0.3760
     42 H         -23.7543  -15.8000  -15.9136 H       1  UNL1        0.2110
@<TRIPOS>BOND
     1     1     2    1
     2     2     3   ar
     3     3     4   ar
     4     4     5   ar
     5     5     8    1
     6     8     9   am
     7     9    10    2
     8     9    12    1
     9    12    13   ar
    10    13    14   ar
    11    14    15   ar
    12    15    18    1
    13    18    19    1
    14    19    20    1
    15    20    21    1
    16    21    22    1
    17    22    23    1
    18    22    24    1
    19    24    25    1
    20    15    16   ar
    21    16    17   ar
    22     5     6   ar
    23     6     7   ar
    24     7    26    1
    25    26    28    1
    26    28    29   ar
    27    29    30   ar
    28    30    31   ar
    29    31    32   ar
    30    32    34    1
    31    34    35   ar
    32    35    36   ar
    33    36    37   ar
    34    37    38   ar
    35    38    39   ar
    36    39    40    1
    37    40    41    1
    38    32    33   ar
    39     7     2   ar
    40    33    28   ar
    41    17    12   ar
    42    39    34   ar
    43    25    19    1
    44     8    11    1
    45    26    27    1
    46    41    42    1
@<TRIPOS>MOLECULE
*****
 42 46 0 0 0
SMALL
GASTEIGER

@<TRIPOS>ATOM
      1 C         -22.3108  -10.0081   -9.9539 C.3     1  UNL1        0.0323
      2 C         -23.3891   -9.1844  -10.6040 C.ar    1  UNL1       -0.0083
      3 C         -24.5744   -8.9189   -9.8999 C.ar    1  UNL1       -0.0018
      4 C         -25.5903   -8.1584  -10.4810 C.ar    1  UNL1        0.0144
      5 C         -25.4427   -7.6463  -11.7753 C.ar    1  UNL1        0.0518
      6 C         -24.2432   -7.8754  -12.4692 C.ar    1  UNL1        0.0290
      7 C         -23.2198   -8.6565  -11.9038 C.ar    1  UNL1        0.0477
      8 N         -26.4925   -6.8443  -12.3435 N.am    1  UNL1       -0.2803
      9 C         -27.2847   -7.2559  -13.4706 C.2     1  UNL1        0.2495
     10 O         -27.3891   -8.4831  -13.7453 O.2     1  UNL1       -0.2698
     11 H         -26.7681   -5.9705  -11.8412 H       1  UNL1        0.1552
     12 C         -28.0184   -6.2606  -14.2895 C.ar    1  UNL1        0.0537
     13 C         -29.3991   -6.3903  -14.5203 C.ar    1  UNL1        0.0042
     14 C         -30.0849   -5.4384  -15.2799 C.ar    1  UNL1       -0.0028
     15 C         -29.4103   -4.3259  -15.8076 C.ar    1  UNL1       -0.0061
     16 C         -28.0275   -4.2065  -15.5956 C.ar    1  UNL1       -0.0028
     17 C         -27.3409   -5.1564  -14.8351 C.ar    1  UNL1        0.0042
     18 C         -30.1519   -3.2837  -16.6221 C.3     1  UNL1        0.0992
     19 N         -31.1848   -2.5469  -15.8581 N.3     1  UNL1       -0.2665
     20 C         -31.0037   -2.6194  -14.3911 C.3     1  UNL1        0.0899
     21 C         -32.2483   -2.0956  -13.6618 C.3     1  UNL1        0.0897
     22 N         -33.4669   -2.8771  -13.9957 N.3     1  UNL1       -0.2691
     23 C         -33.8059   -3.8257  -12.9235 C.3     1  UNL1        0.0897
     24 C         -33.3899   -3.5805  -15.2980 C.3     1  UNL1        0.0897
     25 C         -32.5747   -2.7759  -16.3192 C.3     1  UNL1        0.0899
     26 N         -21.9899   -8.8624  -12.6225 N.pl3   1  UNL1       -0.2827
     27 H         -21.0907   -8.5778  -12.1728 H       1  UNL1        0.1551
     28 C         -21.9176   -9.5017  -13.9045 C.ar    1  UNL1        0.2207
     29 N         -21.3118   -8.8874  -14.9569 N.ar    1  UNL1       -0.2120
     30 C         -21.2585   -9.4792  -16.1769 C.ar    1  UNL1        0.1034
     31 C         -21.8386  -10.7317  -16.3693 C.ar    1  UNL1        0.0400
     32 C         -22.4754  -11.3513  -15.2850 C.ar    1  UNL1        0.0869
     33 N         -22.4961  -10.7193  -14.0800 N.ar    1  UNL1       -0.2135
     34 C         -23.1038  -12.6873  -15.4302 C.ar    1  UNL1        0.0338
     35 C         -22.2869  -13.8143  -15.6270 C.ar    1  UNL1        0.0043
     36 C         -22.8482  -15.0862  -15.7242 C.ar    1  UNL1        0.0207
     37 C         -24.2288  -15.2320  -15.6216 C.ar    1  UNL1        0.0985
     38 N         -25.0155  -14.1404  -15.4410 N.ar    1  UNL1       -0.2456
     39 CA        -24.5075  -12.8781  -15.3551 C.ar    1  UNL1        0.0899
     40 C         -25.4637  -11.7251  -15.1679 C.3     1  UNL1        0.1829
     41 O         -25.3020  -11.1340  -13.9060 O.3     1  UNL1       -0.3760
     42 H         -25.7208  -11.7494  -13.2487 H       1  UNL1        0.2110
@<TRIPOS>BOND
     1     1     2    1
     2     2     3   ar
     3     3     4   ar
     4     4     5   ar
     5     5     8    1
     6     8     9   am
     7     9    10    2
     8     9    12    1
     9    12    13   ar
    10    13    14   ar
    11    14    15   ar
    12    15    18    1
    13    18    19    1
    14    19    20    1
    15    20    21    1
    16    21    22    1
    17    22    23    1
    18    22    24    1
    19    24    25    1
    20    15    16   ar
    21    16    17   ar
    22     5     6   ar
    23     6     7   ar
    24     7    26    1
    25    26    28    1
    26    28    29   ar
    27    29    30   ar
    28    30    31   ar
    29    31    32   ar
    30    32    34    1
    31    34    35   ar
    32    35    36   ar
    33    36    37   ar
    34    37    38   ar
    35    38    39   ar
    36    39    40    1
    37    40    41    1
    38    32    33   ar
    39     7     2   ar
    40    33    28   ar
    41    17    12   ar
    42    39    34   ar
    43    25    19    1
    44     8    11    1
    45    26    27    1
    46    41    42    1
