@<TRIPOS>MOLECULE
*****
 31 34 0 0 0
SMALL
GASTEIGER

@<TRIPOS>ATOM
      1 C          49.0213   16.6281  -25.5054 C.ar    1  UNL1       -0.0145
      2 C          47.9791   17.5815  -25.6774 C.ar    1  UNL1        0.0307
      3 BR         48.2896   19.4765  -25.6130 Br      1  UNL1       -0.0493
      4 C          46.6575   17.1629  -25.9199 C.ar    1  UNL1        0.0079
      5 C          46.3375   15.8053  -26.0055 C.ar    1  UNL1        0.0177
      6 C          47.3624   14.8691  -25.8651 C.ar    1  UNL1        0.0597
      7 C          48.6774   15.2603  -25.6475 C.ar    1  UNL1        0.0137
      8 C          49.4129   14.0728  -25.6233 C.ar    1  UNL1        0.0174
      9 C          50.7845   13.8039  -25.5065 C.ar    1  UNL1        0.0082
     10 C          51.2124   12.4667  -25.5488 C.ar    1  UNL1        0.0347
     11 BR         53.0720   12.0604  -25.3917 Br      1  UNL1       -0.0490
     12 C          50.2830   11.4250  -25.7237 C.ar    1  UNL1        0.0082
     13 C          48.9169   11.7069  -25.8631 C.ar    1  UNL1        0.0177
     14 C          48.5017   13.0430  -25.8050 C.ar    1  UNL1        0.0600
     15 N          47.2420   13.5210  -25.9455 N.ar    1  UNL1       -0.3243
     16 C          51.1158   17.6375  -26.4356 C.3     1  UNL1        0.0050
     17 C          50.4271   17.0821  -25.1915 C.3     1  UNL1        0.0269
     18 C          45.9968   12.7563  -26.1130 C.3     1  UNL1        0.1429
     19 C          45.1131   12.8356  -24.8558 C.3     1  UNL1        0.2027
     20 F          43.9269   12.1666  -25.0975 F       1  UNL1       -0.2334
     21 C          45.7970   12.2758  -23.5958 C.3     1  UNL1        0.1259
     22 N          46.4640   13.3251  -22.8208 N.pl3   1  UNL1       -0.3157
     23 H          45.8702   14.1015  -22.4538 H       1  UNL1        0.1483
     24 C          47.8596   13.3446  -22.4731 C.ar    1  UNL1        0.1317
     25 C          48.5482   14.5394  -22.1931 C.ar    1  UNL1        0.0343
     26 C          49.9063   14.4900  -21.8739 C.ar    1  UNL1        0.0077
     27 C          50.5713   13.2645  -21.8417 C.ar    1  UNL1        0.0578
     28 C          49.8666   12.0955  -22.1343 C.ar    1  UNL1        0.2261
     29 N          48.5411   12.1658  -22.4424 N.ar    1  UNL1       -0.1969
     30 O          50.5317   10.8663  -22.1076 O.3     1  UNL1       -0.4561
     31 C          49.8747    9.6308  -22.3639 C.3     1  UNL1        0.2542
@<TRIPOS>BOND
     1    16    17    1
     2    17     1    1
     3     1     2   ar
     4     2     3    1
     5     2     4   ar
     6     4     5   ar
     7     5     6   ar
     8     6     7   ar
     9     7     8   ar
    10     8     9   ar
    11     9    10   ar
    12    10    11    1
    13    10    12   ar
    14    12    13   ar
    15    13    14   ar
    16    14    15   ar
    17    15    18    1
    18    18    19    1
    19    19    20    1
    20    19    21    1
    21    21    22    1
    22    22    24    1
    23    24    25   ar
    24    25    26   ar
    25    26    27   ar
    26    27    28   ar
    27    28    30    1
    28    30    31    1
    29    28    29   ar
    30     7     1   ar
    31    14     8   ar
    32    29    24   ar
    33    15     6   ar
    34    22    23    1
@<TRIPOS>MOLECULE
*****
 31 34 0 0 0
SMALL
GASTEIGER

@<TRIPOS>ATOM
      1 C          49.4625   16.5056  -26.4842 C.ar    1  UNL1       -0.0145
      2 C          48.5033   17.4350  -26.9749 C.ar    1  UNL1        0.0307
      3 BR         48.9552   19.2474  -27.4251 Br      1  UNL1       -0.0493
      4 C          47.1634   17.0490  -27.1657 C.ar    1  UNL1        0.0079
      5 C          46.7440   15.7456  -26.8866 C.ar    1  UNL1        0.0177
      6 C          47.6883   14.8247  -26.4319 C.ar    1  UNL1        0.0597
      7 C          49.0205   15.1779  -26.2577 C.ar    1  UNL1        0.0137
      8 C          49.6616   14.0019  -25.8608 C.ar    1  UNL1        0.0174
      9 C          51.0034   13.6912  -25.5954 C.ar    1  UNL1        0.0082
     10 C          51.3290   12.3724  -25.2378 C.ar    1  UNL1        0.0347
     11 BR         53.1450   11.9109  -24.8677 Br      1  UNL1       -0.0490
     12 C          50.3298   11.3845  -25.1673 C.ar    1  UNL1        0.0082
     13 C          48.9954   11.7009  -25.4575 C.ar    1  UNL1        0.0177
     14 C          48.6816   13.0223  -25.7990 C.ar    1  UNL1        0.0600
     15 N          47.4683   13.5193  -26.1391 N.ar    1  UNL1       -0.3243
     16 C          50.9705   17.8647  -25.0180 C.3     1  UNL1        0.0050
     17 C          50.8863   16.9404  -26.2301 C.3     1  UNL1        0.0269
     18 C          46.1752   12.8185  -26.1569 C.3     1  UNL1        0.1429
     19 C          45.4214   12.9925  -24.8267 C.3     1  UNL1        0.2027
     20 F          44.0683   12.8122  -25.0503 F       1  UNL1       -0.2334
     21 C          45.9130   12.0422  -23.7205 C.3     1  UNL1        0.1259
     22 N          46.4094   12.7714  -22.5507 N.pl3   1  UNL1       -0.3157
     23 H          45.9841   12.5406  -21.6255 H       1  UNL1        0.1483
     24 C          47.4753   13.7371  -22.5613 C.ar    1  UNL1        0.1317
     25 C          48.7759   13.4263  -22.1233 C.ar    1  UNL1        0.0343
     26 C          49.7626   14.4136  -22.1480 C.ar    1  UNL1        0.0077
     27 C          49.4538   15.6974  -22.5971 C.ar    1  UNL1        0.0578
     28 C          48.1526   15.9816  -23.0158 C.ar    1  UNL1        0.2261
     29 N          47.2049   15.0030  -22.9846 N.ar    1  UNL1       -0.1969
     30 O          47.8391   17.2687  -23.4617 O.3     1  UNL1       -0.4561
     31 C          46.5208   17.8010  -23.4087 C.3     1  UNL1        0.2542
@<TRIPOS>BOND
     1    16    17    1
     2    17     1    1
     3     1     2   ar
     4     2     3    1
     5     2     4   ar
     6     4     5   ar
     7     5     6   ar
     8     6     7   ar
     9     7     8   ar
    10     8     9   ar
    11     9    10   ar
    12    10    11    1
    13    10    12   ar
    14    12    13   ar
    15    13    14   ar
    16    14    15   ar
    17    15    18    1
    18    18    19    1
    19    19    20    1
    20    19    21    1
    21    21    22    1
    22    22    24    1
    23    24    25   ar
    24    25    26   ar
    25    26    27   ar
    26    27    28   ar
    27    28    30    1
    28    30    31    1
    29    28    29   ar
    30     7     1   ar
    31    14     8   ar
    32    29    24   ar
    33    15     6   ar
    34    22    23    1
@<TRIPOS>MOLECULE
*****
 31 34 0 0 0
SMALL
GASTEIGER

@<TRIPOS>ATOM
      1 C          49.2266   16.2878  -25.2163 C.ar    1  UNL1       -0.0145
      2 C          48.2698   17.2111  -24.7093 C.ar    1  UNL1        0.0307
      3 BR         47.7830   18.8158  -25.6472 Br      1  UNL1       -0.0493
      4 C          47.6214   16.9709  -23.4837 C.ar    1  UNL1        0.0079
      5 C          47.8935   15.8198  -22.7397 C.ar    1  UNL1        0.0177
      6 C          48.8105   14.8992  -23.2480 C.ar    1  UNL1        0.0597
      7 C          49.4456   15.1052  -24.4662 C.ar    1  UNL1        0.0137
      8 C          50.2263   13.9646  -24.6688 C.ar    1  UNL1        0.0174
      9 C          51.0421   13.5446  -25.7297 C.ar    1  UNL1        0.0082
     10 C          51.6826   12.2983  -25.6313 C.ar    1  UNL1        0.0347
     11 BR         52.8025   11.6925  -27.0549 Br      1  UNL1       -0.0490
     12 C          51.4913   11.4848  -24.4995 C.ar    1  UNL1        0.0082
     13 C          50.6551   11.9041  -23.4556 C.ar    1  UNL1        0.0177
     14 C          50.0336   13.1548  -23.5593 C.ar    1  UNL1        0.0600
     15 N          49.1744   13.7232  -22.6798 N.ar    1  UNL1       -0.3243
     16 C          51.0978   17.5688  -26.2788 C.3     1  UNL1        0.0050
     17 C          49.9589   16.5776  -26.5050 C.3     1  UNL1        0.0269
     18 C          48.7460   13.2077  -21.3706 C.3     1  UNL1        0.1429
     19 C          47.7902   12.0112  -21.5211 C.3     1  UNL1        0.2027
     20 F          47.9335   11.1810  -20.4240 F       1  UNL1       -0.2334
     21 C          46.3180   12.4267  -21.6899 C.3     1  UNL1        0.1259
     22 N          45.7777   12.0183  -22.9891 N.pl3   1  UNL1       -0.3157
     23 H          44.9909   11.3320  -22.9873 H       1  UNL1        0.1483
     24 C          46.2014   12.5286  -24.2654 C.ar    1  UNL1        0.1317
     25 C          47.0811   11.8196  -25.1043 C.ar    1  UNL1        0.0343
     26 C          47.4630   12.3770  -26.3259 C.ar    1  UNL1        0.0077
     27 C          46.9793   13.6296  -26.7029 C.ar    1  UNL1        0.0578
     28 C          46.1164   14.3162  -25.8467 C.ar    1  UNL1        0.2261
     29 N          45.7553   13.7537  -24.6593 N.ar    1  UNL1       -0.1969
     30 O          45.6340   15.5739  -26.2198 O.3     1  UNL1       -0.4561
     31 C          45.6619   16.0407  -27.5634 C.3     1  UNL1        0.2542
@<TRIPOS>BOND
     1    16    17    1
     2    17     1    1
     3     1     2   ar
     4     2     3    1
     5     2     4   ar
     6     4     5   ar
     7     5     6   ar
     8     6     7   ar
     9     7     8   ar
    10     8     9   ar
    11     9    10   ar
    12    10    11    1
    13    10    12   ar
    14    12    13   ar
    15    13    14   ar
    16    14    15   ar
    17    15    18    1
    18    18    19    1
    19    19    20    1
    20    19    21    1
    21    21    22    1
    22    22    24    1
    23    24    25   ar
    24    25    26   ar
    25    26    27   ar
    26    27    28   ar
    27    28    30    1
    28    30    31    1
    29    28    29   ar
    30     7     1   ar
    31    14     8   ar
    32    29    24   ar
    33    15     6   ar
    34    22    23    1
@<TRIPOS>MOLECULE
*****
 31 34 0 0 0
SMALL
GASTEIGER

@<TRIPOS>ATOM
      1 C          47.2654   12.4218  -25.2155 C.ar    1  UNL1       -0.0145
      2 C          46.3133   13.0728  -24.3820 C.ar    1  UNL1        0.0307
      3 BR         44.4199   12.8048  -24.5694 Br      1  UNL1       -0.0493
      4 C          46.7327   13.9441  -23.3596 C.ar    1  UNL1        0.0079
      5 C          48.0902   14.1854  -23.1324 C.ar    1  UNL1        0.0177
      6 C          49.0266   13.5268  -23.9299 C.ar    1  UNL1        0.0597
      7 C          48.6357   12.6454  -24.9300 C.ar    1  UNL1        0.0137
      8 C          49.8264   12.1431  -25.4605 C.ar    1  UNL1        0.0174
      9 C          50.1002   11.1787  -26.4415 C.ar    1  UNL1        0.0082
     10 C          51.4413   10.8748  -26.7281 C.ar    1  UNL1        0.0347
     11 BR         51.8543    9.5680  -28.0583 Br      1  UNL1       -0.0490
     12 C          52.4828   11.5130  -26.0300 C.ar    1  UNL1        0.0082
     13 C          52.1972   12.4582  -25.0350 C.ar    1  UNL1        0.0177
     14 C          50.8565   12.7627  -24.7686 C.ar    1  UNL1        0.0600
     15 N          50.3760   13.6183  -23.8348 N.ar    1  UNL1       -0.3243
     16 C          46.5219   12.3438  -27.6055 C.3     1  UNL1        0.0050
     17 C          46.8077   11.5305  -26.3456 C.3     1  UNL1        0.0269
     18 C          51.1379   14.4925  -22.9301 C.3     1  UNL1        0.1429
     19 C          52.0163   13.6769  -21.9652 C.3     1  UNL1        0.2027
     20 F          53.2672   14.2627  -21.8925 F       1  UNL1       -0.2334
     21 C          51.4072   13.5377  -20.5588 C.3     1  UNL1        0.1259
     22 N          50.9614   12.1689  -20.2864 N.pl3   1  UNL1       -0.3157
     23 H          51.4470   11.6494  -19.5219 H       1  UNL1        0.1483
     24 C          49.8709   11.5011  -20.9449 C.ar    1  UNL1        0.1317
     25 C          48.5316   11.6824  -20.5532 C.ar    1  UNL1        0.0343
     26 C          47.5206   10.9945  -21.2266 C.ar    1  UNL1        0.0077
     27 C          47.8422   10.1304  -22.2731 C.ar    1  UNL1        0.0578
     28 C          49.1801    9.9608  -22.6341 C.ar    1  UNL1        0.2261
     29 N          50.1514   10.6427  -21.9644 N.ar    1  UNL1       -0.1969
     30 O          49.5058    9.0917  -23.6793 O.3     1  UNL1       -0.4561
     31 C          50.8177    8.5753  -23.8695 C.3     1  UNL1        0.2542
@<TRIPOS>BOND
     1    16    17    1
     2    17     1    1
     3     1     2   ar
     4     2     3    1
     5     2     4   ar
     6     4     5   ar
     7     5     6   ar
     8     6     7   ar
     9     7     8   ar
    10     8     9   ar
    11     9    10   ar
    12    10    11    1
    13    10    12   ar
    14    12    13   ar
    15    13    14   ar
    16    14    15   ar
    17    15    18    1
    18    18    19    1
    19    19    20    1
    20    19    21    1
    21    21    22    1
    22    22    24    1
    23    24    25   ar
    24    25    26   ar
    25    26    27   ar
    26    27    28   ar
    27    28    30    1
    28    30    31    1
    29    28    29   ar
    30     7     1   ar
    31    14     8   ar
    32    29    24   ar
    33    15     6   ar
    34    22    23    1
@<TRIPOS>MOLECULE
*****
 31 34 0 0 0
SMALL
GASTEIGER

@<TRIPOS>ATOM
      1 C          47.1544   12.1043  -24.9079 C.ar    1  UNL1       -0.0145
      2 C          46.0505   12.4834  -24.0939 C.ar    1  UNL1        0.0307
      3 BR         44.5792   13.5214  -24.7644 Br      1  UNL1       -0.0493
      4 C          45.9878   12.0922  -22.7436 C.ar    1  UNL1        0.0079
      5 C          47.0005   11.3175  -22.1717 C.ar    1  UNL1        0.0177
      6 C          48.0701   10.9209  -22.9749 C.ar    1  UNL1        0.0597
      7 C          48.1412   11.2768  -24.3158 C.ar    1  UNL1        0.0137
      8 C          49.2969   10.6572  -24.7977 C.ar    1  UNL1        0.0174
      9 C          49.8756   10.5805  -26.0731 C.ar    1  UNL1        0.0082
     10 C          51.0550    9.8339  -26.2312 C.ar    1  UNL1        0.0347
     11 BR         51.8735    9.7070  -27.9521 Br      1  UNL1       -0.0490
     12 C          51.6283    9.1642  -25.1348 C.ar    1  UNL1        0.0082
     13 C          51.0283    9.2283  -23.8695 C.ar    1  UNL1        0.0177
     14 C          49.8608    9.9874  -23.7220 C.ar    1  UNL1        0.0600
     15 N          49.1206   10.1504  -22.5993 N.ar    1  UNL1       -0.3243
     16 C          46.4553   11.6516  -27.2696 C.3     1  UNL1        0.0050
     17 C          47.2426   12.5727  -26.3410 C.3     1  UNL1        0.0269
     18 C          49.4000    9.6401  -21.2484 C.3     1  UNL1        0.1429
     19 C          49.3275   10.7607  -20.1963 C.3     1  UNL1        0.2027
     20 F          49.3453   10.1941  -18.9346 F       1  UNL1       -0.2334
     21 C          50.4563   11.7977  -20.3340 C.3     1  UNL1        0.1259
     22 N          49.9615   13.0858  -20.8265 N.pl3   1  UNL1       -0.3157
     23 H          49.5282   13.7315  -20.1297 H       1  UNL1        0.1483
     24 C          50.0758   13.5602  -22.1795 C.ar    1  UNL1        0.1317
     25 C          49.1902   14.5105  -22.7205 C.ar    1  UNL1        0.0343
     26 C          49.3489   14.9201  -24.0456 C.ar    1  UNL1        0.0077
     27 C          50.3738   14.3827  -24.8240 C.ar    1  UNL1        0.0578
     28 C          51.2316   13.4333  -24.2654 C.ar    1  UNL1        0.2261
     29 N          51.0599   13.0482  -22.9697 N.ar    1  UNL1       -0.1969
     30 O          52.2567   12.8894  -25.0447 O.3     1  UNL1       -0.4561
     31 C          53.3733   12.2110  -24.4817 C.3     1  UNL1        0.2542
@<TRIPOS>BOND
     1    16    17    1
     2    17     1    1
     3     1     2   ar
     4     2     3    1
     5     2     4   ar
     6     4     5   ar
     7     5     6   ar
     8     6     7   ar
     9     7     8   ar
    10     8     9   ar
    11     9    10   ar
    12    10    11    1
    13    10    12   ar
    14    12    13   ar
    15    13    14   ar
    16    14    15   ar
    17    15    18    1
    18    18    19    1
    19    19    20    1
    20    19    21    1
    21    21    22    1
    22    22    24    1
    23    24    25   ar
    24    25    26   ar
    25    26    27   ar
    26    27    28   ar
    27    28    30    1
    28    30    31    1
    29    28    29   ar
    30     7     1   ar
    31    14     8   ar
    32    29    24   ar
    33    15     6   ar
    34    22    23    1
@<TRIPOS>MOLECULE
*****
 31 34 0 0 0
SMALL
GASTEIGER

@<TRIPOS>ATOM
      1 C          46.4800   15.8941  -26.4057 C.ar    1  UNL1       -0.0145
      2 C          46.5941   16.5117  -25.1288 C.ar    1  UNL1        0.0307
      3 BR         46.2831   18.3880  -24.8557 Br      1  UNL1       -0.0493
      4 C          46.9325   15.7527  -23.9931 C.ar    1  UNL1        0.0079
      5 C          47.1564   14.3767  -24.0884 C.ar    1  UNL1        0.0177
      6 C          47.0177   13.7638  -25.3341 C.ar    1  UNL1        0.0597
      7 C          46.6627   14.4897  -26.4641 C.ar    1  UNL1        0.0137
      8 C          46.5615   13.5452  -27.4884 C.ar    1  UNL1        0.0174
      9 C          46.1802   13.6374  -28.8351 C.ar    1  UNL1        0.0082
     10 C          46.1556   12.4645  -29.6076 C.ar    1  UNL1        0.0347
     11 BR         45.6431   12.5498  -31.4454 Br      1  UNL1       -0.0490
     12 C          46.4886   11.2242  -29.0330 C.ar    1  UNL1        0.0082
     13 C          46.8454   11.1402  -27.6800 C.ar    1  UNL1        0.0177
     14 C          46.8798   12.3187  -26.9243 C.ar    1  UNL1        0.0600
     15 N          47.1689   12.4443  -25.6069 N.ar    1  UNL1       -0.3243
     16 C          44.6696   16.7493  -27.9097 C.3     1  UNL1        0.0050
     17 C          46.1700   16.7229  -27.6296 C.3     1  UNL1        0.0269
     18 C          47.5926   11.3939  -24.6686 C.3     1  UNL1        0.1429
     19 C          49.1030   11.4681  -24.3839 C.3     1  UNL1        0.2027
     20 F          49.4484   10.4435  -23.5213 F       1  UNL1       -0.2334
     21 C          49.9652   11.4100  -25.6574 C.3     1  UNL1        0.1259
     22 N          50.9740   12.4721  -25.6865 N.pl3   1  UNL1       -0.3157
     23 H          51.9193   12.2260  -26.0553 H       1  UNL1        0.1483
     24 C          50.7539   13.8411  -25.3042 C.ar    1  UNL1        0.1317
     25 C          50.8964   14.2832  -23.9759 C.ar    1  UNL1        0.0343
     26 C          50.6560   15.6237  -23.6693 C.ar    1  UNL1        0.0077
     27 C          50.2707   16.5110  -24.6740 C.ar    1  UNL1        0.0578
     28 C          50.1261   16.0434  -25.9815 C.ar    1  UNL1        0.2261
     29 N          50.3668   14.7313  -26.2595 N.ar    1  UNL1       -0.1969
     30 O          49.7353   16.9294  -26.9896 O.3     1  UNL1       -0.4561
     31 C          49.7251   18.3408  -26.8115 C.3     1  UNL1        0.2542
@<TRIPOS>BOND
     1    16    17    1
     2    17     1    1
     3     1     2   ar
     4     2     3    1
     5     2     4   ar
     6     4     5   ar
     7     5     6   ar
     8     6     7   ar
     9     7     8   ar
    10     8     9   ar
    11     9    10   ar
    12    10    11    1
    13    10    12   ar
    14    12    13   ar
    15    13    14   ar
    16    14    15   ar
    17    15    18    1
    18    18    19    1
    19    19    20    1
    20    19    21    1
    21    21    22    1
    22    22    24    1
    23    24    25   ar
    24    25    26   ar
    25    26    27   ar
    26    27    28   ar
    27    28    30    1
    28    30    31    1
    29    28    29   ar
    30     7     1   ar
    31    14     8   ar
    32    29    24   ar
    33    15     6   ar
    34    22    23    1
@<TRIPOS>MOLECULE
*****
 31 34 0 0 0
SMALL
GASTEIGER

@<TRIPOS>ATOM
      1 C          49.1352   16.6588  -25.5961 C.ar    1  UNL1       -0.0145
      2 C          48.1442   17.6688  -25.4455 C.ar    1  UNL1        0.0307
      3 BR         48.4305   19.4886  -25.9917 Br      1  UNL1       -0.0493
      4 C          46.8870   17.3627  -24.8921 C.ar    1  UNL1        0.0079
      5 C          46.5779   16.0621  -24.4853 C.ar    1  UNL1        0.0177
      6 C          47.5376   15.0642  -24.6577 C.ar    1  UNL1        0.0597
      7 C          48.7767   15.3394  -25.2222 C.ar    1  UNL1        0.0137
      8 C          49.4300   14.1063  -25.2887 C.ar    1  UNL1        0.0174
      9 C          50.6711   13.7126  -25.8102 C.ar    1  UNL1        0.0082
     10 C          51.0271   12.3554  -25.7440 C.ar    1  UNL1        0.0347
     11 BR         52.7093   11.7809  -26.4423 Br      1  UNL1       -0.0490
     12 C          50.1460   11.4129  -25.1828 C.ar    1  UNL1        0.0082
     13 C          48.8981   11.8139  -24.6859 C.ar    1  UNL1        0.0177
     14 C          48.5611   13.1719  -24.7450 C.ar    1  UNL1        0.0600
     15 N          47.4027   13.7511  -24.3480 N.ar    1  UNL1       -0.3243
     16 C          51.3127   17.8007  -25.1215 C.3     1  UNL1        0.0050
     17 C          50.5010   17.0044  -26.1401 C.3     1  UNL1        0.0269
     18 C          46.2518   13.1154  -23.6887 C.3     1  UNL1        0.1429
     19 C          45.1229   12.8158  -24.6904 C.3     1  UNL1        0.2027
     20 F          44.6574   14.0091  -25.2127 F       1  UNL1       -0.2334
     21 C          45.5515   11.8661  -25.8231 C.3     1  UNL1        0.1259
     22 N          45.9945   12.5961  -27.0137 N.pl3   1  UNL1       -0.3157
     23 H          46.2008   13.6136  -26.9035 H       1  UNL1        0.1483
     24 C          46.2256   12.0153  -28.3091 C.ar    1  UNL1        0.1317
     25 C          46.6645   10.6882  -28.4708 C.ar    1  UNL1        0.0343
     26 C          46.8816   10.1890  -29.7563 C.ar    1  UNL1        0.0077
     27 C          46.6709   11.0061  -30.8668 C.ar    1  UNL1        0.0578
     28 C          46.2459   12.3224  -30.6773 C.ar    1  UNL1        0.2261
     29 N          46.0388   12.7893  -29.4141 N.ar    1  UNL1       -0.1969
     30 O          46.0387   13.1450  -31.7883 O.3     1  UNL1       -0.4561
     31 C          44.9590   12.9551  -32.6950 C.3     1  UNL1        0.2542
@<TRIPOS>BOND
     1    16    17    1
     2    17     1    1
     3     1     2   ar
     4     2     3    1
     5     2     4   ar
     6     4     5   ar
     7     5     6   ar
     8     6     7   ar
     9     7     8   ar
    10     8     9   ar
    11     9    10   ar
    12    10    11    1
    13    10    12   ar
    14    12    13   ar
    15    13    14   ar
    16    14    15   ar
    17    15    18    1
    18    18    19    1
    19    19    20    1
    20    19    21    1
    21    21    22    1
    22    22    24    1
    23    24    25   ar
    24    25    26   ar
    25    26    27   ar
    26    27    28   ar
    27    28    30    1
    28    30    31    1
    29    28    29   ar
    30     7     1   ar
    31    14     8   ar
    32    29    24   ar
    33    15     6   ar
    34    22    23    1
@<TRIPOS>MOLECULE
*****
 31 34 0 0 0
SMALL
GASTEIGER

@<TRIPOS>ATOM
      1 C          49.2330   16.6546  -25.4388 C.ar    1  UNL1       -0.0145
      2 C          48.2781   17.6454  -25.0761 C.ar    1  UNL1        0.0307
      3 BR         48.1780   19.3541  -25.9491 Br      1  UNL1       -0.0493
      4 C          47.3437   17.3999  -24.0529 C.ar    1  UNL1        0.0079
      5 C          47.3245   16.1783  -23.3746 C.ar    1  UNL1        0.0177
      6 C          48.2414   15.1948  -23.7472 C.ar    1  UNL1        0.0597
      7 C          49.1578   15.4075  -24.7694 C.ar    1  UNL1        0.0137
      8 C          49.8510   14.2011  -24.8956 C.ar    1  UNL1        0.0174
      9 C          50.8458   13.7622  -25.7816 C.ar    1  UNL1        0.0082
     10 C          51.3234   12.4472  -25.6566 C.ar    1  UNL1        0.0347
     11 BR         52.6787   11.8134  -26.8437 Br      1  UNL1       -0.0490
     12 C          50.7982   11.5873  -24.6746 C.ar    1  UNL1        0.0082
     13 C          49.7874   12.0291  -23.8096 C.ar    1  UNL1        0.0177
     14 C          49.3299   13.3467  -23.9353 C.ar    1  UNL1        0.0600
     15 N          48.3492   13.9497  -23.2215 N.ar    1  UNL1       -0.3243
     16 C          51.3804   17.8355  -25.9540 C.3     1  UNL1        0.0050
     17 C          50.2679   16.9440  -26.5000 C.3     1  UNL1        0.0269
     18 C          47.5821   13.4006  -22.0931 C.3     1  UNL1        0.1429
     19 C          46.7231   12.1999  -22.5266 C.3     1  UNL1        0.2027
     20 F          46.0145   11.7363  -21.4328 F       1  UNL1       -0.2334
     21 C          45.7656   12.5247  -23.6869 C.3     1  UNL1        0.1259
     22 N          46.2274   11.9557  -24.9556 N.pl3   1  UNL1       -0.3157
     23 H          46.5587   10.9656  -24.9450 H       1  UNL1        0.1483
     24 C          46.2074   12.6283  -26.2268 C.ar    1  UNL1        0.1317
     25 C          46.0717   14.0247  -26.3367 C.ar    1  UNL1        0.0343
     26 C          46.0473   14.6143  -27.6018 C.ar    1  UNL1        0.0077
     27 C          46.1494   13.8201  -28.7438 C.ar    1  UNL1        0.0578
     28 C          46.2721   12.4362  -28.6063 C.ar    1  UNL1        0.2261
     29 N          46.2950   11.8811  -27.3621 N.ar    1  UNL1       -0.1969
     30 O          46.3696   11.6373  -29.7492 O.3     1  UNL1       -0.4561
     31 C          46.7292   10.2618  -29.6975 C.3     1  UNL1        0.2542
@<TRIPOS>BOND
     1    16    17    1
     2    17     1    1
     3     1     2   ar
     4     2     3    1
     5     2     4   ar
     6     4     5   ar
     7     5     6   ar
     8     6     7   ar
     9     7     8   ar
    10     8     9   ar
    11     9    10   ar
    12    10    11    1
    13    10    12   ar
    14    12    13   ar
    15    13    14   ar
    16    14    15   ar
    17    15    18    1
    18    18    19    1
    19    19    20    1
    20    19    21    1
    21    21    22    1
    22    22    24    1
    23    24    25   ar
    24    25    26   ar
    25    26    27   ar
    26    27    28   ar
    27    28    30    1
    28    30    31    1
    29    28    29   ar
    30     7     1   ar
    31    14     8   ar
    32    29    24   ar
    33    15     6   ar
    34    22    23    1
@<TRIPOS>MOLECULE
*****
 31 34 0 0 0
SMALL
GASTEIGER

@<TRIPOS>ATOM
      1 C          47.1889   12.1585  -24.9345 C.ar    1  UNL1       -0.0145
      2 C          46.0549   12.4817  -24.1378 C.ar    1  UNL1        0.0307
      3 BR         44.5563   13.4691  -24.8239 Br      1  UNL1       -0.0493
      4 C          45.9818   12.0695  -22.7942 C.ar    1  UNL1        0.0079
      5 C          47.0135   11.3281  -22.2124 C.ar    1  UNL1        0.0177
      6 C          48.1137   10.9859  -22.9992 C.ar    1  UNL1        0.0597
      7 C          48.1965   11.3630  -24.3336 C.ar    1  UNL1        0.0137
      8 C          49.3854   10.7969  -24.8003 C.ar    1  UNL1        0.0174
      9 C          49.9915   10.7613  -26.0648 C.ar    1  UNL1        0.0082
     10 C          51.2029   10.0649  -26.2090 C.ar    1  UNL1        0.0347
     11 BR         52.0593    9.9949  -27.9147 Br      1  UNL1       -0.0490
     12 C          51.7813    9.4034  -25.1103 C.ar    1  UNL1        0.0082
     13 C          51.1547    9.4259  -23.8565 C.ar    1  UNL1        0.0177
     14 C          49.9548   10.1354  -23.7224 C.ar    1  UNL1        0.0600
     15 N          49.1869   10.2529  -22.6127 N.ar    1  UNL1       -0.3243
     16 C          46.5886   11.6905  -27.3202 C.3     1  UNL1        0.0050
     17 C          47.2861   12.6500  -26.3592 C.3     1  UNL1        0.0269
     18 C          49.4603    9.7355  -21.2633 C.3     1  UNL1        0.1429
     19 C          49.1915   10.8007  -20.1859 C.3     1  UNL1        0.2027
     20 F          48.5551   10.2035  -19.1128 F       1  UNL1       -0.2334
     21 C          50.4652   11.5264  -19.7174 C.3     1  UNL1        0.1259
     22 N          50.4379   12.9531  -20.0493 N.pl3   1  UNL1       -0.3157
     23 H          50.6508   13.6284  -19.2819 H       1  UNL1        0.1483
     24 C          50.2001   13.4998  -21.3582 C.ar    1  UNL1        0.1317
     25 C          51.1390   13.3906  -22.4008 C.ar    1  UNL1        0.0343
     26 C          50.8513   13.9543  -23.6451 C.ar    1  UNL1        0.0077
     27 C          49.6451   14.6254  -23.8450 C.ar    1  UNL1        0.0578
     28 C          48.7363   14.7284  -22.7903 C.ar    1  UNL1        0.2261
     29 N          49.0362   14.1700  -21.5841 N.ar    1  UNL1       -0.1969
     30 O          47.5287   15.4047  -22.9863 O.3     1  UNL1       -0.4561
     31 C          47.2897   16.2409  -24.1122 C.3     1  UNL1        0.2542
@<TRIPOS>BOND
     1    16    17    1
     2    17     1    1
     3     1     2   ar
     4     2     3    1
     5     2     4   ar
     6     4     5   ar
     7     5     6   ar
     8     6     7   ar
     9     7     8   ar
    10     8     9   ar
    11     9    10   ar
    12    10    11    1
    13    10    12   ar
    14    12    13   ar
    15    13    14   ar
    16    14    15   ar
    17    15    18    1
    18    18    19    1
    19    19    20    1
    20    19    21    1
    21    21    22    1
    22    22    24    1
    23    24    25   ar
    24    25    26   ar
    25    26    27   ar
    26    27    28   ar
    27    28    30    1
    28    30    31    1
    29    28    29   ar
    30     7     1   ar
    31    14     8   ar
    32    29    24   ar
    33    15     6   ar
    34    22    23    1
