@<TRIPOS>MOLECULE
*****
 34 37 0 0 0
SMALL
GASTEIGER

@<TRIPOS>ATOM
      1 N         -25.0367   -8.4470  -12.6005 N.am    1  UNL1       -0.2698
      2 C         -26.3691   -7.9324  -12.3618 C.2     1  UNL1        0.2510
      3 O         -26.9879   -8.2626  -11.3144 O.2     1  UNL1       -0.2698
      4 C         -27.0254   -6.9981  -13.3066 C.ar    1  UNL1        0.0727
      5 C         -28.3839   -7.1552  -13.6298 C.ar    1  UNL1        0.1033
      6 N         -28.9898   -6.3022  -14.4979 N.ar    1  UNL1       -0.2437
      7 C         -28.3143   -5.2817  -15.0888 C.ar    1  UNL1        0.0813
      8 C         -28.9722   -4.4231  -15.9771 C.ar    1  UNL1        0.0191
      9 C         -28.2716   -3.3775  -16.5870 C.ar    1  UNL1        0.0015
     10 C         -26.9131   -3.1870  -16.3129 C.ar    1  UNL1        0.0001
     11 C         -26.2475   -4.0405  -15.4268 C.ar    1  UNL1        0.0015
     12 C         -26.9441   -5.0904  -14.8093 C.ar    1  UNL1        0.0178
     13 C         -26.3059   -5.9612  -13.9186 C.ar    1  UNL1        0.0076
     14 C         -23.6299   -9.7605  -11.0192 C.3     1  UNL1        0.0264
     15 C         -24.6771   -9.8113  -12.1440 C.3     1  UNL1        0.0985
     16 C         -24.3039  -10.7106  -13.3150 C.ar    1  UNL1       -0.0034
     17 C         -25.2509  -10.9217  -14.3346 C.ar    1  UNL1       -0.0026
     18 C         -24.9438  -11.7202  -15.4391 C.ar    1  UNL1        0.0006
     19 C         -23.6873  -12.3182  -15.5436 C.ar    1  UNL1        0.0114
     20 C         -22.7339  -12.1192  -14.5419 C.ar    1  UNL1        0.0574
     21 CL        -21.1534  -12.8685  -14.6767 Cl      1  UNL1       -0.0823
     22 C         -23.0369  -11.3205  -13.4335 C.ar    1  UNL1        0.0087
     23 C         -23.9681   -7.4613  -12.8658 C.3     1  UNL1        0.1212
     24 C         -23.0986   -7.8119  -14.0618 C.ar    1  UNL1        0.0041
     25 C         -23.6818   -7.9515  -15.3363 C.ar    1  UNL1        0.0043
     26 C         -22.9004   -8.2389  -16.4671 C.ar    1  UNL1        0.0752
     27 C         -21.5114   -8.3678  -16.3201 C.ar    1  UNL1        0.0069
     28 C         -20.9166   -8.2058  -15.0692 C.ar    1  UNL1        0.0066
     29 C         -21.6934   -7.9202  -13.9421 C.ar    1  UNL1        0.0322
     30 BR        -20.7671   -7.6731  -12.2779 Br      1  UNL1       -0.0493
     31 C         -23.5371   -8.4028  -17.7930 C.2     1  UNL1        0.3380
     32 O         -23.9011   -7.3939  -18.4559 O.2     1  UNL1       -0.2451
     33 O         -23.7406   -9.6749  -18.3222 O.3     1  UNL1       -0.4771
     34 H         -24.1755   -9.7981  -19.2287 H       1  UNL1        0.2954
@<TRIPOS>BOND
     1    14    15    1
     2    15    16    1
     3    16    17   ar
     4    17    18   ar
     5    18    19   ar
     6    19    20   ar
     7    20    21    1
     8    20    22   ar
     9    15     1    1
    10     1    23    1
    11    23    24    1
    12    24    25   ar
    13    25    26   ar
    14    26    31    1
    15    31    32    2
    16    31    33    1
    17    26    27   ar
    18    27    28   ar
    19    28    29   ar
    20    29    30    1
    21     1     2   am
    22     2     3    2
    23     2     4    1
    24     4     5   ar
    25     5     6   ar
    26     6     7   ar
    27     7     8   ar
    28     8     9   ar
    29     9    10   ar
    30    10    11   ar
    31    11    12   ar
    32    12    13   ar
    33    22    16   ar
    34    29    24   ar
    35    13     4   ar
    36    12     7   ar
    37    33    34    1
@<TRIPOS>MOLECULE
*****
 34 37 0 0 0
SMALL
GASTEIGER

@<TRIPOS>ATOM
      1 N         -22.9397   -8.3354  -13.2798 N.am    1  UNL1       -0.2698
      2 C         -22.1615   -8.3224  -14.5010 C.2     1  UNL1        0.2510
      3 O         -20.9089   -8.4513  -14.4449 O.2     1  UNL1       -0.2698
      4 C         -22.8002   -8.1880  -15.8316 C.ar    1  UNL1        0.0727
      5 C         -22.7964   -9.2673  -16.7315 C.ar    1  UNL1        0.1033
      6 N         -23.3787   -9.1483  -17.9543 N.ar    1  UNL1       -0.2437
      7 C         -23.9724   -7.9936  -18.3558 C.ar    1  UNL1        0.0813
      8 C         -24.5624   -7.9088  -19.6223 C.ar    1  UNL1        0.0191
      9 C         -25.1674   -6.7167  -20.0332 C.ar    1  UNL1        0.0015
     10 C         -25.1841   -5.6065  -19.1823 C.ar    1  UNL1        0.0001
     11 C         -24.5965   -5.6822  -17.9152 C.ar    1  UNL1        0.0015
     12 C         -23.9895   -6.8753  -17.4948 C.ar    1  UNL1        0.0178
     13 C         -23.3929   -6.9819  -16.2331 C.ar    1  UNL1        0.0076
     14 C         -21.8994   -6.3172  -12.2553 C.3     1  UNL1        0.0264
     15 C         -22.3730   -7.7634  -12.0346 C.3     1  UNL1        0.0985
     16 C         -21.3259   -8.6852  -11.4237 C.ar    1  UNL1       -0.0034
     17 C         -20.3432   -8.1298  -10.5831 C.ar    1  UNL1       -0.0026
     18 C         -19.3771   -8.9407   -9.9823 C.ar    1  UNL1        0.0006
     19 C         -19.3782  -10.3175  -10.2100 C.ar    1  UNL1        0.0114
     20 C         -20.3465  -10.8871  -11.0406 C.ar    1  UNL1        0.0574
     21 CL        -20.3487  -12.6186  -11.3226 Cl      1  UNL1       -0.0823
     22 C         -21.3160  -10.0789  -11.6448 C.ar    1  UNL1        0.0087
     23 C         -24.0527   -9.3041  -13.1968 C.3     1  UNL1        0.1212
     24 C         -25.0539   -8.9897  -12.0979 C.ar    1  UNL1        0.0041
     25 C         -25.0437   -9.7379  -10.9044 C.ar    1  UNL1        0.0043
     26 C         -25.9318   -9.4483   -9.8560 C.ar    1  UNL1        0.0752
     27 C         -26.8289   -8.3795   -9.9990 C.ar    1  UNL1        0.0069
     28 C         -26.8325   -7.6130  -11.1639 C.ar    1  UNL1        0.0066
     29 C         -25.9493   -7.9004  -12.2091 C.ar    1  UNL1        0.0322
     30 BR        -26.0091   -6.7537  -13.7487 Br      1  UNL1       -0.0493
     31 C         -25.9181  -10.2615   -8.6194 C.2     1  UNL1        0.3380
     32 O         -24.9963  -11.0970   -8.4146 O.2     1  UNL1       -0.2451
     33 O         -26.9248  -10.1113   -7.6688 O.3     1  UNL1       -0.4771
     34 H         -26.9248  -10.6629   -6.8191 H       1  UNL1        0.2954
@<TRIPOS>BOND
     1    14    15    1
     2    15    16    1
     3    16    17   ar
     4    17    18   ar
     5    18    19   ar
     6    19    20   ar
     7    20    21    1
     8    20    22   ar
     9    15     1    1
    10     1    23    1
    11    23    24    1
    12    24    25   ar
    13    25    26   ar
    14    26    31    1
    15    31    32    2
    16    31    33    1
    17    26    27   ar
    18    27    28   ar
    19    28    29   ar
    20    29    30    1
    21     1     2   am
    22     2     3    2
    23     2     4    1
    24     4     5   ar
    25     5     6   ar
    26     6     7   ar
    27     7     8   ar
    28     8     9   ar
    29     9    10   ar
    30    10    11   ar
    31    11    12   ar
    32    12    13   ar
    33    22    16   ar
    34    29    24   ar
    35    13     4   ar
    36    12     7   ar
    37    33    34    1
@<TRIPOS>MOLECULE
*****
 34 37 0 0 0
SMALL
GASTEIGER

@<TRIPOS>ATOM
      1 N         -24.9466  -10.6519  -13.2634 N.am    1  UNL1       -0.2698
      2 C         -25.4312   -9.2893  -13.3374 C.2     1  UNL1        0.2510
      3 O         -26.5193   -9.0442  -13.9248 O.2     1  UNL1       -0.2698
      4 C         -24.6946   -8.1644  -12.7141 C.ar    1  UNL1        0.0727
      5 C         -25.3698   -7.2407  -11.8983 C.ar    1  UNL1        0.1033
      6 N         -24.6990   -6.2057  -11.3263 N.ar    1  UNL1       -0.2437
      7 C         -23.3676   -6.0179  -11.5244 C.ar    1  UNL1        0.0813
      8 C         -22.7107   -4.9408  -10.9181 C.ar    1  UNL1        0.0191
      9 C         -21.3416   -4.7485  -11.1293 C.ar    1  UNL1        0.0015
     10 C         -20.6253   -5.6294  -11.9464 C.ar    1  UNL1        0.0001
     11 C         -21.2737   -6.7081  -12.5567 C.ar    1  UNL1        0.0015
     12 C         -22.6467   -6.9090  -12.3480 C.ar    1  UNL1        0.0178
     13 C         -23.3236   -7.9788  -12.9450 C.ar    1  UNL1        0.0076
     14 C         -25.4212  -13.0221  -13.8651 C.3     1  UNL1        0.0264
     15 C         -25.2027  -11.5906  -14.3825 C.3     1  UNL1        0.0985
     16 C         -24.1425  -11.4659  -15.4685 C.ar    1  UNL1       -0.0034
     17 C         -24.1473  -12.3921  -16.5283 C.ar    1  UNL1       -0.0026
     18 C         -23.2080  -12.3019  -17.5587 C.ar    1  UNL1        0.0006
     19 C         -22.2517  -11.2857  -17.5479 C.ar    1  UNL1        0.0114
     20 C         -22.2321  -10.3564  -16.5048 C.ar    1  UNL1        0.0574
     21 CL        -21.0315   -9.0773  -16.4948 Cl      1  UNL1       -0.0823
     22 C         -23.1705  -10.4429  -15.4703 C.ar    1  UNL1        0.0087
     23 C         -24.6284  -11.1852  -11.9225 C.3     1  UNL1        0.1212
     24 C         -23.3777  -10.5803  -11.3068 C.ar    1  UNL1        0.0041
     25 C         -23.4927   -9.6504  -10.2550 C.ar    1  UNL1        0.0043
     26 C         -22.3555   -9.1013   -9.6411 C.ar    1  UNL1        0.0752
     27 C         -21.0847   -9.5066  -10.0749 C.ar    1  UNL1        0.0069
     28 C         -20.9551  -10.4465  -11.0970 C.ar    1  UNL1        0.0066
     29 C         -22.0865  -10.9937  -11.7099 C.ar    1  UNL1        0.0322
     30 BR        -21.7933  -12.3121  -13.0754 Br      1  UNL1       -0.0493
     31 C         -22.5001   -8.1094   -8.5521 C.2     1  UNL1        0.3380
     32 O         -21.6742   -7.1639   -8.4355 O.2     1  UNL1       -0.2451
     33 O         -23.5514   -8.2111   -7.6444 O.3     1  UNL1       -0.4771
     34 H         -23.6595   -7.5375   -6.8955 H       1  UNL1        0.2954
@<TRIPOS>BOND
     1    14    15    1
     2    15    16    1
     3    16    17   ar
     4    17    18   ar
     5    18    19   ar
     6    19    20   ar
     7    20    21    1
     8    20    22   ar
     9    15     1    1
    10     1    23    1
    11    23    24    1
    12    24    25   ar
    13    25    26   ar
    14    26    31    1
    15    31    32    2
    16    31    33    1
    17    26    27   ar
    18    27    28   ar
    19    28    29   ar
    20    29    30    1
    21     1     2   am
    22     2     3    2
    23     2     4    1
    24     4     5   ar
    25     5     6   ar
    26     6     7   ar
    27     7     8   ar
    28     8     9   ar
    29     9    10   ar
    30    10    11   ar
    31    11    12   ar
    32    12    13   ar
    33    22    16   ar
    34    29    24   ar
    35    13     4   ar
    36    12     7   ar
    37    33    34    1
@<TRIPOS>MOLECULE
*****
 34 37 0 0 0
SMALL
GASTEIGER

@<TRIPOS>ATOM
      1 N         -23.7282   -7.4641  -13.2454 N.am    1  UNL1       -0.2698
      2 C         -23.5988   -8.1914  -14.4909 C.2     1  UNL1        0.2510
      3 O         -23.5163   -7.5589  -15.5781 O.2     1  UNL1       -0.2698
      4 C         -23.5321   -9.6715  -14.5265 C.ar    1  UNL1        0.0727
      5 C         -22.3002  -10.3210  -14.7146 C.ar    1  UNL1        0.1033
      6 N         -22.2341  -11.6784  -14.7506 N.ar    1  UNL1       -0.2437
      7 C         -23.3425  -12.4535  -14.6175 C.ar    1  UNL1        0.0813
      8 C         -23.2352  -13.8485  -14.6591 C.ar    1  UNL1        0.0191
      9 C         -24.3794  -14.6419  -14.5272 C.ar    1  UNL1        0.0015
     10 C         -25.6329  -14.0455  -14.3546 C.ar    1  UNL1        0.0001
     11 C         -25.7496  -12.6523  -14.3124 C.ar    1  UNL1        0.0015
     12 C         -24.6060  -11.8495  -14.4418 C.ar    1  UNL1        0.0178
     13 C         -24.6905  -10.4529  -14.4040 C.ar    1  UNL1        0.0076
     14 C         -24.2318   -5.4355  -11.8902 C.3     1  UNL1        0.0264
     15 C         -24.4806   -6.1867  -13.2087 C.3     1  UNL1        0.0985
     16 C         -25.9501   -6.3954  -13.5498 C.ar    1  UNL1       -0.0034
     17 C         -26.5923   -7.5609  -13.0913 C.ar    1  UNL1       -0.0026
     18 C         -27.9451   -7.7828  -13.3605 C.ar    1  UNL1        0.0006
     19 C         -28.6775   -6.8447  -14.0893 C.ar    1  UNL1        0.0114
     20 C         -28.0573   -5.6812  -14.5517 C.ar    1  UNL1        0.0574
     21 CL        -28.9804   -4.5012  -15.4644 Cl      1  UNL1       -0.0823
     22 C         -26.7024   -5.4547  -14.2849 C.ar    1  UNL1        0.0087
     23 C         -22.7468   -7.7632  -12.1818 C.3     1  UNL1        0.1212
     24 C         -23.2855   -8.6784  -11.0950 C.ar    1  UNL1        0.0041
     25 C         -24.6218   -8.5500  -10.6682 C.ar    1  UNL1        0.0043
     26 C         -25.1596   -9.4042   -9.6920 C.ar    1  UNL1        0.0752
     27 C         -24.3511  -10.4148   -9.1514 C.ar    1  UNL1        0.0069
     28 C         -23.0345  -10.5713   -9.5834 C.ar    1  UNL1        0.0066
     29 C         -22.4971   -9.7212  -10.5548 C.ar    1  UNL1        0.0322
     30 BR        -20.6884  -10.0540  -11.1084 Br      1  UNL1       -0.0493
     31 C         -26.5600   -9.2371   -9.2430 C.2     1  UNL1        0.3380
     32 O         -27.3364   -8.4515   -9.8511 O.2     1  UNL1       -0.2451
     33 O         -27.0343   -9.9471   -8.1427 O.3     1  UNL1       -0.4771
     34 H         -27.9909   -9.8401   -7.8272 H       1  UNL1        0.2954
@<TRIPOS>BOND
     1    14    15    1
     2    15    16    1
     3    16    17   ar
     4    17    18   ar
     5    18    19   ar
     6    19    20   ar
     7    20    21    1
     8    20    22   ar
     9    15     1    1
    10     1    23    1
    11    23    24    1
    12    24    25   ar
    13    25    26   ar
    14    26    31    1
    15    31    32    2
    16    31    33    1
    17    26    27   ar
    18    27    28   ar
    19    28    29   ar
    20    29    30    1
    21     1     2   am
    22     2     3    2
    23     2     4    1
    24     4     5   ar
    25     5     6   ar
    26     6     7   ar
    27     7     8   ar
    28     8     9   ar
    29     9    10   ar
    30    10    11   ar
    31    11    12   ar
    32    12    13   ar
    33    22    16   ar
    34    29    24   ar
    35    13     4   ar
    36    12     7   ar
    37    33    34    1
@<TRIPOS>MOLECULE
*****
 34 37 0 0 0
SMALL
GASTEIGER

@<TRIPOS>ATOM
      1 N         -24.0673   -9.2256  -11.8265 N.am    1  UNL1       -0.2698
      2 C         -23.5968   -9.2630  -13.1956 C.2     1  UNL1        0.2510
      3 O         -23.1722   -8.2080  -13.7392 O.2     1  UNL1       -0.2698
      4 C         -23.5728  -10.5214  -13.9781 C.ar    1  UNL1        0.0727
      5 C         -22.5324  -10.7691  -14.8897 C.ar    1  UNL1        0.1033
      6 N         -22.5073  -11.9208  -15.6117 N.ar    1  UNL1       -0.2437
      7 C         -23.4786  -12.8636  -15.4910 C.ar    1  UNL1        0.0813
      8 C         -23.4185  -14.0376  -16.2507 C.ar    1  UNL1        0.0191
      9 C         -24.4233  -15.0026  -16.1270 C.ar    1  UNL1        0.0015
     10 C         -25.4905  -14.7979  -15.2461 C.ar    1  UNL1        0.0001
     11 C         -25.5589  -13.6275  -14.4833 C.ar    1  UNL1        0.0015
     12 C         -24.5535  -12.6557  -14.6002 C.ar    1  UNL1        0.0178
     13 C         -24.5942  -11.4742  -13.8508 C.ar    1  UNL1        0.0076
     14 C         -25.2509   -8.2312   -9.8732 C.3     1  UNL1        0.0264
     15 C         -24.7526   -8.0154  -11.3119 C.3     1  UNL1        0.0985
     16 C         -25.8176   -7.5227  -12.2825 C.ar    1  UNL1       -0.0034
     17 C         -27.0143   -8.2539  -12.4023 C.ar    1  UNL1       -0.0026
     18 C         -28.0284   -7.8263  -13.2629 C.ar    1  UNL1        0.0006
     19 C         -27.8645   -6.6623  -14.0151 C.ar    1  UNL1        0.0114
     20 C         -26.6839   -5.9227  -13.9086 C.ar    1  UNL1        0.0574
     21 CL        -26.4810   -4.4576  -14.8520 Cl      1  UNL1       -0.0823
     22 C         -25.6651   -6.3472  -13.0482 C.ar    1  UNL1        0.0087
     23 C         -23.4588  -10.1791  -10.8755 C.3     1  UNL1        0.1212
     24 C         -22.0130   -9.8602  -10.5334 C.ar    1  UNL1        0.0041
     25 C         -21.7148   -8.7683   -9.6949 C.ar    1  UNL1        0.0043
     26 C         -20.3918   -8.4698   -9.3310 C.ar    1  UNL1        0.0752
     27 C         -19.3551   -9.2909   -9.7986 C.ar    1  UNL1        0.0069
     28 C         -19.6374  -10.3911  -10.6076 C.ar    1  UNL1        0.0066
     29 C         -20.9541  -10.6894  -10.9715 C.ar    1  UNL1        0.0322
     30 BR        -21.2331  -12.2527  -12.0517 Br      1  UNL1       -0.0493
     31 C         -20.0998   -7.3047   -8.4663 C.2     1  UNL1        0.3380
     32 O         -20.9385   -6.3706   -8.3484 O.2     1  UNL1       -0.2451
     33 O         -18.8940   -7.2287   -7.7736 O.3     1  UNL1       -0.4771
     34 H         -18.6842   -6.4357   -7.1792 H       1  UNL1        0.2954
@<TRIPOS>BOND
     1    14    15    1
     2    15    16    1
     3    16    17   ar
     4    17    18   ar
     5    18    19   ar
     6    19    20   ar
     7    20    21    1
     8    20    22   ar
     9    15     1    1
    10     1    23    1
    11    23    24    1
    12    24    25   ar
    13    25    26   ar
    14    26    31    1
    15    31    32    2
    16    31    33    1
    17    26    27   ar
    18    27    28   ar
    19    28    29   ar
    20    29    30    1
    21     1     2   am
    22     2     3    2
    23     2     4    1
    24     4     5   ar
    25     5     6   ar
    26     6     7   ar
    27     7     8   ar
    28     8     9   ar
    29     9    10   ar
    30    10    11   ar
    31    11    12   ar
    32    12    13   ar
    33    22    16   ar
    34    29    24   ar
    35    13     4   ar
    36    12     7   ar
    37    33    34    1
@<TRIPOS>MOLECULE
*****
 34 37 0 0 0
SMALL
GASTEIGER

@<TRIPOS>ATOM
      1 N         -23.5186   -9.2783  -11.6513 N.am    1  UNL1       -0.2698
      2 C         -23.9680  -10.6444  -11.4816 C.2     1  UNL1        0.2510
      3 O         -24.6261  -10.9626  -10.4546 O.2     1  UNL1       -0.2698
      4 C         -23.6996  -11.6862  -12.5009 C.ar    1  UNL1        0.0727
      5 C         -22.3780  -12.0139  -12.8483 C.ar    1  UNL1        0.1033
      6 N         -22.1267  -12.9670  -13.7846 N.ar    1  UNL1       -0.2437
      7 C         -23.1291  -13.6272  -14.4221 C.ar    1  UNL1        0.0813
      8 C         -22.8314  -14.6032  -15.3802 C.ar    1  UNL1        0.0191
      9 C         -23.8664  -15.2761  -16.0375 C.ar    1  UNL1        0.0015
     10 C         -25.2002  -14.9761  -15.7412 C.ar    1  UNL1        0.0001
     11 C         -25.5069  -14.0020  -14.7855 C.ar    1  UNL1        0.0015
     12 C         -24.4741  -13.3240  -14.1202 C.ar    1  UNL1        0.0178
     13 C         -24.7490  -12.3440  -13.1593 C.ar    1  UNL1        0.0076
     14 C         -23.3491   -6.9727  -10.7236 C.3     1  UNL1        0.0264
     15 C         -23.1326   -8.4734  -10.4672 C.3     1  UNL1        0.0985
     16 C         -21.7370   -8.8361   -9.9774 C.ar    1  UNL1       -0.0034
     17 C         -20.9445   -9.6918  -10.7653 C.ar    1  UNL1       -0.0026
     18 C         -19.6496  -10.0328  -10.3668 C.ar    1  UNL1        0.0006
     19 C         -19.1257   -9.5238   -9.1776 C.ar    1  UNL1        0.0114
     20 C         -19.8970   -8.6720   -8.3830 C.ar    1  UNL1        0.0574
     21 CL        -19.2355   -8.0301   -6.8904 Cl      1  UNL1       -0.0823
     22 C         -21.1947   -8.3279   -8.7778 C.ar    1  UNL1        0.0087
     23 C         -23.8888   -8.5952  -12.9083 C.3     1  UNL1        0.1212
     24 C         -23.0195   -8.9841  -14.0924 C.ar    1  UNL1        0.0041
     25 C         -23.5106   -9.8850  -15.0575 C.ar    1  UNL1        0.0043
     26 C         -22.7459  -10.2359  -16.1818 C.ar    1  UNL1        0.0752
     27 C         -21.4787   -9.6586  -16.3506 C.ar    1  UNL1        0.0069
     28 C         -20.9902   -8.7446  -15.4175 C.ar    1  UNL1        0.0066
     29 C         -21.7501   -8.3947  -14.2971 C.ar    1  UNL1        0.0322
     30 BR        -21.0000   -7.0936  -13.0999 Br      1  UNL1       -0.0493
     31 C         -23.2731  -11.2013  -17.1720 C.2     1  UNL1        0.3380
     32 O         -22.5674  -11.5591  -18.1537 O.2     1  UNL1       -0.2451
     33 O         -24.5558  -11.7247  -17.0286 O.3     1  UNL1       -0.4771
     34 H         -24.9262  -12.3860  -17.7007 H       1  UNL1        0.2954
@<TRIPOS>BOND
     1    14    15    1
     2    15    16    1
     3    16    17   ar
     4    17    18   ar
     5    18    19   ar
     6    19    20   ar
     7    20    21    1
     8    20    22   ar
     9    15     1    1
    10     1    23    1
    11    23    24    1
    12    24    25   ar
    13    25    26   ar
    14    26    31    1
    15    31    32    2
    16    31    33    1
    17    26    27   ar
    18    27    28   ar
    19    28    29   ar
    20    29    30    1
    21     1     2   am
    22     2     3    2
    23     2     4    1
    24     4     5   ar
    25     5     6   ar
    26     6     7   ar
    27     7     8   ar
    28     8     9   ar
    29     9    10   ar
    30    10    11   ar
    31    11    12   ar
    32    12    13   ar
    33    22    16   ar
    34    29    24   ar
    35    13     4   ar
    36    12     7   ar
    37    33    34    1
@<TRIPOS>MOLECULE
*****
 34 37 0 0 0
SMALL
GASTEIGER

@<TRIPOS>ATOM
      1 N         -22.7278   -8.4136  -13.2160 N.am    1  UNL1       -0.2698
      2 C         -21.9830   -8.3935  -14.4577 C.2     1  UNL1        0.2510
      3 O         -20.7290   -8.5200  -14.4361 O.2     1  UNL1       -0.2698
      4 C         -22.6577   -8.2547  -15.7699 C.ar    1  UNL1        0.0727
      5 C         -22.6882   -9.3345  -16.6687 C.ar    1  UNL1        0.1033
      6 N         -23.3036   -9.2113  -17.8747 N.ar    1  UNL1       -0.2437
      7 C         -23.8988   -8.0520  -18.2603 C.ar    1  UNL1        0.0813
      8 C         -24.5235   -7.9630  -19.5097 C.ar    1  UNL1        0.0191
      9 C         -25.1299   -6.7662  -19.9045 C.ar    1  UNL1        0.0015
     10 C         -25.1135   -5.6554  -19.0543 C.ar    1  UNL1        0.0001
     11 C         -24.4911   -5.7352  -17.8042 C.ar    1  UNL1        0.0015
     12 C         -23.8824   -6.9331  -17.4001 C.ar    1  UNL1        0.0178
     13 C         -23.2515   -7.0439  -16.1556 C.ar    1  UNL1        0.0076
     14 C         -21.5937   -6.4258  -12.2323 C.3     1  UNL1        0.0264
     15 C         -22.1287   -7.8459  -11.9840 C.3     1  UNL1        0.0985
     16 C         -21.1192   -8.8022  -11.3632 C.ar    1  UNL1       -0.0034
     17 C         -20.1567   -8.2869  -10.4748 C.ar    1  UNL1       -0.0026
     18 C         -19.2258   -9.1307   -9.8638 C.ar    1  UNL1        0.0006
     19 C         -19.2424  -10.5008  -10.1286 C.ar    1  UNL1        0.0114
     20 C         -20.1911  -11.0307  -11.0068 C.ar    1  UNL1        0.0574
     21 CL        -20.2131  -12.7538  -11.3356 Cl      1  UNL1       -0.0823
     22 C         -21.1254  -10.1894  -11.6215 C.ar    1  UNL1        0.0087
     23 C         -23.8361   -9.3849  -13.1072 C.3     1  UNL1        0.1212
     24 C         -25.1301   -8.7783  -12.5908 C.ar    1  UNL1        0.0041
     25 C         -25.9934   -8.1066  -13.4784 C.ar    1  UNL1        0.0043
     26 C         -27.2132   -7.5671  -13.0392 C.ar    1  UNL1        0.0752
     27 C         -27.5814   -7.7217  -11.6946 C.ar    1  UNL1        0.0069
     28 C         -26.7495   -8.4074  -10.8101 C.ar    1  UNL1        0.0066
     29 C         -25.5342   -8.9447  -11.2456 C.ar    1  UNL1        0.0322
     30 BR        -24.4878   -9.9077   -9.9546 Br      1  UNL1       -0.0493
     31 C         -28.0947   -6.8464  -13.9847 C.2     1  UNL1        0.3380
     32 O         -27.7999   -5.6837  -14.3732 O.2     1  UNL1       -0.2451
     33 O         -29.2600   -7.4467  -14.4553 O.3     1  UNL1       -0.4771
     34 H         -29.8703   -6.9622  -15.1026 H       1  UNL1        0.2954
@<TRIPOS>BOND
     1    14    15    1
     2    15    16    1
     3    16    17   ar
     4    17    18   ar
     5    18    19   ar
     6    19    20   ar
     7    20    21    1
     8    20    22   ar
     9    15     1    1
    10     1    23    1
    11    23    24    1
    12    24    25   ar
    13    25    26   ar
    14    26    31    1
    15    31    32    2
    16    31    33    1
    17    26    27   ar
    18    27    28   ar
    19    28    29   ar
    20    29    30    1
    21     1     2   am
    22     2     3    2
    23     2     4    1
    24     4     5   ar
    25     5     6   ar
    26     6     7   ar
    27     7     8   ar
    28     8     9   ar
    29     9    10   ar
    30    10    11   ar
    31    11    12   ar
    32    12    13   ar
    33    22    16   ar
    34    29    24   ar
    35    13     4   ar
    36    12     7   ar
    37    33    34    1
@<TRIPOS>MOLECULE
*****
 34 37 0 0 0
SMALL
GASTEIGER

@<TRIPOS>ATOM
      1 N         -25.6390   -7.7682  -12.4242 N.am    1  UNL1       -0.2698
      2 C         -26.9146   -7.2180  -12.8329 C.2     1  UNL1        0.2510
      3 O         -27.9574   -7.5135  -12.1894 O.2     1  UNL1       -0.2698
      4 C         -27.0309   -6.2864  -13.9797 C.ar    1  UNL1        0.0727
      5 C         -25.9054   -5.9865  -14.7659 C.ar    1  UNL1        0.1033
      6 N         -26.0064   -5.1306  -15.8174 N.ar    1  UNL1       -0.2437
      7 C         -27.1815   -4.5301  -16.1422 C.ar    1  UNL1        0.0813
      8 C         -27.2471   -3.6550  -17.2326 C.ar    1  UNL1        0.0191
      9 C         -28.4574   -3.0351  -17.5597 C.ar    1  UNL1        0.0015
     10 C         -29.6043   -3.2860  -16.7992 C.ar    1  UNL1        0.0001
     11 C         -29.5479   -4.1588  -15.7076 C.ar    1  UNL1        0.0015
     12 C         -28.3379   -4.7862  -15.3744 C.ar    1  UNL1        0.0178
     13 C         -28.2495   -5.6641  -14.2878 C.ar    1  UNL1        0.0076
     14 C         -25.2001   -9.0821  -10.3539 C.3     1  UNL1        0.0264
     15 C         -25.5722   -9.1317  -11.8451 C.3     1  UNL1        0.0985
     16 C         -24.6961  -10.0517  -12.6849 C.ar    1  UNL1       -0.0034
     17 C         -25.0847  -10.3341  -14.0079 C.ar    1  UNL1       -0.0026
     18 C         -24.2997  -11.1540  -14.8224 C.ar    1  UNL1        0.0006
     19 C         -23.1149  -11.7027  -14.3297 C.ar    1  UNL1        0.0114
     20 C         -22.7123  -11.4327  -13.0194 C.ar    1  UNL1        0.0574
     21 CL        -21.2207  -12.1202  -12.4029 Cl      1  UNL1       -0.0823
     22 C         -23.4955  -10.6124  -12.1996 C.ar    1  UNL1        0.0087
     23 C         -24.5402   -6.8133  -12.1700 C.3     1  UNL1        0.1212
     24 C         -23.1983   -7.2674  -12.7198 C.ar    1  UNL1        0.0041
     25 C         -23.0534   -7.5178  -14.0984 C.ar    1  UNL1        0.0043
     26 C         -21.8176   -7.9033  -14.6424 C.ar    1  UNL1        0.0752
     27 C         -20.7066   -8.0194  -13.7940 C.ar    1  UNL1        0.0069
     28 C         -20.8285   -7.7488  -12.4315 C.ar    1  UNL1        0.0066
     29 C         -22.0585   -7.3654  -11.8880 C.ar    1  UNL1        0.0322
     30 BR        -22.1034   -6.9740  -10.0083 Br      1  UNL1       -0.0493
     31 C         -21.6934   -8.1823  -16.0906 C.2     1  UNL1        0.3380
     32 O         -22.5648   -8.8730  -16.6851 O.2     1  UNL1       -0.2451
     33 O         -20.6112   -7.6838  -16.8117 O.3     1  UNL1       -0.4771
     34 H         -20.5167   -7.8689  -17.8032 H       1  UNL1        0.2954
@<TRIPOS>BOND
     1    14    15    1
     2    15    16    1
     3    16    17   ar
     4    17    18   ar
     5    18    19   ar
     6    19    20   ar
     7    20    21    1
     8    20    22   ar
     9    15     1    1
    10     1    23    1
    11    23    24    1
    12    24    25   ar
    13    25    26   ar
    14    26    31    1
    15    31    32    2
    16    31    33    1
    17    26    27   ar
    18    27    28   ar
    19    28    29   ar
    20    29    30    1
    21     1     2   am
    22     2     3    2
    23     2     4    1
    24     4     5   ar
    25     5     6   ar
    26     6     7   ar
    27     7     8   ar
    28     8     9   ar
    29     9    10   ar
    30    10    11   ar
    31    11    12   ar
    32    12    13   ar
    33    22    16   ar
    34    29    24   ar
    35    13     4   ar
    36    12     7   ar
    37    33    34    1
@<TRIPOS>MOLECULE
*****
 34 37 0 0 0
SMALL
GASTEIGER

@<TRIPOS>ATOM
      1 N         -21.7396  -11.7044  -13.4724 N.am    1  UNL1       -0.2698
      2 C         -21.2048  -11.1931  -12.2276 C.2     1  UNL1        0.2510
      3 O         -20.3554  -11.8699  -11.5878 O.2     1  UNL1       -0.2698
      4 C         -21.6083   -9.8726  -11.6892 C.ar    1  UNL1        0.0727
      5 C         -22.6770   -9.7737  -10.7821 C.ar    1  UNL1        0.1033
      6 N         -23.0525   -8.5644  -10.2873 N.ar    1  UNL1       -0.2437
      7 C         -22.4251   -7.4151  -10.6514 C.ar    1  UNL1        0.0813
      8 C         -22.8395   -6.1881  -10.1202 C.ar    1  UNL1        0.0191
      9 C         -22.1943   -5.0075  -10.5020 C.ar    1  UNL1        0.0015
     10 C         -21.1353   -5.0481  -11.4151 C.ar    1  UNL1        0.0001
     11 C         -20.7149   -6.2697  -11.9512 C.ar    1  UNL1        0.0015
     12 C         -21.3557   -7.4588  -11.5715 C.ar    1  UNL1        0.0178
     13 C         -20.9583   -8.6964  -12.0908 C.ar    1  UNL1        0.0076
     14 C         -20.8789  -13.7548  -14.5950 C.3     1  UNL1        0.0264
     15 C         -21.9375  -13.1633  -13.6495 C.3     1  UNL1        0.0985
     16 C         -23.3762  -13.4888  -14.0285 C.ar    1  UNL1       -0.0034
     17 C         -24.4198  -12.9157  -13.2779 C.ar    1  UNL1       -0.0026
     18 C         -25.7547  -13.1676  -13.6041 C.ar    1  UNL1        0.0006
     19 C         -26.0681  -13.9934  -14.6846 C.ar    1  UNL1        0.0114
     20 C         -25.0455  -14.5702  -15.4420 C.ar    1  UNL1        0.0574
     21 CL        -25.4412  -15.6049  -16.8024 Cl      1  UNL1       -0.0823
     22 C         -23.7069  -14.3211  -15.1189 C.ar    1  UNL1        0.0087
     23 C         -21.6383  -10.8326  -14.6613 C.3     1  UNL1        0.1212
     24 C         -22.5975   -9.6543  -14.6368 C.ar    1  UNL1        0.0041
     25 C         -23.7524   -9.7063  -13.8320 C.ar    1  UNL1        0.0043
     26 C         -24.6390   -8.6198  -13.7598 C.ar    1  UNL1        0.0752
     27 C         -24.3519   -7.4569  -14.4896 C.ar    1  UNL1        0.0069
     28 C         -23.1985   -7.3807  -15.2697 C.ar    1  UNL1        0.0066
     29 C         -22.3149   -8.4619  -15.3433 C.ar    1  UNL1        0.0322
     30 BR        -20.7353   -8.2330  -16.4116 Br      1  UNL1       -0.0493
     31 C         -25.8578   -8.7046  -12.9245 C.2     1  UNL1        0.3380
     32 O         -26.9988   -8.5692  -13.4437 O.2     1  UNL1       -0.2451
     33 O         -25.7560   -8.9353  -11.5548 O.3     1  UNL1       -0.4771
     34 H         -26.5838   -8.9951  -10.9740 H       1  UNL1        0.2954
@<TRIPOS>BOND
     1    14    15    1
     2    15    16    1
     3    16    17   ar
     4    17    18   ar
     5    18    19   ar
     6    19    20   ar
     7    20    21    1
     8    20    22   ar
     9    15     1    1
    10     1    23    1
    11    23    24    1
    12    24    25   ar
    13    25    26   ar
    14    26    31    1
    15    31    32    2
    16    31    33    1
    17    26    27   ar
    18    27    28   ar
    19    28    29   ar
    20    29    30    1
    21     1     2   am
    22     2     3    2
    23     2     4    1
    24     4     5   ar
    25     5     6   ar
    26     6     7   ar
    27     7     8   ar
    28     8     9   ar
    29     9    10   ar
    30    10    11   ar
    31    11    12   ar
    32    12    13   ar
    33    22    16   ar
    34    29    24   ar
    35    13     4   ar
    36    12     7   ar
    37    33    34    1
