@<TRIPOS>MOLECULE
*****
 51 56 0 0 0
SMALL
GASTEIGER

@<TRIPOS>ATOM
      1 O         -29.8621   52.0130  -12.2985 O.2     1  UNL1       -0.2701
      2 C         -29.0810   51.0303  -12.1716 C.2     1  UNL1        0.2483
      3 N         -29.5115   49.7187  -12.5713 N.am    1  UNL1       -0.2945
      4 H         -28.7782   48.9912  -12.7224 H       1  UNL1        0.1501
      5 C         -27.7126   51.2561  -11.6531 C.ar    1  UNL1        0.0808
      6 C         -26.6131   51.1271  -12.5185 C.ar    1  UNL1        0.0080
      7 C         -25.3122   51.3247  -12.0491 C.ar    1  UNL1        0.0148
      8 C         -25.0847   51.6656  -10.7081 C.ar    1  UNL1        0.0502
      9 C         -26.1816   51.8106   -9.8439 C.ar    1  UNL1        0.0443
     10 C         -27.4853   51.6137  -10.3098 C.ar    1  UNL1        0.1457
     11 F         -28.5193   51.8251   -9.4581 F       1  UNL1       -0.2040
     12 N         -23.7409   51.8632  -10.2293 N.pl3   1  UNL1       -0.3040
     13 C         -23.4551   51.8727   -8.7906 C.3     1  UNL1        0.1123
     14 C         -22.1201   51.1775   -8.5103 C.3     1  UNL1        0.1136
     15 N         -21.0828   51.6610   -9.4333 N.pl3   1  UNL1       -0.2897
     16 C         -21.3849   51.6594  -10.8707 C.3     1  UNL1        0.1136
     17 C         -22.7064   52.3787  -11.1323 C.3     1  UNL1        0.1123
     18 C         -19.7233   51.8551   -8.9934 C.ar    1  UNL1        0.1318
     19 C         -19.3711   52.9299   -8.1606 C.ar    1  UNL1        0.0343
     20 C         -18.0444   53.0817   -7.7547 C.ar    1  UNL1        0.0083
     21 C         -17.0716   52.1539   -8.1558 C.ar    1  UNL1        0.0906
     22 C         -17.4609   51.1042   -9.0021 C.ar    1  UNL1        0.1041
     23 N         -18.7584   50.9783   -9.3867 N.ar    1  UNL1       -0.2292
     24 C         -15.6268   52.3343   -7.7653 C.3     1  UNL1        0.4200
     25 F         -14.8220   52.4005   -8.8895 F       1  UNL1       -0.1658
     26 F         -15.4585   53.5029   -7.0429 F       1  UNL1       -0.1658
     27 F         -15.2282   51.2628   -6.9883 F       1  UNL1       -0.1658
     28 C         -30.8631   49.4660  -13.0863 C.3     1  UNL1        0.1535
     29 C         -30.8201   49.1058  -14.5513 C.2     1  UNL1        0.2443
     30 O         -31.2403   49.9260  -15.4131 O.2     1  UNL1       -0.2730
     31 N         -30.3056   47.8260  -14.9534 N.am    1  UNL1       -0.2825
     32 H         -30.1997   47.0936  -14.2153 H       1  UNL1        0.1549
     33 C         -30.0294   47.4530  -16.3149 C.ar    1  UNL1        0.0539
     34 C         -29.4134   48.3403  -17.2145 C.ar    1  UNL1        0.0354
     35 C         -29.1415   47.9209  -18.5188 C.ar    1  UNL1        0.1007
     36 N         -29.4583   46.6588  -18.9103 N.ar    1  UNL1       -0.2378
     37 C         -30.0379   45.7728  -18.0582 C.ar    1  UNL1        0.1043
     38 S         -30.4256   44.1226  -18.6258 S.3     1  UNL1       -0.1227
     39 C         -30.3254   46.1515  -16.7433 C.ar    1  UNL1        0.0399
     40 H         -31.7101   44.5125  -19.0487 H       1  UNL1        0.1086
     41 C         -31.5841   48.3853  -12.2540 C.3     1  UNL1        0.0569
     42 C         -30.8296   47.9772  -11.0169 C.ar    1  UNL1       -0.0017
     43 C         -30.0353   46.8433  -10.8687 C.ar    1  UNL1        0.0681
     44 N         -29.4765   46.8143   -9.6377 N.ar    1  UNL1       -0.3523
     45 C         -29.9118   47.9181   -9.0061 C.ar    1  UNL1        0.0563
     46 C         -29.6022   48.3264   -7.7094 C.ar    1  UNL1        0.0170
     47 C         -30.1720   49.5253   -7.2436 C.ar    1  UNL1        0.0015
     48 C         -31.0315   50.2788   -8.0735 C.ar    1  UNL1        0.0001
     49 C         -31.3279   49.8410   -9.3768 C.ar    1  UNL1        0.0012
     50 C         -30.7426   48.6522   -9.8139 C.ar    1  UNL1        0.0131
     51 H         -28.8359   46.0816   -9.2594 H       1  UNL1        0.1660
@<TRIPOS>BOND
     1     1     2    2
     2     2     3   am
     3     3    28    1
     4    28    41    1
     5    41    42    1
     6    42    43   ar
     7    43    44   ar
     8    44    45   ar
     9    45    46   ar
    10    46    47   ar
    11    47    48   ar
    12    48    49   ar
    13    49    50   ar
    14    28    29    1
    15    29    30    2
    16    29    31   am
    17    31    33    1
    18    33    34   ar
    19    34    35   ar
    20    35    36   ar
    21    36    37   ar
    22    37    38    1
    23    37    39   ar
    24     2     5    1
    25     5     6   ar
    26     6     7   ar
    27     7     8   ar
    28     8    12    1
    29    12    13    1
    30    13    14    1
    31    14    15    1
    32    15    18    1
    33    18    19   ar
    34    19    20   ar
    35    20    21   ar
    36    21    24    1
    37    24    25    1
    38    24    26    1
    39    24    27    1
    40    21    22   ar
    41    22    23   ar
    42    15    16    1
    43    16    17    1
    44     8     9   ar
    45     9    10   ar
    46    10    11    1
    47    50    42   ar
    48    39    33   ar
    49    10     5   ar
    50    50    45   ar
    51    17    12    1
    52    23    18   ar
    53     3     4    1
    54    44    51    1
    55    31    32    1
    56    38    40    1
