@<TRIPOS>MOLECULE
*****
 50 55 0 0 0
SMALL
GASTEIGER

@<TRIPOS>ATOM
      1 O           9.1076   74.5210   27.8807 O.2     1  UNL1       -0.2701
      2 C           8.5526   75.6537   27.8588 C.2     1  UNL1        0.2483
      3 N           7.2251   75.8079   28.3858 N.am    1  UNL1       -0.2945
      4 H           6.7075   76.6944   28.1912 H       1  UNL1        0.1501
      5 C           9.2693   76.7997   27.2563 C.ar    1  UNL1        0.0808
      6 C          10.6222   77.0111   27.5663 C.ar    1  UNL1        0.0080
      7 C          11.3214   78.0824   27.0055 C.ar    1  UNL1        0.0148
      8 C          10.6807   78.9741   26.1278 C.ar    1  UNL1        0.0502
      9 C           9.3199   78.7751   25.8361 C.ar    1  UNL1        0.0443
     10 C           8.6179   77.7021   26.3944 C.ar    1  UNL1        0.1457
     11 F           7.2931   77.5804   26.1261 F       1  UNL1       -0.2040
     12 N          11.4013   80.0858   25.5503 N.pl3   1  UNL1       -0.3040
     13 C          10.7218   81.0138   24.6353 C.3     1  UNL1        0.1123
     14 C          11.3063   82.4252   24.7594 C.3     1  UNL1        0.1136
     15 N          12.7769   82.4196   24.6808 N.pl3   1  UNL1       -0.2897
     16 C          13.5050   81.1449   24.7582 C.3     1  UNL1        0.1136
     17 C          12.8490   80.2123   25.7809 C.3     1  UNL1        0.1123
     18 C          13.4987   83.6378   24.3891 C.ar    1  UNL1        0.1322
     19 C          13.8323   84.5513   25.4008 C.ar    1  UNL1        0.0343
     20 C          14.5288   85.7155   25.0783 C.ar    1  UNL1        0.0087
     21 C          14.9012   85.9814   23.7492 C.ar    1  UNL1        0.0946
     22 C          14.5515   85.0358   22.7610 C.ar    1  UNL1        0.1159
     23 I          15.0364   85.2692   20.7111 I       1  UNL1       -0.0212
     24 N          13.8718   83.9112   23.1087 N.ar    1  UNL1       -0.2250
     25 C          15.6572   87.2437   23.3973 C.3     1  UNL1        0.4204
     26 F          15.8288   88.0152   24.5322 F       1  UNL1       -0.1658
     27 F          16.8952   86.9150   22.8759 F       1  UNL1       -0.1658
     28 F          14.9801   88.0019   22.4574 F       1  UNL1       -0.1658
     29 C           6.5588   74.7361   29.1365 C.3     1  UNL1        0.1535
     30 C           5.5514   75.3209   30.1026 C.2     1  UNL1        0.2443
     31 O           4.5583   74.6268   30.4519 O.2     1  UNL1       -0.2730
     32 N           5.7662   76.5894   30.7431 N.am    1  UNL1       -0.2825
     33 H           5.3070   76.7510   31.6679 H       1  UNL1        0.1549
     34 C           6.6698   77.5925   30.2602 C.ar    1  UNL1        0.0535
     35 C           7.9390   77.7198   30.8368 C.ar    1  UNL1        0.0353
     36 C           8.8090   78.7097   30.3730 C.ar    1  UNL1        0.1002
     37 N           8.4150   79.5545   29.3829 N.ar    1  UNL1       -0.2422
     38 C           7.1785   79.4693   28.8240 C.ar    1  UNL1        0.1002
     39 C           6.2783   78.4943   29.2603 C.ar    1  UNL1        0.0353
     40 C           5.8475   73.7593   28.1824 C.3     1  UNL1        0.0569
     41 C           5.8359   74.2896   26.7781 C.ar    1  UNL1       -0.0017
     42 C           6.4985   73.7528   25.6782 C.ar    1  UNL1        0.0681
     43 N           6.1893   74.4453   24.5578 N.ar    1  UNL1       -0.3523
     44 C           5.3298   75.4062   24.9396 C.ar    1  UNL1        0.0563
     45 C           4.7116   76.3587   24.1303 C.ar    1  UNL1        0.0170
     46 C           3.8215   77.2620   24.7405 C.ar    1  UNL1        0.0015
     47 C           3.5703   77.1922   26.1291 C.ar    1  UNL1        0.0001
     48 C           4.2080   76.2198   26.9199 C.ar    1  UNL1        0.0012
     49 C           5.0871   75.3407   26.2872 C.ar    1  UNL1        0.0131
     50 H           6.5370   74.2574   23.5912 H       1  UNL1        0.1660
@<TRIPOS>BOND
     1     1     2    2
     2     2     3   am
     3     3    29    1
     4    29    40    1
     5    40    41    1
     6    41    42   ar
     7    42    43   ar
     8    43    44   ar
     9    44    45   ar
    10    45    46   ar
    11    46    47   ar
    12    47    48   ar
    13    48    49   ar
    14    29    30    1
    15    30    31    2
    16    30    32   am
    17    32    34    1
    18    34    35   ar
    19    35    36   ar
    20    36    37   ar
    21    37    38   ar
    22    38    39   ar
    23     2     5    1
    24     5     6   ar
    25     6     7   ar
    26     7     8   ar
    27     8    12    1
    28    12    13    1
    29    13    14    1
    30    14    15    1
    31    15    18    1
    32    18    19   ar
    33    19    20   ar
    34    20    21   ar
    35    21    25    1
    36    25    26    1
    37    25    27    1
    38    25    28    1
    39    21    22   ar
    40    22    23    1
    41    22    24   ar
    42    15    16    1
    43    16    17    1
    44     8     9   ar
    45     9    10   ar
    46    10    11    1
    47    49    41   ar
    48    39    34   ar
    49    10     5   ar
    50    49    44   ar
    51    17    12    1
    52    24    18   ar
    53     3     4    1
    54    43    50    1
    55    32    33    1
@<TRIPOS>MOLECULE
*****
 50 55 0 0 0
SMALL
GASTEIGER

@<TRIPOS>ATOM
      1 O          10.3924   76.9334   26.5498 O.2     1  UNL1       -0.2701
      2 C           9.2690   77.5029   26.6229 C.2     1  UNL1        0.2483
      3 N           9.0131   78.4428   27.6788 N.am    1  UNL1       -0.2945
      4 H           8.0309   78.7595   27.8418 H       1  UNL1        0.1501
      5 C           8.2198   77.1640   25.6358 C.ar    1  UNL1        0.0808
      6 C           8.5791   76.9105   24.3024 C.ar    1  UNL1        0.0080
      7 C           7.6074   76.5830   23.3540 C.ar    1  UNL1        0.0148
      8 C           6.2508   76.5105   23.7150 C.ar    1  UNL1        0.0502
      9 C           5.8894   76.7871   25.0452 C.ar    1  UNL1        0.0443
     10 C           6.8603   77.1132   25.9974 C.ar    1  UNL1        0.1457
     11 F           6.4595   77.4240   27.2562 F       1  UNL1       -0.2040
     12 N           5.2436   76.1764   22.7339 N.pl3   1  UNL1       -0.3040
     13 C           5.5331   75.1931   21.6806 C.3     1  UNL1        0.1123
     14 C           4.2646   74.4277   21.2879 C.3     1  UNL1        0.1136
     15 N           3.1374   75.3355   21.0159 N.pl3   1  UNL1       -0.2897
     16 C           3.2432   76.7562   21.3786 C.3     1  UNL1        0.1136
     17 C           3.9721   76.9167   22.7161 C.3     1  UNL1        0.1123
     18 C           1.9879   74.8722   20.2714 C.ar    1  UNL1        0.1322
     19 C           1.3624   75.6822   19.3113 C.ar    1  UNL1        0.0343
     20 C           0.2554   75.1987   18.6146 C.ar    1  UNL1        0.0087
     21 C          -0.2384   73.9066   18.8643 C.ar    1  UNL1        0.0946
     22 C           0.4212   73.1207   19.8340 C.ar    1  UNL1        0.1159
     23 I          -0.1808   71.1511   20.3340 I       1  UNL1       -0.0212
     24 N           1.4973   73.6222   20.4958 N.ar    1  UNL1       -0.2250
     25 C          -1.4390   73.3799   18.1093 C.3     1  UNL1        0.4204
     26 F          -1.2796   72.0278   17.8664 F       1  UNL1       -0.1658
     27 F          -2.5842   73.5785   18.8586 F       1  UNL1       -0.1658
     28 F          -1.6018   74.0213   16.8932 F       1  UNL1       -0.1658
     29 C          10.0801   78.9223   28.5663 C.3     1  UNL1        0.1535
     30 C          10.1404   80.4342   28.5442 C.2     1  UNL1        0.2443
     31 O           9.8909   81.0761   29.6005 O.2     1  UNL1       -0.2730
     32 N          10.6107   81.1554   27.3934 N.am    1  UNL1       -0.2825
     33 H          11.0289   82.1004   27.5494 H       1  UNL1        0.1549
     34 C          10.6620   80.6114   26.0678 C.ar    1  UNL1        0.0535
     35 C          11.7772   79.8673   25.6650 C.ar    1  UNL1        0.0353
     36 C          11.8288   79.3535   24.3668 C.ar    1  UNL1        0.1002
     37 N          10.8110   79.5935   23.4975 N.ar    1  UNL1       -0.2422
     38 C           9.7289   80.3349   23.8550 C.ar    1  UNL1        0.1002
     39 C           9.6395   80.8678   25.1431 C.ar    1  UNL1        0.0353
     40 C           9.8504   78.4390   30.0100 C.3     1  UNL1        0.0569
     41 C           8.4549   77.9153   30.1876 C.ar    1  UNL1       -0.0017
     42 C           7.3264   78.6503   30.5386 C.ar    1  UNL1        0.0681
     43 N           6.2266   77.8625   30.5206 N.ar    1  UNL1       -0.3523
     44 C           6.6499   76.6411   30.1510 C.ar    1  UNL1        0.0563
     45 C           5.8749   75.4963   29.9685 C.ar    1  UNL1        0.0170
     46 C           6.5265   74.3204   29.5523 C.ar    1  UNL1        0.0015
     47 C           7.9215   74.3158   29.3283 C.ar    1  UNL1        0.0001
     48 C           8.6772   75.4862   29.5197 C.ar    1  UNL1        0.0012
     49 C           8.0037   76.6349   29.9353 C.ar    1  UNL1        0.0131
     50 H           5.2466   78.1527   30.7347 H       1  UNL1        0.1660
@<TRIPOS>BOND
     1     1     2    2
     2     2     3   am
     3     3    29    1
     4    29    40    1
     5    40    41    1
     6    41    42   ar
     7    42    43   ar
     8    43    44   ar
     9    44    45   ar
    10    45    46   ar
    11    46    47   ar
    12    47    48   ar
    13    48    49   ar
    14    29    30    1
    15    30    31    2
    16    30    32   am
    17    32    34    1
    18    34    35   ar
    19    35    36   ar
    20    36    37   ar
    21    37    38   ar
    22    38    39   ar
    23     2     5    1
    24     5     6   ar
    25     6     7   ar
    26     7     8   ar
    27     8    12    1
    28    12    13    1
    29    13    14    1
    30    14    15    1
    31    15    18    1
    32    18    19   ar
    33    19    20   ar
    34    20    21   ar
    35    21    25    1
    36    25    26    1
    37    25    27    1
    38    25    28    1
    39    21    22   ar
    40    22    23    1
    41    22    24   ar
    42    15    16    1
    43    16    17    1
    44     8     9   ar
    45     9    10   ar
    46    10    11    1
    47    49    41   ar
    48    39    34   ar
    49    10     5   ar
    50    49    44   ar
    51    17    12    1
    52    24    18   ar
    53     3     4    1
    54    43    50    1
    55    32    33    1
@<TRIPOS>MOLECULE
*****
 50 55 0 0 0
SMALL
GASTEIGER

@<TRIPOS>ATOM
      1 O           9.0026   74.4871   27.5258 O.2     1  UNL1       -0.2701
      2 C           8.5733   75.6548   27.7351 C.2     1  UNL1        0.2483
      3 N           7.3763   75.8473   28.5058 N.am    1  UNL1       -0.2945
      4 H           6.9291   76.7915   28.5111 H       1  UNL1        0.1501
      5 C           9.2949   76.8071   27.1507 C.ar    1  UNL1        0.0808
      6 C          10.6496   77.0060   27.4614 C.ar    1  UNL1        0.0080
      7 C          11.3533   78.0830   26.9174 C.ar    1  UNL1        0.0148
      8 C          10.7156   78.9929   26.0565 C.ar    1  UNL1        0.0502
      9 C           9.3532   78.8061   25.7643 C.ar    1  UNL1        0.0443
     10 C           8.6466   77.7276   26.3058 C.ar    1  UNL1        0.1457
     11 F           7.3206   77.6175   26.0382 F       1  UNL1       -0.2040
     12 N          11.4410   80.1105   25.4966 N.pl3   1  UNL1       -0.3040
     13 C          10.7794   81.0270   24.5571 C.3     1  UNL1        0.1123
     14 C          11.3437   82.4455   24.6929 C.3     1  UNL1        0.1136
     15 N          12.8160   82.4565   24.6595 N.pl3   1  UNL1       -0.2897
     16 C          13.5558   81.1905   24.7646 C.3     1  UNL1        0.1136
     17 C          12.8794   80.2545   25.7708 C.3     1  UNL1        0.1123
     18 C          13.5325   83.6816   24.3847 C.ar    1  UNL1        0.1322
     19 C          13.8612   84.5830   25.4088 C.ar    1  UNL1        0.0343
     20 C          14.5528   85.7546   25.1026 C.ar    1  UNL1        0.0087
     21 C          14.9250   86.0399   23.7774 C.ar    1  UNL1        0.0946
     22 C          14.5805   85.1061   22.7764 C.ar    1  UNL1        0.1159
     23 I          15.0660   85.3690   20.7302 I       1  UNL1       -0.0212
     24 N          13.9055   83.9739   23.1084 N.ar    1  UNL1       -0.2250
     25 C          15.6757   87.3101   23.4431 C.3     1  UNL1        0.4204
     26 F          15.8660   88.0546   24.5929 F       1  UNL1       -0.1658
     27 F          16.9048   86.9939   22.8940 F       1  UNL1       -0.1658
     28 F          14.9836   88.0903   22.5326 F       1  UNL1       -0.1658
     29 C           6.7368   74.7445   29.2345 C.3     1  UNL1        0.1535
     30 C           5.9080   75.2842   30.3799 C.2     1  UNL1        0.2443
     31 O           5.0162   74.5545   30.8921 O.2     1  UNL1       -0.2730
     32 N           6.2008   76.5499   30.9944 N.am    1  UNL1       -0.2825
     33 H           5.9151   76.6843   31.9906 H       1  UNL1        0.1549
     34 C           6.9714   77.5874   30.3734 C.ar    1  UNL1        0.0535
     35 C           8.2884   77.8177   30.7882 C.ar    1  UNL1        0.0353
     36 C           9.0288   78.8407   30.1906 C.ar    1  UNL1        0.1002
     37 N           8.4646   79.6180   29.2279 N.ar    1  UNL1       -0.2422
     38 C           7.1793   79.4325   28.8253 C.ar    1  UNL1        0.1002
     39 C           6.4046   78.4213   29.3988 C.ar    1  UNL1        0.0353
     40 C           5.8391   73.9162   28.2973 C.3     1  UNL1        0.0569
     41 C           5.3547   74.7449   27.1431 C.ar    1  UNL1       -0.0017
     42 C           4.4959   75.8383   27.2036 C.ar    1  UNL1        0.0681
     43 N           4.3487   76.3904   25.9772 N.ar    1  UNL1       -0.3523
     44 C           5.1154   75.6619   25.1469 C.ar    1  UNL1        0.0563
     45 C           5.3084   75.8610   23.7803 C.ar    1  UNL1        0.0170
     46 C           6.1799   74.9863   23.1050 C.ar    1  UNL1        0.0015
     47 C           6.8330   73.9460   23.8031 C.ar    1  UNL1        0.0001
     48 C           6.6195   73.7702   25.1819 C.ar    1  UNL1        0.0012
     49 C           5.7480   74.6508   25.8228 C.ar    1  UNL1        0.0131
     50 H           3.7692   77.2240   25.7327 H       1  UNL1        0.1660
@<TRIPOS>BOND
     1     1     2    2
     2     2     3   am
     3     3    29    1
     4    29    40    1
     5    40    41    1
     6    41    42   ar
     7    42    43   ar
     8    43    44   ar
     9    44    45   ar
    10    45    46   ar
    11    46    47   ar
    12    47    48   ar
    13    48    49   ar
    14    29    30    1
    15    30    31    2
    16    30    32   am
    17    32    34    1
    18    34    35   ar
    19    35    36   ar
    20    36    37   ar
    21    37    38   ar
    22    38    39   ar
    23     2     5    1
    24     5     6   ar
    25     6     7   ar
    26     7     8   ar
    27     8    12    1
    28    12    13    1
    29    13    14    1
    30    14    15    1
    31    15    18    1
    32    18    19   ar
    33    19    20   ar
    34    20    21   ar
    35    21    25    1
    36    25    26    1
    37    25    27    1
    38    25    28    1
    39    21    22   ar
    40    22    23    1
    41    22    24   ar
    42    15    16    1
    43    16    17    1
    44     8     9   ar
    45     9    10   ar
    46    10    11    1
    47    49    41   ar
    48    39    34   ar
    49    10     5   ar
    50    49    44   ar
    51    17    12    1
    52    24    18   ar
    53     3     4    1
    54    43    50    1
    55    32    33    1
@<TRIPOS>MOLECULE
*****
 50 55 0 0 0
SMALL
GASTEIGER

@<TRIPOS>ATOM
      1 O          10.4376   75.3933   20.9535 O.2     1  UNL1       -0.2701
      2 C           9.7252   75.9798   21.8137 C.2     1  UNL1        0.2483
      3 N           8.3651   75.5642   22.0167 N.am    1  UNL1       -0.2945
      4 H           7.7340   76.1722   22.5858 H       1  UNL1        0.1501
      5 C          10.2960   77.1125   22.5760 C.ar    1  UNL1        0.0808
      6 C          11.4304   76.9067   23.3772 C.ar    1  UNL1        0.0080
      7 C          11.9907   77.9616   24.1013 C.ar    1  UNL1        0.0148
      8 C          11.4233   79.2467   24.0484 C.ar    1  UNL1        0.0502
      9 C          10.2738   79.4465   23.2642 C.ar    1  UNL1        0.0443
     10 C           9.7119   78.3927   22.5365 C.ar    1  UNL1        0.1457
     11 F           8.5721   78.6200   21.8357 F       1  UNL1       -0.2040
     12 N          11.9989   80.3382   24.8007 N.pl3   1  UNL1       -0.3040
     13 C          13.4429   80.3697   25.0729 C.3     1  UNL1        0.1123
     14 C          13.9524   81.8138   25.1382 C.3     1  UNL1        0.1136
     15 N          13.1219   82.6499   26.0213 N.pl3   1  UNL1       -0.2897
     16 C          11.8311   82.1389   26.5048 C.3     1  UNL1        0.1136
     17 C          11.1175   81.3515   25.4018 C.3     1  UNL1        0.1123
     18 C          13.6273   83.9065   26.5270 C.ar    1  UNL1        0.1322
     19 C          13.9306   84.0798   27.8861 C.ar    1  UNL1        0.0343
     20 C          14.4156   85.3079   28.3347 C.ar    1  UNL1        0.0087
     21 C          14.6050   86.3731   27.4373 C.ar    1  UNL1        0.0946
     22 C          14.2930   86.1578   26.0775 C.ar    1  UNL1        0.1159
     23 I          14.5224   87.6463   24.5864 I       1  UNL1       -0.0212
     24 N          13.8215   84.9488   25.6730 N.ar    1  UNL1       -0.2250
     25 C          15.1315   87.7061   27.9218 C.3     1  UNL1        0.4204
     26 F          14.2551   88.7125   27.5588 F       1  UNL1       -0.1658
     27 F          15.2581   87.6842   29.2987 F       1  UNL1       -0.1658
     28 F          16.3715   87.9959   27.3785 F       1  UNL1       -0.1658
     29 C           7.8260   74.3450   21.4011 C.3     1  UNL1        0.1535
     30 C           7.5554   73.2986   22.4604 C.2     1  UNL1        0.2443
     31 O           6.3907   73.1846   22.9301 O.2     1  UNL1       -0.2730
     32 N           8.5517   72.3370   22.8454 N.am    1  UNL1       -0.2825
     33 H           8.2221   71.4212   23.2258 H       1  UNL1        0.1549
     34 C           9.9584   72.5013   22.6212 C.ar    1  UNL1        0.0535
     35 C          10.5763   71.8269   21.5615 C.ar    1  UNL1        0.0353
     36 C          11.9503   71.9781   21.3580 C.ar    1  UNL1        0.1002
     37 N          12.6820   72.7591   22.1969 N.ar    1  UNL1       -0.2422
     38 C          12.1113   73.4040   23.2489 C.ar    1  UNL1        0.1002
     39 C          10.7407   73.2779   23.4879 C.ar    1  UNL1        0.0353
     40 C           6.5256   74.6472   20.6343 C.3     1  UNL1        0.0569
     41 C           6.0519   76.0454   20.9063 C.ar    1  UNL1       -0.0017
     42 C           6.4791   77.2089   20.2733 C.ar    1  UNL1        0.0681
     43 N           5.7709   78.2734   20.7159 N.ar    1  UNL1       -0.3523
     44 C           4.8944   77.7899   21.6134 C.ar    1  UNL1        0.0563
     45 C           3.9317   78.5043   22.3256 C.ar    1  UNL1        0.0170
     46 C           3.0964   77.7879   23.2029 C.ar    1  UNL1        0.0015
     47 C           3.2389   76.3894   23.3451 C.ar    1  UNL1        0.0001
     48 C           4.2185   75.6954   22.6127 C.ar    1  UNL1        0.0012
     49 C           5.0332   76.4332   21.7539 C.ar    1  UNL1        0.0131
     50 H           5.8758   79.2655   20.4075 H       1  UNL1        0.1660
@<TRIPOS>BOND
     1     1     2    2
     2     2     3   am
     3     3    29    1
     4    29    40    1
     5    40    41    1
     6    41    42   ar
     7    42    43   ar
     8    43    44   ar
     9    44    45   ar
    10    45    46   ar
    11    46    47   ar
    12    47    48   ar
    13    48    49   ar
    14    29    30    1
    15    30    31    2
    16    30    32   am
    17    32    34    1
    18    34    35   ar
    19    35    36   ar
    20    36    37   ar
    21    37    38   ar
    22    38    39   ar
    23     2     5    1
    24     5     6   ar
    25     6     7   ar
    26     7     8   ar
    27     8    12    1
    28    12    13    1
    29    13    14    1
    30    14    15    1
    31    15    18    1
    32    18    19   ar
    33    19    20   ar
    34    20    21   ar
    35    21    25    1
    36    25    26    1
    37    25    27    1
    38    25    28    1
    39    21    22   ar
    40    22    23    1
    41    22    24   ar
    42    15    16    1
    43    16    17    1
    44     8     9   ar
    45     9    10   ar
    46    10    11    1
    47    49    41   ar
    48    39    34   ar
    49    10     5   ar
    50    49    44   ar
    51    17    12    1
    52    24    18   ar
    53     3     4    1
    54    43    50    1
    55    32    33    1
@<TRIPOS>MOLECULE
*****
 50 55 0 0 0
SMALL
GASTEIGER

@<TRIPOS>ATOM
      1 O          14.4479   82.8370   23.9714 O.2     1  UNL1       -0.2701
      2 C          13.2815   83.0484   24.4031 C.2     1  UNL1        0.2483
      3 N          12.7970   84.3958   24.5188 N.am    1  UNL1       -0.2945
      4 H          11.9141   84.5679   25.0503 H       1  UNL1        0.1501
      5 C          12.4436   81.9009   24.8169 C.ar    1  UNL1        0.0808
      6 C          11.0741   82.0946   25.0579 C.ar    1  UNL1        0.0080
      7 C          10.2617   81.0258   25.4437 C.ar    1  UNL1        0.0148
      8 C          10.8024   79.7385   25.6069 C.ar    1  UNL1        0.0502
      9 C          12.1783   79.5503   25.3878 C.ar    1  UNL1        0.0443
     10 C          12.9936   80.6181   24.9994 C.ar    1  UNL1        0.1457
     11 F          14.3249   80.4004   24.8507 F       1  UNL1       -0.2040
     12 N           9.9643   78.6325   26.0106 N.pl3   1  UNL1       -0.3040
     13 C          10.4880   77.5971   26.9127 C.3     1  UNL1        0.1123
     14 C           9.3716   77.0314   27.7973 C.3     1  UNL1        0.1136
     15 N           8.1881   76.6470   27.0096 N.pl3   1  UNL1       -0.2897
     16 C           8.0863   77.0576   25.6017 C.3     1  UNL1        0.1136
     17 C           8.6275   78.4782   25.4155 C.3     1  UNL1        0.1123
     18 C           7.1964   75.7549   27.5669 C.ar    1  UNL1        0.1322
     19 C           7.1687   74.3918   27.2349 C.ar    1  UNL1        0.0343
     20 C           6.1953   73.5641   27.7936 C.ar    1  UNL1        0.0087
     21 C           5.2427   74.0827   28.6876 C.ar    1  UNL1        0.0946
     22 C           5.3067   75.4579   29.0003 C.ar    1  UNL1        0.1159
     23 I           3.9581   76.4073   30.3313 I       1  UNL1       -0.0212
     24 N           6.2678   76.2373   28.4379 N.ar    1  UNL1       -0.2250
     25 C           4.1861   73.1864   29.2952 C.3     1  UNL1        0.4204
     26 F           4.3157   73.1815   30.6721 F       1  UNL1       -0.1658
     27 F           2.9290   73.6519   28.9555 F       1  UNL1       -0.1658
     28 F           4.2998   71.8819   28.8456 F       1  UNL1       -0.1658
     29 C          13.5359   85.5366   23.9630 C.3     1  UNL1        0.1535
     30 C          14.4680   86.1153   25.0053 C.2     1  UNL1        0.2443
     31 O          14.3732   85.7255   26.2007 O.2     1  UNL1       -0.2730
     32 N          15.5509   86.9904   24.6488 N.am    1  UNL1       -0.2825
     33 H          16.3820   87.0181   25.2817 H       1  UNL1        0.1549
     34 C          15.6206   87.7260   23.4200 C.ar    1  UNL1        0.0535
     35 C          16.6072   87.4125   22.4777 C.ar    1  UNL1        0.0353
     36 C          16.6802   88.1436   21.2893 C.ar    1  UNL1        0.1002
     37 N          15.8109   89.1644   21.0621 N.ar    1  UNL1       -0.2422
     38 C          14.8604   89.5063   21.9720 C.ar    1  UNL1        0.1002
     39 C          14.7548   88.8012   23.1733 C.ar    1  UNL1        0.0353
     40 C          14.3488   85.1128   22.7262 C.3     1  UNL1        0.0569
     41 C          13.7522   85.6770   21.4696 C.ar    1  UNL1       -0.0017
     42 C          12.7508   86.6393   21.3805 C.ar    1  UNL1        0.0681
     43 N          12.5261   86.9674   20.0874 N.ar    1  UNL1       -0.3523
     44 C          13.3841   86.2291   19.3618 C.ar    1  UNL1        0.0563
     45 C          13.5448   86.2362   17.9766 C.ar    1  UNL1        0.0170
     46 C          14.5271   85.3933   17.4242 C.ar    1  UNL1        0.0015
     47 C          15.3191   84.5737   18.2591 C.ar    1  UNL1        0.0001
     48 C          15.1350   84.5884   19.6532 C.ar    1  UNL1        0.0012
     49 C          14.1517   85.4317   20.1707 C.ar    1  UNL1        0.0131
     50 H          11.8366   87.6659   19.7306 H       1  UNL1        0.1660
@<TRIPOS>BOND
     1     1     2    2
     2     2     3   am
     3     3    29    1
     4    29    40    1
     5    40    41    1
     6    41    42   ar
     7    42    43   ar
     8    43    44   ar
     9    44    45   ar
    10    45    46   ar
    11    46    47   ar
    12    47    48   ar
    13    48    49   ar
    14    29    30    1
    15    30    31    2
    16    30    32   am
    17    32    34    1
    18    34    35   ar
    19    35    36   ar
    20    36    37   ar
    21    37    38   ar
    22    38    39   ar
    23     2     5    1
    24     5     6   ar
    25     6     7   ar
    26     7     8   ar
    27     8    12    1
    28    12    13    1
    29    13    14    1
    30    14    15    1
    31    15    18    1
    32    18    19   ar
    33    19    20   ar
    34    20    21   ar
    35    21    25    1
    36    25    26    1
    37    25    27    1
    38    25    28    1
    39    21    22   ar
    40    22    23    1
    41    22    24   ar
    42    15    16    1
    43    16    17    1
    44     8     9   ar
    45     9    10   ar
    46    10    11    1
    47    49    41   ar
    48    39    34   ar
    49    10     5   ar
    50    49    44   ar
    51    17    12    1
    52    24    18   ar
    53     3     4    1
    54    43    50    1
    55    32    33    1
@<TRIPOS>MOLECULE
*****
 50 55 0 0 0
SMALL
GASTEIGER

@<TRIPOS>ATOM
      1 O          10.1056   75.3282   21.1697 O.2     1  UNL1       -0.2701
      2 C           9.3941   76.0442   21.9265 C.2     1  UNL1        0.2483
      3 N           7.9849   75.7866   22.0345 N.am    1  UNL1       -0.2945
      4 H           7.3799   76.4950   22.5077 H       1  UNL1        0.1501
      5 C          10.0213   77.1627   22.6651 C.ar    1  UNL1        0.0808
      6 C          11.1604   76.9222   23.4499 C.ar    1  UNL1        0.0080
      7 C          11.7735   77.9630   24.1513 C.ar    1  UNL1        0.0148
      8 C          11.2556   79.2685   24.0919 C.ar    1  UNL1        0.0502
      9 C          10.1016   79.5038   23.3243 C.ar    1  UNL1        0.0443
     10 C           9.4868   78.4642   22.6193 C.ar    1  UNL1        0.1457
     11 F           8.3450   78.7275   21.9346 F       1  UNL1       -0.2040
     12 N          11.8859   80.3456   24.8208 N.pl3   1  UNL1       -0.3040
     13 C          13.3490   80.3948   24.9513 C.3     1  UNL1        0.1123
     14 C          13.8406   81.8451   25.0153 C.3     1  UNL1        0.1136
     15 N          13.0886   82.6369   26.0034 N.pl3   1  UNL1       -0.2897
     16 C          11.8594   82.0869   26.5932 C.3     1  UNL1        0.1136
     17 C          11.0527   81.3226   25.5393 C.3     1  UNL1        0.1123
     18 C          13.6222   83.8855   26.4996 C.ar    1  UNL1        0.1322
     19 C          13.9498   84.0551   27.8535 C.ar    1  UNL1        0.0343
     20 C          14.4617   85.2756   28.2930 C.ar    1  UNL1        0.0087
     21 C          14.6541   86.3368   27.3915 C.ar    1  UNL1        0.0946
     22 C          14.3171   86.1253   26.0370 C.ar    1  UNL1        0.1159
     23 I          14.5470   87.6086   24.5407 I       1  UNL1       -0.0212
     24 N          13.8197   84.9238   25.6414 N.ar    1  UNL1       -0.2250
     25 C          15.2098   87.6615   27.8660 C.3     1  UNL1        0.4204
     26 F          15.3652   87.6356   29.2400 F       1  UNL1       -0.1658
     27 F          16.4366   87.8919   27.2709 F       1  UNL1       -0.1658
     28 F          14.3697   88.7143   27.5457 F       1  UNL1       -0.1658
     29 C           7.3678   74.5893   21.4499 C.3     1  UNL1        0.1535
     30 C           7.7214   73.3654   22.2668 C.2     1  UNL1        0.2443
     31 O           7.9848   72.2842   21.6738 O.2     1  UNL1       -0.2730
     32 N           7.9040   73.4336   23.6907 N.am    1  UNL1       -0.2825
     33 H           8.5323   72.7263   24.1346 H       1  UNL1        0.1549
     34 C           7.3862   74.4828   24.5196 C.ar    1  UNL1        0.0535
     35 C           8.2681   75.3625   25.1584 C.ar    1  UNL1        0.0353
     36 C           7.7582   76.3728   25.9778 C.ar    1  UNL1        0.1002
     37 N           6.4163   76.4851   26.1672 N.ar    1  UNL1       -0.2422
     38 C           5.5398   75.6278   25.5795 C.ar    1  UNL1        0.1002
     39 C           6.0090   74.6031   24.7541 C.ar    1  UNL1        0.0353
     40 C           5.8368   74.7381   21.3850 C.3     1  UNL1        0.0569
     41 C           5.4423   76.1738   21.1942 C.ar    1  UNL1       -0.0017
     42 C           5.9616   77.0645   20.2594 C.ar    1  UNL1        0.0681
     43 N           5.3069   78.2469   20.3207 N.ar    1  UNL1       -0.3523
     44 C           4.3728   78.1058   21.2775 C.ar    1  UNL1        0.0563
     45 C           3.4335   79.0507   21.6890 C.ar    1  UNL1        0.0170
     46 C           2.5268   78.6798   22.6994 C.ar    1  UNL1        0.0015
     47 C           2.5773   77.3872   23.2675 C.ar    1  UNL1        0.0001
     48 C           3.5354   76.4548   22.8316 C.ar    1  UNL1        0.0012
     49 C           4.4223   76.8526   21.8311 C.ar    1  UNL1        0.0131
     50 H           5.4834   79.0902   19.7307 H       1  UNL1        0.1660
@<TRIPOS>BOND
     1     1     2    2
     2     2     3   am
     3     3    29    1
     4    29    40    1
     5    40    41    1
     6    41    42   ar
     7    42    43   ar
     8    43    44   ar
     9    44    45   ar
    10    45    46   ar
    11    46    47   ar
    12    47    48   ar
    13    48    49   ar
    14    29    30    1
    15    30    31    2
    16    30    32   am
    17    32    34    1
    18    34    35   ar
    19    35    36   ar
    20    36    37   ar
    21    37    38   ar
    22    38    39   ar
    23     2     5    1
    24     5     6   ar
    25     6     7   ar
    26     7     8   ar
    27     8    12    1
    28    12    13    1
    29    13    14    1
    30    14    15    1
    31    15    18    1
    32    18    19   ar
    33    19    20   ar
    34    20    21   ar
    35    21    25    1
    36    25    26    1
    37    25    27    1
    38    25    28    1
    39    21    22   ar
    40    22    23    1
    41    22    24   ar
    42    15    16    1
    43    16    17    1
    44     8     9   ar
    45     9    10   ar
    46    10    11    1
    47    49    41   ar
    48    39    34   ar
    49    10     5   ar
    50    49    44   ar
    51    17    12    1
    52    24    18   ar
    53     3     4    1
    54    43    50    1
    55    32    33    1
@<TRIPOS>MOLECULE
*****
 50 55 0 0 0
SMALL
GASTEIGER

@<TRIPOS>ATOM
      1 O           9.2970   74.8333   25.6481 O.2     1  UNL1       -0.2701
      2 C           9.0392   75.8616   26.3319 C.2     1  UNL1        0.2483
      3 N           8.0075   75.8141   27.3304 N.am    1  UNL1       -0.2945
      4 H           7.6750   76.7105   27.7518 H       1  UNL1        0.1501
      5 C           9.7840   77.1127   26.0670 C.ar    1  UNL1        0.0808
      6 C          11.1841   77.0779   25.9693 C.ar    1  UNL1        0.0080
      7 C          11.9085   78.2446   25.7141 C.ar    1  UNL1        0.0148
      8 C          11.2495   79.4767   25.5597 C.ar    1  UNL1        0.0502
      9 C           9.8494   79.5144   25.6807 C.ar    1  UNL1        0.0443
     10 C           9.1214   78.3475   25.9341 C.ar    1  UNL1        0.1457
     11 F           7.7771   78.4407   26.0953 F       1  UNL1       -0.2040
     12 N          11.9978   80.6856   25.3003 N.pl3   1  UNL1       -0.3040
     13 C          13.4560   80.7075   25.4829 C.3     1  UNL1        0.1123
     14 C          14.1134   81.6752   24.4927 C.3     1  UNL1        0.1136
     15 N          13.4542   82.9921   24.4918 N.pl3   1  UNL1       -0.2897
     16 C          12.1664   83.1618   25.1802 C.3     1  UNL1        0.1136
     17 C          11.2810   81.9289   24.9758 C.3     1  UNL1        0.1123
     18 C          14.1277   84.1471   23.9418 C.ar    1  UNL1        0.1322
     19 C          14.7114   84.1156   22.6660 C.ar    1  UNL1        0.0343
     20 C          15.3526   85.2509   22.1713 C.ar    1  UNL1        0.0087
     21 C          15.4180   86.4269   22.9385 C.ar    1  UNL1        0.0946
     22 C          14.8146   86.4203   24.2148 C.ar    1  UNL1        0.1159
     23 I          14.8109   88.1030   25.5033 I       1  UNL1       -0.0212
     24 N          14.1980   85.2967   24.6676 N.ar    1  UNL1       -0.2250
     25 C          16.1128   87.6597   22.4035 C.3     1  UNL1        0.4204
     26 F          17.1711   87.9927   23.2291 F       1  UNL1       -0.1658
     27 F          16.5876   87.4105   21.1288 F       1  UNL1       -0.1658
     28 F          15.2554   88.7450   22.3406 F       1  UNL1       -0.1658
     29 C           7.3715   74.5523   27.7297 C.3     1  UNL1        0.1535
     30 C           7.6349   74.2728   29.1935 C.2     1  UNL1        0.2443
     31 O           8.3796   73.3062   29.5116 O.2     1  UNL1       -0.2730
     32 N           7.1767   75.1600   30.2271 N.am    1  UNL1       -0.2825
     33 H           7.7109   75.1771   31.1251 H       1  UNL1        0.1549
     34 C           6.1182   76.1126   30.0597 C.ar    1  UNL1        0.0535
     35 C           6.4083   77.3970   29.5846 C.ar    1  UNL1        0.0353
     36 C           5.3750   78.3261   29.4390 C.ar    1  UNL1        0.1002
     37 N           4.1018   77.9884   29.7765 N.ar    1  UNL1       -0.2422
     38 C           3.7972   76.7566   30.2649 C.ar    1  UNL1        0.1002
     39 C           4.8016   75.7994   30.4269 C.ar    1  UNL1        0.0353
     40 C           5.8528   74.6018   27.4820 C.3     1  UNL1        0.0569
     41 C           5.5478   75.1072   26.1018 C.ar    1  UNL1       -0.0017
     42 C           6.0702   74.6287   24.9038 C.ar    1  UNL1        0.0681
     43 N           5.5038   75.2675   23.8543 N.ar    1  UNL1       -0.3523
     44 C           4.6218   76.1360   24.3792 C.ar    1  UNL1        0.0563
     45 C           3.7768   77.0047   23.6895 C.ar    1  UNL1        0.0170
     46 C           2.9093   77.8160   24.4445 C.ar    1  UNL1        0.0015
     47 C           2.9044   77.7398   25.8553 C.ar    1  UNL1        0.0001
     48 C           3.7675   76.8532   26.5235 C.ar    1  UNL1        0.0012
     49 C           4.6177   76.0646   25.7483 C.ar    1  UNL1        0.0131
     50 H           5.7023   75.1040   22.8422 H       1  UNL1        0.1660
@<TRIPOS>BOND
     1     1     2    2
     2     2     3   am
     3     3    29    1
     4    29    40    1
     5    40    41    1
     6    41    42   ar
     7    42    43   ar
     8    43    44   ar
     9    44    45   ar
    10    45    46   ar
    11    46    47   ar
    12    47    48   ar
    13    48    49   ar
    14    29    30    1
    15    30    31    2
    16    30    32   am
    17    32    34    1
    18    34    35   ar
    19    35    36   ar
    20    36    37   ar
    21    37    38   ar
    22    38    39   ar
    23     2     5    1
    24     5     6   ar
    25     6     7   ar
    26     7     8   ar
    27     8    12    1
    28    12    13    1
    29    13    14    1
    30    14    15    1
    31    15    18    1
    32    18    19   ar
    33    19    20   ar
    34    20    21   ar
    35    21    25    1
    36    25    26    1
    37    25    27    1
    38    25    28    1
    39    21    22   ar
    40    22    23    1
    41    22    24   ar
    42    15    16    1
    43    16    17    1
    44     8     9   ar
    45     9    10   ar
    46    10    11    1
    47    49    41   ar
    48    39    34   ar
    49    10     5   ar
    50    49    44   ar
    51    17    12    1
    52    24    18   ar
    53     3     4    1
    54    43    50    1
    55    32    33    1
@<TRIPOS>MOLECULE
*****
 50 55 0 0 0
SMALL
GASTEIGER

@<TRIPOS>ATOM
      1 O           9.7372   74.9489   26.2052 O.2     1  UNL1       -0.2701
      2 C           9.3534   75.8300   25.3880 C.2     1  UNL1        0.2483
      3 N           8.2117   75.5795   24.5528 N.am    1  UNL1       -0.2945
      4 H           8.0207   76.2277   23.7559 H       1  UNL1        0.1501
      5 C          10.1111   77.0966   25.2801 C.ar    1  UNL1        0.0808
      6 C           9.5735   78.2739   25.8243 C.ar    1  UNL1        0.0080
      7 C          10.2726   79.4803   25.7402 C.ar    1  UNL1        0.0148
      8 C          11.5230   79.5395   25.1006 C.ar    1  UNL1        0.0502
      9 C          12.0499   78.3650   24.5357 C.ar    1  UNL1        0.0443
     10 C          11.3532   77.1553   24.6203 C.ar    1  UNL1        0.1457
     11 F          11.8758   76.0590   24.0146 F       1  UNL1       -0.2040
     12 N          12.2455   80.7878   25.0084 N.pl3   1  UNL1       -0.3040
     13 C          13.7044   80.8139   25.1845 C.3     1  UNL1        0.1123
     14 C          14.3348   81.9233   24.3355 C.3     1  UNL1        0.1136
     15 N          13.6501   83.2138   24.5219 N.pl3   1  UNL1       -0.2897
     16 C          12.3649   83.2596   25.2340 C.3     1  UNL1        0.1136
     17 C          11.5020   82.0494   24.8643 C.3     1  UNL1        0.1123
     18 C          14.2964   84.4477   24.1348 C.ar    1  UNL1        0.1322
     19 C          14.9191   84.5872   22.8850 C.ar    1  UNL1        0.0343
     20 C          15.5323   85.7939   22.5493 C.ar    1  UNL1        0.0087
     21 C          15.5308   86.8721   23.4512 C.ar    1  UNL1        0.0946
     22 C          14.8899   86.6941   24.6963 C.ar    1  UNL1        0.1159
     23 I          14.7847   88.2110   26.1727 I       1  UNL1       -0.0212
     24 N          14.3020   85.5048   24.9926 N.ar    1  UNL1       -0.2250
     25 C          16.1951   88.1822   23.0889 C.3     1  UNL1        0.4204
     26 F          16.7672   88.0825   21.8337 F       1  UNL1       -0.1658
     27 F          15.2543   89.1957   23.0838 F       1  UNL1       -0.1658
     28 F          17.1891   88.5200   23.9914 F       1  UNL1       -0.1658
     29 C           7.3451   74.4111   24.7530 C.3     1  UNL1        0.1535
     30 C           5.9329   74.8539   25.0688 C.2     1  UNL1        0.2443
     31 O           5.1079   74.9995   24.1264 O.2     1  UNL1       -0.2730
     32 N           5.4638   74.9771   26.4217 N.am    1  UNL1       -0.2825
     33 H           4.4393   74.8629   26.5932 H       1  UNL1        0.1549
     34 C           6.3219   75.1163   27.5619 C.ar    1  UNL1        0.0535
     35 C           6.7577   76.3881   27.9523 C.ar    1  UNL1        0.0353
     36 C           7.6068   76.5158   29.0544 C.ar    1  UNL1        0.1002
     37 N           8.0211   75.4095   29.7280 N.ar    1  UNL1       -0.2422
     38 C           7.6338   74.1612   29.3538 C.ar    1  UNL1        0.1002
     39 C           6.7864   73.9901   28.2565 C.ar    1  UNL1        0.0353
     40 C           7.3342   73.5160   23.5004 C.3     1  UNL1        0.0569
     41 C           8.4612   73.8708   22.5744 C.ar    1  UNL1       -0.0017
     42 C           8.4828   74.9064   21.6450 C.ar    1  UNL1        0.0681
     43 N           9.6951   74.9796   21.0489 N.ar    1  UNL1       -0.3523
     44 C          10.4408   74.0069   21.6019 C.ar    1  UNL1        0.0563
     45 C          11.7736   73.7027   21.3270 C.ar    1  UNL1        0.0170
     46 C          12.3698   72.6501   22.0461 C.ar    1  UNL1        0.0015
     47 C          11.6297   71.9352   23.0143 C.ar    1  UNL1        0.0001
     48 C          10.2871   72.2653   23.2708 C.ar    1  UNL1        0.0012
     49 C           9.7231   73.3111   22.5400 C.ar    1  UNL1        0.0131
     50 H           9.9925   75.6652   20.3196 H       1  UNL1        0.1660
@<TRIPOS>BOND
     1     1     2    2
     2     2     3   am
     3     3    29    1
     4    29    40    1
     5    40    41    1
     6    41    42   ar
     7    42    43   ar
     8    43    44   ar
     9    44    45   ar
    10    45    46   ar
    11    46    47   ar
    12    47    48   ar
    13    48    49   ar
    14    29    30    1
    15    30    31    2
    16    30    32   am
    17    32    34    1
    18    34    35   ar
    19    35    36   ar
    20    36    37   ar
    21    37    38   ar
    22    38    39   ar
    23     2     5    1
    24     5     6   ar
    25     6     7   ar
    26     7     8   ar
    27     8    12    1
    28    12    13    1
    29    13    14    1
    30    14    15    1
    31    15    18    1
    32    18    19   ar
    33    19    20   ar
    34    20    21   ar
    35    21    25    1
    36    25    26    1
    37    25    27    1
    38    25    28    1
    39    21    22   ar
    40    22    23    1
    41    22    24   ar
    42    15    16    1
    43    16    17    1
    44     8     9   ar
    45     9    10   ar
    46    10    11    1
    47    49    41   ar
    48    39    34   ar
    49    10     5   ar
    50    49    44   ar
    51    17    12    1
    52    24    18   ar
    53     3     4    1
    54    43    50    1
    55    32    33    1
@<TRIPOS>MOLECULE
*****
 50 55 0 0 0
SMALL
GASTEIGER

@<TRIPOS>ATOM
      1 O           9.4913   74.4926   24.6743 O.2     1  UNL1       -0.2701
      2 C           8.9795   75.5188   25.2002 C.2     1  UNL1        0.2483
      3 N           7.6830   75.4348   25.8132 N.am    1  UNL1       -0.2945
      4 H           7.1916   76.3200   26.0716 H       1  UNL1        0.1501
      5 C           9.7124   76.8031   25.1444 C.ar    1  UNL1        0.0808
      6 C          11.1127   76.8066   25.2465 C.ar    1  UNL1        0.0080
      7 C          11.8269   78.0057   25.1906 C.ar    1  UNL1        0.0148
      8 C          11.1560   79.2319   25.0406 C.ar    1  UNL1        0.0502
      9 C           9.7524   79.2294   24.9617 C.ar    1  UNL1        0.0443
     10 C           9.0348   78.0303   25.0152 C.ar    1  UNL1        0.1457
     11 F           7.6789   78.0809   24.9884 F       1  UNL1       -0.2040
     12 N          11.8931   80.4739   24.9874 N.pl3   1  UNL1       -0.3040
     13 C          13.3431   80.4854   25.2273 C.3     1  UNL1        0.1123
     14 C          14.0201   81.5935   24.4132 C.3     1  UNL1        0.1136
     15 N          13.3396   82.8893   24.5769 N.pl3   1  UNL1       -0.2897
     16 C          12.0249   82.9431   25.2324 C.3     1  UNL1        0.1136
     17 C          11.1681   81.7430   24.8182 C.3     1  UNL1        0.1123
     18 C          14.0135   84.1192   24.2257 C.ar    1  UNL1        0.1322
     19 C          14.6440   84.2792   22.9823 C.ar    1  UNL1        0.0343
     20 C          15.2839   85.4812   22.6817 C.ar    1  UNL1        0.0087
     21 C          15.3015   86.5345   23.6123 C.ar    1  UNL1        0.0946
     22 C          14.6519   86.3365   24.8500 C.ar    1  UNL1        0.1159
     23 I          14.5727   87.8148   26.3665 I       1  UNL1       -0.0212
     24 N          14.0379   85.1524   25.1118 N.ar    1  UNL1       -0.2250
     25 C          15.9948   87.8395   23.2880 C.3     1  UNL1        0.4204
     26 F          17.0028   88.0716   24.2060 F       1  UNL1       -0.1658
     27 F          16.5383   87.7750   22.0180 F       1  UNL1       -0.1658
     28 F          15.1179   88.9100   23.3288 F       1  UNL1       -0.1658
     29 C           7.0096   74.1484   26.0317 C.3     1  UNL1        0.1535
     30 C           6.2874   74.1539   27.3615 C.2     1  UNL1        0.2443
     31 O           5.1214   73.6788   27.4310 O.2     1  UNL1       -0.2730
     32 N           6.9425   74.5550   28.5761 N.am    1  UNL1       -0.2825
     33 H           6.5858   74.1583   29.4747 H       1  UNL1        0.1549
     34 C           8.1297   75.3576   28.6234 C.ar    1  UNL1        0.0535
     35 C           9.3840   74.7394   28.6886 C.ar    1  UNL1        0.0353
     36 C          10.5364   75.5270   28.7509 C.ar    1  UNL1        0.1002
     37 N          10.4357   76.8829   28.7685 N.ar    1  UNL1       -0.2422
     38 C           9.2288   77.5080   28.7326 C.ar    1  UNL1        0.1002
     39 C           8.0525   76.7570   28.6713 C.ar    1  UNL1        0.0353
     40 C           6.0040   73.8576   24.9027 C.3     1  UNL1        0.0569
     41 C           5.6604   75.1106   24.1508 C.ar    1  UNL1       -0.0017
     42 C           6.2212   75.5454   22.9536 C.ar    1  UNL1        0.0681
     43 N           5.6059   76.6722   22.5268 N.ar    1  UNL1       -0.3523
     44 C           4.6557   76.9452   23.4380 C.ar    1  UNL1        0.0563
     45 C           3.7436   77.9997   23.4195 C.ar    1  UNL1        0.0170
     46 C           2.8123   78.0823   24.4713 C.ar    1  UNL1        0.0015
     47 C           2.8120   77.1188   25.5047 C.ar    1  UNL1        0.0001
     48 C           3.7436   76.0655   25.4963 C.ar    1  UNL1        0.0012
     49 C           4.6559   76.0121   24.4424 C.ar    1  UNL1        0.0131
     50 H           5.8181   77.2086   21.6563 H       1  UNL1        0.1660
@<TRIPOS>BOND
     1     1     2    2
     2     2     3   am
     3     3    29    1
     4    29    40    1
     5    40    41    1
     6    41    42   ar
     7    42    43   ar
     8    43    44   ar
     9    44    45   ar
    10    45    46   ar
    11    46    47   ar
    12    47    48   ar
    13    48    49   ar
    14    29    30    1
    15    30    31    2
    16    30    32   am
    17    32    34    1
    18    34    35   ar
    19    35    36   ar
    20    36    37   ar
    21    37    38   ar
    22    38    39   ar
    23     2     5    1
    24     5     6   ar
    25     6     7   ar
    26     7     8   ar
    27     8    12    1
    28    12    13    1
    29    13    14    1
    30    14    15    1
    31    15    18    1
    32    18    19   ar
    33    19    20   ar
    34    20    21   ar
    35    21    25    1
    36    25    26    1
    37    25    27    1
    38    25    28    1
    39    21    22   ar
    40    22    23    1
    41    22    24   ar
    42    15    16    1
    43    16    17    1
    44     8     9   ar
    45     9    10   ar
    46    10    11    1
    47    49    41   ar
    48    39    34   ar
    49    10     5   ar
    50    49    44   ar
    51    17    12    1
    52    24    18   ar
    53     3     4    1
    54    43    50    1
    55    32    33    1
