@<TRIPOS>MOLECULE
*****
 52 57 0 0 0
SMALL
GASTEIGER

@<TRIPOS>ATOM
      1 C         -63.8253  -41.3769  -25.0010 C.ar    1  UNL1        0.0425
      2 C         -63.0519  -41.8680  -23.9348 C.ar    1  UNL1        0.0176
      3 C         -62.0654  -42.8443  -24.1421 C.ar    1  UNL1        0.0503
      4 C         -61.8759  -43.3537  -25.4349 C.ar    1  UNL1        0.0443
      5 C         -62.6190  -42.8648  -26.5072 C.ar    1  UNL1        0.1458
      6 F         -62.3433  -43.3252  -27.7548 F       1  UNL1       -0.2040
      7 C         -63.5686  -41.8469  -26.3136 C.ar    1  UNL1        0.0836
      8 N         -61.2146  -43.2593  -23.0518 N.pl3   1  UNL1       -0.3040
      9 C         -59.8569  -43.7518  -23.3476 C.3     1  UNL1        0.1122
     10 C         -59.4148  -44.8038  -22.3203 C.3     1  UNL1        0.1122
     11 N         -60.5694  -45.6318  -21.9394 N.pl3   1  UNL1       -0.3041
     12 C         -61.7626  -44.9686  -21.3848 C.3     1  UNL1        0.1122
     13 C         -61.7511  -43.4663  -21.6984 C.3     1  UNL1        0.1122
     14 C         -60.6321  -47.0333  -22.2759 C.ar    1  UNL1        0.0479
     15 C         -60.6135  -48.0169  -21.2715 C.ar    1  UNL1        0.0145
     16 C         -60.6159  -49.3734  -21.6063 C.ar    1  UNL1        0.0051
     17 C         -60.6181  -49.7755  -22.9522 C.ar    1  UNL1        0.0715
     18 C         -60.6636  -48.7934  -23.9558 C.ar    1  UNL1        0.0051
     19 C         -60.6574  -47.4366  -23.6207 C.ar    1  UNL1        0.0145
     20 C         -60.6646  -51.2392  -23.3114 C.3     1  UNL1        0.4186
     21 F         -60.2882  -52.0202  -22.2323 F       1  UNL1       -0.1659
     22 F         -59.7999  -51.4772  -24.3632 F       1  UNL1       -0.1659
     23 F         -61.9445  -51.6093  -23.6870 F       1  UNL1       -0.1659
     24 C         -64.1365  -41.1974  -27.5120 C.2     1  UNL1        0.2484
     25 O         -65.2715  -40.6522  -27.4501 O.2     1  UNL1       -0.2701
     26 N         -63.4723  -41.3134  -28.7757 N.am    1  UNL1       -0.2945
     27 H         -62.4287  -41.2876  -28.8100 H       1  UNL1        0.1501
     28 C         -64.1808  -41.8387  -29.9454 C.3     1  UNL1        0.1535
     29 C         -63.2219  -42.5903  -30.8277 C.2     1  UNL1        0.2443
     30 O         -63.3676  -42.5487  -32.0802 O.2     1  UNL1       -0.2730
     31 N         -62.1500  -43.3492  -30.2443 N.am    1  UNL1       -0.2825
     32 H         -62.2185  -43.5955  -29.2309 H       1  UNL1        0.1549
     33 C         -61.0437  -43.8836  -30.9910 C.ar    1  UNL1        0.0535
     34 C         -60.0784  -44.6582  -30.3331 C.ar    1  UNL1        0.0353
     35 C         -58.9889  -45.1600  -31.0490 C.ar    1  UNL1        0.1002
     36 N         -58.8573  -44.8836  -32.3733 N.ar    1  UNL1       -0.2422
     37 C         -59.7659  -44.1188  -33.0344 C.ar    1  UNL1        0.1002
     38 C         -60.8710  -43.5981  -32.3561 C.ar    1  UNL1        0.0353
     39 C         -65.3355  -42.7600  -29.5084 C.3     1  UNL1        0.0569
     40 C         -65.1709  -44.1567  -30.0423 C.ar    1  UNL1       -0.0017
     41 C         -65.4123  -44.5714  -31.3496 C.ar    1  UNL1        0.0681
     42 N         -65.0688  -45.8697  -31.5055 N.ar    1  UNL1       -0.3523
     43 C         -64.6012  -46.2760  -30.3133 C.ar    1  UNL1        0.0563
     44 C         -64.0870  -47.5313  -29.9927 C.ar    1  UNL1        0.0170
     45 C         -63.6064  -47.7298  -28.6861 C.ar    1  UNL1        0.0015
     46 C         -63.6474  -46.6801  -27.7411 C.ar    1  UNL1        0.0001
     47 C         -64.1690  -45.4220  -28.0940 C.ar    1  UNL1        0.0012
     48 C         -64.6417  -45.2566  -29.3955 C.ar    1  UNL1        0.0131
     49 H         -65.1312  -46.4308  -32.3828 H       1  UNL1        0.1660
     50 C         -66.2210  -40.8493  -24.1241 C.3     1  UNL1        0.0773
     51 C         -64.9066  -40.4092  -24.6941 C.2     1  UNL1        0.1737
     52 O         -64.7131  -39.1795  -24.8923 O.2     1  UNL1       -0.2913
@<TRIPOS>BOND
     1    50    51    1
     2    51    52    2
     3    51     1    1
     4     1     2   ar
     5     2     3   ar
     6     3     8    1
     7     8     9    1
     8     9    10    1
     9    10    11    1
    10    11    14    1
    11    14    15   ar
    12    15    16   ar
    13    16    17   ar
    14    17    20    1
    15    20    21    1
    16    20    22    1
    17    20    23    1
    18    17    18   ar
    19    18    19   ar
    20    11    12    1
    21    12    13    1
    22     3     4   ar
    23     4     5   ar
    24     5     6    1
    25     5     7   ar
    26     7    24    1
    27    24    25    2
    28    24    26   am
    29    26    28    1
    30    28    39    1
    31    39    40    1
    32    40    41   ar
    33    41    42   ar
    34    42    43   ar
    35    43    44   ar
    36    44    45   ar
    37    45    46   ar
    38    46    47   ar
    39    47    48   ar
    40    28    29    1
    41    29    30    2
    42    29    31   am
    43    31    33    1
    44    33    34   ar
    45    34    35   ar
    46    35    36   ar
    47    36    37   ar
    48    37    38   ar
    49     7     1   ar
    50    48    40   ar
    51    38    33   ar
    52    13     8    1
    53    48    43   ar
    54    19    14   ar
    55    26    27    1
    56    42    49    1
    57    31    32    1
@<TRIPOS>MOLECULE
*****
 52 57 0 0 0
SMALL
GASTEIGER

@<TRIPOS>ATOM
      1 C         -62.4087  -41.7338  -26.5386 C.ar    1  UNL1        0.0425
      2 C         -61.8883  -42.0496  -25.2715 C.ar    1  UNL1        0.0176
      3 C         -62.6629  -41.9025  -24.1106 C.ar    1  UNL1        0.0503
      4 C         -63.9684  -41.4030  -24.2247 C.ar    1  UNL1        0.0443
      5 C         -64.5079  -41.1036  -25.4738 C.ar    1  UNL1        0.1458
      6 F         -65.8039  -40.7038  -25.5450 F       1  UNL1       -0.2040
      7 C         -63.7551  -41.3028  -26.6439 C.ar    1  UNL1        0.0836
      8 N         -62.1435  -42.3289  -22.8326 N.pl3   1  UNL1       -0.3040
      9 C         -60.7057  -42.6288  -22.7055 C.3     1  UNL1        0.1122
     10 C         -60.4605  -43.7248  -21.6584 C.3     1  UNL1        0.1122
     11 N         -61.5465  -44.7149  -21.7223 N.pl3   1  UNL1       -0.3041
     12 C         -62.9344  -44.2545  -21.5413 C.3     1  UNL1        0.1122
     13 C         -63.0394  -42.7363  -21.7399 C.3     1  UNL1        0.1122
     14 C         -61.3017  -46.0715  -22.1480 C.ar    1  UNL1        0.0479
     15 C         -61.8327  -46.5542  -23.3569 C.ar    1  UNL1        0.0145
     16 C         -61.6406  -47.8854  -23.7352 C.ar    1  UNL1        0.0051
     17 C         -60.9297  -48.7671  -22.9044 C.ar    1  UNL1        0.0715
     18 C         -60.3761  -48.2787  -21.7091 C.ar    1  UNL1        0.0051
     19 C         -60.5716  -46.9480  -21.3292 C.ar    1  UNL1        0.0145
     20 C         -60.6861  -50.1918  -23.3343 C.3     1  UNL1        0.4186
     21 F         -59.3425  -50.4022  -23.5920 F       1  UNL1       -0.1659
     22 F         -61.4110  -50.4509  -24.4823 F       1  UNL1       -0.1659
     23 F         -61.0794  -51.0748  -22.3434 F       1  UNL1       -0.1659
     24 C         -64.4581  -41.2121  -27.9393 C.2     1  UNL1        0.2484
     25 O         -65.6546  -40.8168  -27.9760 O.2     1  UNL1       -0.2701
     26 N         -63.8376  -41.7098  -29.1305 N.am    1  UNL1       -0.2945
     27 H         -62.8103  -41.5787  -29.2659 H       1  UNL1        0.1501
     28 C         -64.5139  -42.7078  -29.9627 C.3     1  UNL1        0.1535
     29 C         -63.5045  -43.4376  -30.8060 C.2     1  UNL1        0.2443
     30 O         -63.8720  -43.9802  -31.8841 O.2     1  UNL1       -0.2730
     31 N         -62.1332  -43.5144  -30.3829 N.am    1  UNL1       -0.2825
     32 H         -61.9174  -43.3128  -29.3804 H       1  UNL1        0.1549
     33 C         -61.0552  -43.9568  -31.2251 C.ar    1  UNL1        0.0535
     34 C         -60.0311  -44.7420  -30.6782 C.ar    1  UNL1        0.0353
     35 C         -58.9691  -45.1546  -31.4864 C.ar    1  UNL1        0.1002
     36 N         -58.9213  -44.7816  -32.7926 N.ar    1  UNL1       -0.2422
     37 C         -59.8886  -44.0038  -33.3465 C.ar    1  UNL1        0.1002
     38 C         -60.9689  -43.5704  -32.5735 C.ar    1  UNL1        0.0353
     39 C         -65.2935  -43.7046  -29.0842 C.3     1  UNL1        0.0569
     40 C         -64.7106  -45.0895  -29.1556 C.ar    1  UNL1       -0.0017
     41 C         -64.9616  -46.0378  -30.1441 C.ar    1  UNL1        0.0681
     42 N         -64.1977  -47.1364  -29.9512 N.ar    1  UNL1       -0.3523
     43 C         -63.4576  -46.8869  -28.8580 C.ar    1  UNL1        0.0563
     44 C         -62.4868  -47.7111  -28.2910 C.ar    1  UNL1        0.0170
     45 C         -61.7941  -47.2311  -27.1653 C.ar    1  UNL1        0.0015
     46 C         -62.0819  -45.9516  -26.6394 C.ar    1  UNL1        0.0001
     47 C         -63.0649  -45.1399  -27.2347 C.ar    1  UNL1        0.0012
     48 C         -63.7377  -45.6445  -28.3471 C.ar    1  UNL1        0.0131
     49 H         -64.1722  -47.9916  -30.5481 H       1  UNL1        0.1660
     50 C         -60.3938  -42.8362  -27.7680 C.3     1  UNL1        0.0773
     51 C         -61.5055  -41.8326  -27.7109 C.2     1  UNL1        0.1737
     52 O         -61.6870  -41.0721  -28.6997 O.2     1  UNL1       -0.2913
@<TRIPOS>BOND
     1    50    51    1
     2    51    52    2
     3    51     1    1
     4     1     2   ar
     5     2     3   ar
     6     3     8    1
     7     8     9    1
     8     9    10    1
     9    10    11    1
    10    11    14    1
    11    14    15   ar
    12    15    16   ar
    13    16    17   ar
    14    17    20    1
    15    20    21    1
    16    20    22    1
    17    20    23    1
    18    17    18   ar
    19    18    19   ar
    20    11    12    1
    21    12    13    1
    22     3     4   ar
    23     4     5   ar
    24     5     6    1
    25     5     7   ar
    26     7    24    1
    27    24    25    2
    28    24    26   am
    29    26    28    1
    30    28    39    1
    31    39    40    1
    32    40    41   ar
    33    41    42   ar
    34    42    43   ar
    35    43    44   ar
    36    44    45   ar
    37    45    46   ar
    38    46    47   ar
    39    47    48   ar
    40    28    29    1
    41    29    30    2
    42    29    31   am
    43    31    33    1
    44    33    34   ar
    45    34    35   ar
    46    35    36   ar
    47    36    37   ar
    48    37    38   ar
    49     7     1   ar
    50    48    40   ar
    51    38    33   ar
    52    13     8    1
    53    48    43   ar
    54    19    14   ar
    55    26    27    1
    56    42    49    1
    57    31    32    1
@<TRIPOS>MOLECULE
*****
 52 57 0 0 0
SMALL
GASTEIGER

@<TRIPOS>ATOM
      1 C         -63.0158  -41.5303  -26.4773 C.ar    1  UNL1        0.0425
      2 C         -62.7526  -41.7084  -25.1080 C.ar    1  UNL1        0.0176
      3 C         -63.7199  -41.4072  -24.1370 C.ar    1  UNL1        0.0503
      4 C         -64.9577  -40.8923  -24.5490 C.ar    1  UNL1        0.0443
      5 C         -65.2437  -40.7280  -25.9026 C.ar    1  UNL1        0.1458
      6 F         -66.4847  -40.3074  -26.2600 F       1  UNL1       -0.2040
      7 C         -64.2986  -41.0815  -26.8809 C.ar    1  UNL1        0.0836
      8 N         -63.4648  -41.6937  -22.7449 N.pl3   1  UNL1       -0.3040
      9 C         -62.3665  -40.9915  -22.0567 C.3     1  UNL1        0.1122
     10 C         -61.7464  -41.8732  -20.9632 C.3     1  UNL1        0.1122
     11 N         -61.7267  -43.2729  -21.4155 N.pl3   1  UNL1       -0.3041
     12 C         -62.9979  -43.9076  -21.8058 C.3     1  UNL1        0.1122
     13 C         -64.0780  -42.8515  -22.0771 C.3     1  UNL1        0.1122
     14 C         -60.4853  -43.9628  -21.6689 C.ar    1  UNL1        0.0479
     15 C         -59.3180  -43.2497  -21.9934 C.ar    1  UNL1        0.0145
     16 C         -58.1333  -43.9266  -22.2944 C.ar    1  UNL1        0.0051
     17 C         -58.0951  -45.3307  -22.2957 C.ar    1  UNL1        0.0715
     18 C         -59.2541  -46.0433  -21.9454 C.ar    1  UNL1        0.0051
     19 C         -60.4399  -45.3661  -21.6480 C.ar    1  UNL1        0.0145
     20 C         -56.8052  -46.0589  -22.5781 C.3     1  UNL1        0.4186
     21 F         -56.0578  -46.1969  -21.4213 F       1  UNL1       -0.1659
     22 F         -56.0721  -45.3427  -23.5055 F       1  UNL1       -0.1659
     23 F         -57.0586  -47.3230  -23.0822 F       1  UNL1       -0.1659
     24 C         -64.7462  -41.1257  -28.2873 C.2     1  UNL1        0.2484
     25 O         -65.8787  -40.6677  -28.5986 O.2     1  UNL1       -0.2701
     26 N         -63.9655  -41.8174  -29.2690 N.am    1  UNL1       -0.2945
     27 H         -62.9233  -41.7681  -29.2220 H       1  UNL1        0.1501
     28 C         -64.5626  -42.8768  -30.0858 C.3     1  UNL1        0.1535
     29 C         -63.4902  -43.5817  -30.8705 C.2     1  UNL1        0.2443
     30 O         -63.7773  -44.1077  -31.9808 O.2     1  UNL1       -0.2730
     31 N         -62.1504  -43.6536  -30.3558 N.am    1  UNL1       -0.2825
     32 H         -62.0058  -43.4685  -29.3373 H       1  UNL1        0.1549
     33 C         -61.0127  -44.0705  -31.1296 C.ar    1  UNL1        0.0535
     34 C         -59.9994  -44.8200  -30.5164 C.ar    1  UNL1        0.0353
     35 C         -58.8805  -45.2073  -31.2577 C.ar    1  UNL1        0.1002
     36 N         -58.7679  -44.8441  -32.5626 N.ar    1  UNL1       -0.2422
     37 C         -59.7239  -44.1005  -33.1794 C.ar    1  UNL1        0.1002
     38 C         -60.8596  -43.6931  -32.4747 C.ar    1  UNL1        0.0353
     39 C         -65.3193  -43.8821  -29.1970 C.3     1  UNL1        0.0569
     40 C         -64.6383  -45.2230  -29.1625 C.ar    1  UNL1       -0.0017
     41 C         -64.6273  -46.1667  -30.1866 C.ar    1  UNL1        0.0681
     42 N         -63.8401  -47.2149  -29.8560 N.ar    1  UNL1       -0.3523
     43 C         -63.3437  -46.9374  -28.6388 C.ar    1  UNL1        0.0563
     44 C         -62.4452  -47.7051  -27.8996 C.ar    1  UNL1        0.0170
     45 C         -62.0175  -47.2014  -26.6582 C.ar    1  UNL1        0.0015
     46 C         -62.4899  -45.9545  -26.1904 C.ar    1  UNL1        0.0001
     47 C         -63.3940  -45.1995  -26.9599 C.ar    1  UNL1        0.0012
     48 C         -63.8030  -45.7267  -28.1844 C.ar    1  UNL1        0.0131
     49 H         -63.6405  -48.0548  -30.4419 H       1  UNL1        0.1660
     50 C         -60.8723  -42.8309  -27.1846 C.3     1  UNL1        0.0773
     51 C         -61.9179  -41.7882  -27.4406 C.2     1  UNL1        0.1737
     52 O         -61.8705  -41.1336  -28.5168 O.2     1  UNL1       -0.2913
@<TRIPOS>BOND
     1    50    51    1
     2    51    52    2
     3    51     1    1
     4     1     2   ar
     5     2     3   ar
     6     3     8    1
     7     8     9    1
     8     9    10    1
     9    10    11    1
    10    11    14    1
    11    14    15   ar
    12    15    16   ar
    13    16    17   ar
    14    17    20    1
    15    20    21    1
    16    20    22    1
    17    20    23    1
    18    17    18   ar
    19    18    19   ar
    20    11    12    1
    21    12    13    1
    22     3     4   ar
    23     4     5   ar
    24     5     6    1
    25     5     7   ar
    26     7    24    1
    27    24    25    2
    28    24    26   am
    29    26    28    1
    30    28    39    1
    31    39    40    1
    32    40    41   ar
    33    41    42   ar
    34    42    43   ar
    35    43    44   ar
    36    44    45   ar
    37    45    46   ar
    38    46    47   ar
    39    47    48   ar
    40    28    29    1
    41    29    30    2
    42    29    31   am
    43    31    33    1
    44    33    34   ar
    45    34    35   ar
    46    35    36   ar
    47    36    37   ar
    48    37    38   ar
    49     7     1   ar
    50    48    40   ar
    51    38    33   ar
    52    13     8    1
    53    48    43   ar
    54    19    14   ar
    55    26    27    1
    56    42    49    1
    57    31    32    1
@<TRIPOS>MOLECULE
*****
 52 57 0 0 0
SMALL
GASTEIGER

@<TRIPOS>ATOM
      1 C         -63.3787  -41.8529  -25.2052 C.ar    1  UNL1        0.0425
      2 C         -63.2759  -41.9672  -23.8079 C.ar    1  UNL1        0.0176
      3 C         -62.3346  -42.8234  -23.2163 C.ar    1  UNL1        0.0503
      4 C         -61.5064  -43.5965  -24.0430 C.ar    1  UNL1        0.0443
      5 C         -61.5803  -43.4817  -25.4295 C.ar    1  UNL1        0.1458
      6 F         -60.7014  -44.1852  -26.1893 F       1  UNL1       -0.2040
      7 C         -62.4825  -42.5837  -26.0253 C.ar    1  UNL1        0.0836
      8 N         -62.1773  -42.8485  -21.7811 N.pl3   1  UNL1       -0.3040
      9 C         -63.3734  -42.9820  -20.9298 C.3     1  UNL1        0.1122
     10 C         -63.1826  -42.2546  -19.5911 C.3     1  UNL1        0.1122
     11 N         -62.4121  -41.0208  -19.8097 N.pl3   1  UNL1       -0.3041
     12 C         -61.0815  -41.1198  -20.4351 C.3     1  UNL1        0.1122
     13 C         -60.9073  -42.4699  -21.1438 C.3     1  UNL1        0.1122
     14 C         -63.0039  -39.7203  -19.6096 C.ar    1  UNL1        0.0479
     15 C         -63.9284  -39.5014  -18.5734 C.ar    1  UNL1        0.0145
     16 C         -64.5415  -38.2551  -18.4208 C.ar    1  UNL1        0.0051
     17 C         -64.2577  -37.2071  -19.3119 C.ar    1  UNL1        0.0715
     18 C         -63.3139  -37.4173  -20.3312 C.ar    1  UNL1        0.0051
     19 C         -62.7036  -38.6650  -20.4859 C.ar    1  UNL1        0.0145
     20 C         -64.8870  -35.8503  -19.1199 C.3     1  UNL1        0.4186
     21 F         -64.9244  -35.5138  -17.7777 F       1  UNL1       -0.1659
     22 F         -66.1774  -35.8733  -19.6148 F       1  UNL1       -0.1659
     23 F         -64.1643  -34.8778  -19.7892 F       1  UNL1       -0.1659
     24 C         -62.3396  -42.3211  -27.4713 C.2     1  UNL1        0.2484
     25 O         -61.8302  -41.2366  -27.8633 O.2     1  UNL1       -0.2701
     26 N         -62.9099  -43.2239  -28.4259 N.am    1  UNL1       -0.2945
     27 H         -62.8811  -44.2513  -28.2399 H       1  UNL1        0.1501
     28 C         -63.8474  -42.7404  -29.4424 C.3     1  UNL1        0.1535
     29 C         -63.1982  -42.7869  -30.7986 C.2     1  UNL1        0.2443
     30 O         -63.5309  -41.9431  -31.6756 O.2     1  UNL1       -0.2730
     31 N         -62.2076  -43.7866  -31.0891 N.am    1  UNL1       -0.2825
     32 H         -62.1587  -44.6241  -30.4658 H       1  UNL1        0.1549
     33 C         -61.3534  -43.7604  -32.2452 C.ar    1  UNL1        0.0535
     34 C         -61.8859  -43.3887  -33.4873 C.ar    1  UNL1        0.0353
     35 C         -61.0659  -43.3844  -34.6182 C.ar    1  UNL1        0.1002
     36 N         -59.7624  -43.7556  -34.5167 N.ar    1  UNL1       -0.2422
     37 C         -59.2223  -44.1405  -33.3303 C.ar    1  UNL1        0.1002
     38 C         -60.0073  -44.1580  -32.1745 C.ar    1  UNL1        0.0353
     39 C         -65.1329  -43.5893  -29.4386 C.3     1  UNL1        0.0569
     40 C         -64.8369  -45.0554  -29.6000 C.ar    1  UNL1       -0.0017
     41 C         -64.9859  -45.8012  -30.7666 C.ar    1  UNL1        0.0681
     42 N         -64.5365  -47.0629  -30.5825 N.ar    1  UNL1       -0.3523
     43 C         -64.0936  -47.1183  -29.3153 C.ar    1  UNL1        0.0563
     44 C         -63.4992  -48.2055  -28.6767 C.ar    1  UNL1        0.0170
     45 C         -63.0646  -48.0309  -27.3508 C.ar    1  UNL1        0.0015
     46 C         -63.2294  -46.7869  -26.7013 C.ar    1  UNL1        0.0001
     47 C         -63.8300  -45.7057  -27.3720 C.ar    1  UNL1        0.0012
     48 C         -64.2544  -45.9102  -28.6846 C.ar    1  UNL1        0.0131
     49 H         -64.5155  -47.8277  -31.2918 H       1  UNL1        0.1660
     50 C         -65.2049  -40.0194  -24.9052 C.3     1  UNL1        0.0773
     51 C         -64.4529  -40.9938  -25.7603 C.2     1  UNL1        0.1737
     52 O         -64.7294  -41.0620  -26.9882 O.2     1  UNL1       -0.2913
@<TRIPOS>BOND
     1    50    51    1
     2    51    52    2
     3    51     1    1
     4     1     2   ar
     5     2     3   ar
     6     3     8    1
     7     8     9    1
     8     9    10    1
     9    10    11    1
    10    11    14    1
    11    14    15   ar
    12    15    16   ar
    13    16    17   ar
    14    17    20    1
    15    20    21    1
    16    20    22    1
    17    20    23    1
    18    17    18   ar
    19    18    19   ar
    20    11    12    1
    21    12    13    1
    22     3     4   ar
    23     4     5   ar
    24     5     6    1
    25     5     7   ar
    26     7    24    1
    27    24    25    2
    28    24    26   am
    29    26    28    1
    30    28    39    1
    31    39    40    1
    32    40    41   ar
    33    41    42   ar
    34    42    43   ar
    35    43    44   ar
    36    44    45   ar
    37    45    46   ar
    38    46    47   ar
    39    47    48   ar
    40    28    29    1
    41    29    30    2
    42    29    31   am
    43    31    33    1
    44    33    34   ar
    45    34    35   ar
    46    35    36   ar
    47    36    37   ar
    48    37    38   ar
    49     7     1   ar
    50    48    40   ar
    51    38    33   ar
    52    13     8    1
    53    48    43   ar
    54    19    14   ar
    55    26    27    1
    56    42    49    1
    57    31    32    1
@<TRIPOS>MOLECULE
*****
 52 57 0 0 0
SMALL
GASTEIGER

@<TRIPOS>ATOM
      1 C         -62.8609  -41.6232  -26.6475 C.ar    1  UNL1        0.0425
      2 C         -62.5648  -41.8771  -25.2969 C.ar    1  UNL1        0.0176
      3 C         -63.5078  -41.6300  -24.2875 C.ar    1  UNL1        0.0503
      4 C         -64.7543  -41.0925  -24.6400 C.ar    1  UNL1        0.0443
      5 C         -65.0728  -40.8532  -25.9751 C.ar    1  UNL1        0.1458
      6 F         -66.3214  -40.4129  -26.2783 F       1  UNL1       -0.2040
      7 C         -64.1523  -41.1522  -26.9942 C.ar    1  UNL1        0.0836
      8 N         -63.2195  -41.9934  -22.9201 N.pl3   1  UNL1       -0.3040
      9 C         -64.3322  -42.1248  -21.9620 C.3     1  UNL1        0.1122
     10 C         -63.8861  -41.7473  -20.5421 C.3     1  UNL1        0.1122
     11 N         -62.9324  -40.6293  -20.6095 N.pl3   1  UNL1       -0.3041
     12 C         -61.7078  -40.7923  -21.4125 C.3     1  UNL1        0.1122
     13 C         -61.8467  -41.9642  -22.3937 C.3     1  UNL1        0.1122
     14 C         -63.2604  -39.3293  -20.0766 C.ar    1  UNL1        0.0479
     15 C         -64.1699  -39.1952  -19.0130 C.ar    1  UNL1        0.0145
     16 C         -64.5273  -37.9300  -18.5400 C.ar    1  UNL1        0.0051
     17 C         -63.9976  -36.7717  -19.1322 C.ar    1  UNL1        0.0715
     18 C         -63.0684  -36.9058  -20.1774 C.ar    1  UNL1        0.0051
     19 C         -62.7139  -38.1713  -20.6528 C.ar    1  UNL1        0.0145
     20 C         -64.3506  -35.4087  -18.5925 C.3     1  UNL1        0.4186
     21 F         -63.2128  -34.7340  -18.1850 F       1  UNL1       -0.1659
     22 F         -65.2000  -35.5534  -17.5116 F       1  UNL1       -0.1659
     23 F         -64.9802  -34.6476  -19.5623 F       1  UNL1       -0.1659
     24 C         -64.6341  -41.1181  -28.3896 C.2     1  UNL1        0.2484
     25 O         -65.7819  -40.6637  -28.6447 O.2     1  UNL1       -0.2701
     26 N         -63.8659  -41.7327  -29.4307 N.am    1  UNL1       -0.2945
     27 H         -62.8239  -41.6664  -29.4056 H       1  UNL1        0.1501
     28 C         -64.4643  -42.7509  -30.2974 C.3     1  UNL1        0.1535
     29 C         -63.3831  -43.4934  -31.0340 C.2     1  UNL1        0.2443
     30 O         -63.6621  -44.0902  -32.1100 O.2     1  UNL1       -0.2730
     31 N         -62.0443  -43.5208  -30.5123 N.am    1  UNL1       -0.2825
     32 H         -61.9046  -43.2713  -29.5071 H       1  UNL1        0.1549
     33 C         -60.9005  -43.9745  -31.2558 C.ar    1  UNL1        0.0535
     34 C         -60.7863  -43.6454  -32.6135 C.ar    1  UNL1        0.0353
     35 C         -59.6889  -44.1037  -33.3464 C.ar    1  UNL1        0.1002
     36 N         -58.7459  -44.8791  -32.7492 N.ar    1  UNL1       -0.2422
     37 C         -58.8393  -45.2319  -31.4399 C.ar    1  UNL1        0.1002
     38 C         -59.9203  -44.7939  -30.6704 C.ar    1  UNL1        0.0353
     39 C         -65.3146  -43.7329  -29.4692 C.3     1  UNL1        0.0569
     40 C         -64.6850  -45.0973  -29.3981 C.ar    1  UNL1       -0.0017
     41 C         -64.6915  -46.0597  -30.4045 C.ar    1  UNL1        0.0681
     42 N         -63.9500  -47.1301  -30.0408 N.ar    1  UNL1       -0.3523
     43 C         -63.4650  -46.8485  -28.8200 C.ar    1  UNL1        0.0563
     44 C         -62.6090  -47.6351  -28.0507 C.ar    1  UNL1        0.0170
     45 C         -62.1847  -47.1245  -26.8111 C.ar    1  UNL1        0.0015
     46 C         -62.6180  -45.8524  -26.3746 C.ar    1  UNL1        0.0001
     47 C         -63.4796  -45.0789  -27.1739 C.ar    1  UNL1        0.0012
     48 C         -63.8866  -45.6133  -28.3959 C.ar    1  UNL1        0.0131
     49 H         -63.7718  -47.9877  -30.6077 H       1  UNL1        0.1660
     50 C         -60.7294  -42.8742  -27.4711 C.3     1  UNL1        0.0773
     51 C         -61.7872  -41.8276  -27.6501 C.2     1  UNL1        0.1737
     52 O         -61.7716  -41.1225  -28.6948 O.2     1  UNL1       -0.2913
@<TRIPOS>BOND
     1    50    51    1
     2    51    52    2
     3    51     1    1
     4     1     2   ar
     5     2     3   ar
     6     3     8    1
     7     8     9    1
     8     9    10    1
     9    10    11    1
    10    11    14    1
    11    14    15   ar
    12    15    16   ar
    13    16    17   ar
    14    17    20    1
    15    20    21    1
    16    20    22    1
    17    20    23    1
    18    17    18   ar
    19    18    19   ar
    20    11    12    1
    21    12    13    1
    22     3     4   ar
    23     4     5   ar
    24     5     6    1
    25     5     7   ar
    26     7    24    1
    27    24    25    2
    28    24    26   am
    29    26    28    1
    30    28    39    1
    31    39    40    1
    32    40    41   ar
    33    41    42   ar
    34    42    43   ar
    35    43    44   ar
    36    44    45   ar
    37    45    46   ar
    38    46    47   ar
    39    47    48   ar
    40    28    29    1
    41    29    30    2
    42    29    31   am
    43    31    33    1
    44    33    34   ar
    45    34    35   ar
    46    35    36   ar
    47    36    37   ar
    48    37    38   ar
    49     7     1   ar
    50    48    40   ar
    51    38    33   ar
    52    13     8    1
    53    48    43   ar
    54    19    14   ar
    55    26    27    1
    56    42    49    1
    57    31    32    1
@<TRIPOS>MOLECULE
*****
 52 57 0 0 0
SMALL
GASTEIGER

@<TRIPOS>ATOM
      1 C         -61.2240  -43.7699  -23.9211 C.ar    1  UNL1        0.0425
      2 C         -62.1655  -43.4559  -22.9256 C.ar    1  UNL1        0.0176
      3 C         -63.2310  -42.5798  -23.1837 C.ar    1  UNL1        0.0503
      4 C         -63.3324  -41.9897  -24.4518 C.ar    1  UNL1        0.0443
      5 C         -62.4203  -42.3045  -25.4569 C.ar    1  UNL1        0.1458
      6 F         -62.6060  -41.7761  -26.6942 F       1  UNL1       -0.2040
      7 C         -61.3848  -43.2246  -25.2198 C.ar    1  UNL1        0.0836
      8 N         -64.2426  -42.3515  -22.1790 N.pl3   1  UNL1       -0.3040
      9 C         -65.3168  -41.3788  -22.4495 C.3     1  UNL1        0.1122
     10 C         -65.7885  -40.7023  -21.1543 C.3     1  UNL1        0.1122
     11 N         -64.6363  -40.4908  -20.2646 N.pl3   1  UNL1       -0.3041
     12 C         -63.8267  -41.6560  -19.8672 C.3     1  UNL1        0.1122
     13 C         -64.0802  -42.8454  -20.8034 C.3     1  UNL1        0.1122
     14 C         -64.1729  -39.1640  -19.9387 C.ar    1  UNL1        0.0479
     15 C         -64.8298  -38.3901  -18.9661 C.ar    1  UNL1        0.0145
     16 C         -64.4115  -37.0845  -18.6964 C.ar    1  UNL1        0.0051
     17 C         -63.3398  -36.5183  -19.4062 C.ar    1  UNL1        0.0715
     18 C         -62.6660  -37.3003  -20.3593 C.ar    1  UNL1        0.0051
     19 C         -63.0869  -38.6049  -20.6314 C.ar    1  UNL1        0.0145
     20 C         -62.8619  -35.1250  -19.0838 C.3     1  UNL1        0.4186
     21 F         -63.7802  -34.4651  -18.2855 F       1  UNL1       -0.1659
     22 F         -62.6965  -34.4173  -20.2596 F       1  UNL1       -0.1659
     23 F         -61.6541  -35.1671  -18.4088 F       1  UNL1       -0.1659
     24 C         -60.6122  -43.7073  -26.3820 C.2     1  UNL1        0.2484
     25 O         -60.4583  -42.9599  -27.3855 O.2     1  UNL1       -0.2701
     26 N         -60.1660  -45.0673  -26.4342 N.am    1  UNL1       -0.2945
     27 H         -59.8322  -45.5306  -25.5597 H       1  UNL1        0.1501
     28 C         -60.5160  -45.9241  -27.5697 C.3     1  UNL1        0.1535
     29 C         -61.4194  -47.0358  -27.1107 C.2     1  UNL1        0.2443
     30 O         -61.8528  -47.8709  -27.9513 O.2     1  UNL1       -0.2730
     31 N         -61.7843  -47.1417  -25.7248 N.am    1  UNL1       -0.2825
     32 H         -61.6520  -46.3016  -25.1173 H       1  UNL1        0.1549
     33 C         -62.4205  -48.2939  -25.1463 C.ar    1  UNL1        0.0535
     34 C         -61.6630  -49.1833  -24.3720 C.ar    1  UNL1        0.0353
     35 C         -62.2709  -50.3170  -23.8273 C.ar    1  UNL1        0.1002
     36 N         -63.5866  -50.5645  -24.0620 N.ar    1  UNL1       -0.2422
     37 C         -64.3424  -49.7317  -24.8254 C.ar    1  UNL1        0.1002
     38 C         -63.7738  -48.5860  -25.3881 C.ar    1  UNL1        0.0353
     39 C         -61.2044  -45.1011  -28.6751 C.3     1  UNL1        0.0569
     40 C         -60.3283  -44.9490  -29.8885 C.ar    1  UNL1       -0.0017
     41 C         -59.0581  -45.4935  -30.0595 C.ar    1  UNL1        0.0681
     42 N         -58.5984  -45.2408  -31.3055 N.ar    1  UNL1       -0.3523
     43 C         -59.5704  -44.5528  -31.9276 C.ar    1  UNL1        0.0563
     44 C         -59.5738  -44.1045  -33.2475 C.ar    1  UNL1        0.0170
     45 C         -60.7221  -43.4386  -33.7117 C.ar    1  UNL1        0.0015
     46 C         -61.8296  -43.2406  -32.8569 C.ar    1  UNL1        0.0001
     47 C         -61.7994  -43.7071  -31.5299 C.ar    1  UNL1        0.0012
     48 C         -60.6457  -44.3601  -31.0970 C.ar    1  UNL1        0.0131
     49 H         -57.6843  -45.5434  -31.7070 H       1  UNL1        0.1660
     50 C         -58.8932  -44.1002  -22.8053 C.3     1  UNL1        0.0773
     51 C         -60.0772  -44.6353  -23.5522 C.2     1  UNL1        0.1737
     52 O         -60.1032  -45.8599  -23.8501 O.2     1  UNL1       -0.2913
@<TRIPOS>BOND
     1    50    51    1
     2    51    52    2
     3    51     1    1
     4     1     2   ar
     5     2     3   ar
     6     3     8    1
     7     8     9    1
     8     9    10    1
     9    10    11    1
    10    11    14    1
    11    14    15   ar
    12    15    16   ar
    13    16    17   ar
    14    17    20    1
    15    20    21    1
    16    20    22    1
    17    20    23    1
    18    17    18   ar
    19    18    19   ar
    20    11    12    1
    21    12    13    1
    22     3     4   ar
    23     4     5   ar
    24     5     6    1
    25     5     7   ar
    26     7    24    1
    27    24    25    2
    28    24    26   am
    29    26    28    1
    30    28    39    1
    31    39    40    1
    32    40    41   ar
    33    41    42   ar
    34    42    43   ar
    35    43    44   ar
    36    44    45   ar
    37    45    46   ar
    38    46    47   ar
    39    47    48   ar
    40    28    29    1
    41    29    30    2
    42    29    31   am
    43    31    33    1
    44    33    34   ar
    45    34    35   ar
    46    35    36   ar
    47    36    37   ar
    48    37    38   ar
    49     7     1   ar
    50    48    40   ar
    51    38    33   ar
    52    13     8    1
    53    48    43   ar
    54    19    14   ar
    55    26    27    1
    56    42    49    1
    57    31    32    1
@<TRIPOS>MOLECULE
*****
 52 57 0 0 0
SMALL
GASTEIGER

@<TRIPOS>ATOM
      1 C         -60.4455  -43.9867  -22.8235 C.ar    1  UNL1        0.0425
      2 C         -60.6591  -45.0286  -23.7427 C.ar    1  UNL1        0.0176
      3 C         -61.7013  -45.9515  -23.5655 C.ar    1  UNL1        0.0503
      4 C         -62.5203  -45.8411  -22.4324 C.ar    1  UNL1        0.0443
      5 C         -62.3363  -44.8033  -21.5213 C.ar    1  UNL1        0.1458
      6 F         -63.2056  -44.6846  -20.4845 F       1  UNL1       -0.2040
      7 C         -61.3296  -43.8438  -21.7245 C.ar    1  UNL1        0.0836
      8 N         -61.9654  -46.9506  -24.5741 N.pl3   1  UNL1       -0.3040
      9 C         -60.8500  -47.4529  -25.3968 C.3     1  UNL1        0.1122
     10 C         -61.3316  -47.8419  -26.8019 C.3     1  UNL1        0.1122
     11 N         -62.3723  -46.8996  -27.2413 N.pl3   1  UNL1       -0.3041
     12 C         -63.5761  -46.7369  -26.4073 C.3     1  UNL1        0.1122
     13 C         -63.3384  -47.2743  -24.9895 C.3     1  UNL1        0.1122
     14 C         -62.1530  -46.0014  -28.3488 C.ar    1  UNL1        0.0479
     15 C         -63.2265  -45.5604  -29.1422 C.ar    1  UNL1        0.0145
     16 C         -63.0003  -44.7371  -30.2482 C.ar    1  UNL1        0.0051
     17 C         -61.6948  -44.3524  -30.5955 C.ar    1  UNL1        0.0715
     18 C         -60.6244  -44.7708  -29.7875 C.ar    1  UNL1        0.0051
     19 C         -60.8505  -45.5974  -28.6835 C.ar    1  UNL1        0.0145
     20 C         -61.4564  -43.4287  -31.7633 C.3     1  UNL1        0.4186
     21 F         -60.2368  -43.6986  -32.3596 F       1  UNL1       -0.1659
     22 F         -61.4600  -42.1206  -31.3167 F       1  UNL1       -0.1659
     23 F         -62.4473  -43.5825  -32.7176 F       1  UNL1       -0.1659
     24 C         -61.3460  -42.6370  -20.8737 C.2     1  UNL1        0.2484
     25 O         -60.6443  -42.5994  -19.8271 O.2     1  UNL1       -0.2701
     26 N         -62.2642  -41.5735  -21.1520 N.am    1  UNL1       -0.2945
     27 H         -62.4684  -41.3198  -22.1443 H       1  UNL1        0.1501
     28 C         -63.1918  -41.1002  -20.1217 C.3     1  UNL1        0.1535
     29 C         -63.1881  -39.5964  -20.0837 C.2     1  UNL1        0.2443
     30 O         -62.6143  -38.9533  -21.0051 O.2     1  UNL1       -0.2730
     31 N         -63.8338  -38.9016  -19.0041 N.am    1  UNL1       -0.2825
     32 H         -64.0454  -39.4383  -18.1326 H       1  UNL1        0.1549
     33 C         -64.1079  -37.4903  -19.0058 C.ar    1  UNL1        0.0535
     34 C         -63.1575  -36.6030  -18.4824 C.ar    1  UNL1        0.0353
     35 C         -63.4289  -35.2329  -18.4599 C.ar    1  UNL1        0.1002
     36 N         -64.6162  -34.7651  -18.9277 N.ar    1  UNL1       -0.2422
     37 C         -65.5658  -35.6023  -19.4225 C.ar    1  UNL1        0.1002
     38 C         -65.3343  -36.9796  -19.4644 C.ar    1  UNL1        0.0353
     39 C         -64.6151  -41.6219  -20.3959 C.3     1  UNL1        0.0569
     40 C         -65.2544  -40.9197  -21.5626 C.ar    1  UNL1       -0.0017
     41 C         -66.2721  -39.9715  -21.4950 C.ar    1  UNL1        0.0681
     42 N         -66.5399  -39.4758  -22.7239 N.ar    1  UNL1       -0.3523
     43 C         -65.6931  -40.0921  -23.5656 C.ar    1  UNL1        0.0563
     44 C         -65.5634  -39.8789  -24.9370 C.ar    1  UNL1        0.0170
     45 C         -64.5741  -40.6051  -25.6236 C.ar    1  UNL1        0.0015
     46 C         -63.7443  -41.5154  -24.9314 C.ar    1  UNL1        0.0001
     47 C         -63.8957  -41.7077  -23.5459 C.ar    1  UNL1        0.0012
     48 C         -64.8878  -40.9766  -22.8932 C.ar    1  UNL1        0.0131
     49 H         -67.2442  -38.7439  -22.9619 H       1  UNL1        0.1660
     50 C         -57.9457  -43.3902  -22.3975 C.3     1  UNL1        0.0773
     51 C         -59.2737  -43.1010  -23.0290 C.2     1  UNL1        0.1737
     52 O         -59.3836  -42.0896  -23.7732 O.2     1  UNL1       -0.2913
@<TRIPOS>BOND
     1    50    51    1
     2    51    52    2
     3    51     1    1
     4     1     2   ar
     5     2     3   ar
     6     3     8    1
     7     8     9    1
     8     9    10    1
     9    10    11    1
    10    11    14    1
    11    14    15   ar
    12    15    16   ar
    13    16    17   ar
    14    17    20    1
    15    20    21    1
    16    20    22    1
    17    20    23    1
    18    17    18   ar
    19    18    19   ar
    20    11    12    1
    21    12    13    1
    22     3     4   ar
    23     4     5   ar
    24     5     6    1
    25     5     7   ar
    26     7    24    1
    27    24    25    2
    28    24    26   am
    29    26    28    1
    30    28    39    1
    31    39    40    1
    32    40    41   ar
    33    41    42   ar
    34    42    43   ar
    35    43    44   ar
    36    44    45   ar
    37    45    46   ar
    38    46    47   ar
    39    47    48   ar
    40    28    29    1
    41    29    30    2
    42    29    31   am
    43    31    33    1
    44    33    34   ar
    45    34    35   ar
    46    35    36   ar
    47    36    37   ar
    48    37    38   ar
    49     7     1   ar
    50    48    40   ar
    51    38    33   ar
    52    13     8    1
    53    48    43   ar
    54    19    14   ar
    55    26    27    1
    56    42    49    1
    57    31    32    1
@<TRIPOS>MOLECULE
*****
 52 57 0 0 0
SMALL
GASTEIGER

@<TRIPOS>ATOM
      1 C         -63.1619  -41.9226  -24.8202 C.ar    1  UNL1        0.0425
      2 C         -63.2731  -41.9770  -23.4199 C.ar    1  UNL1        0.0176
      3 C         -62.4944  -42.8659  -22.6632 C.ar    1  UNL1        0.0503
      4 C         -61.6138  -43.7317  -23.3279 C.ar    1  UNL1        0.0443
      5 C         -61.4756  -43.6783  -24.7132 C.ar    1  UNL1        0.1458
      6 F         -60.5496  -44.4750  -25.3068 F       1  UNL1       -0.2040
      7 C         -62.2120  -42.7506  -25.4697 C.ar    1  UNL1        0.0836
      8 N         -62.5508  -42.8333  -21.2207 N.pl3   1  UNL1       -0.3040
      9 C         -63.8648  -42.8563  -20.5526 C.3     1  UNL1        0.1122
     10 C         -63.8251  -42.0798  -19.2286 C.3     1  UNL1        0.1122
     11 N         -62.9520  -40.9050  -19.3760 N.pl3   1  UNL1       -0.3041
     12 C         -61.5536  -41.1113  -19.7920 C.3     1  UNL1        0.1122
     13 C         -61.3659  -42.5009  -20.4158 C.3     1  UNL1        0.1122
     14 C         -63.4808  -39.5641  -19.3150 C.ar    1  UNL1        0.0479
     15 C         -63.0140  -38.5652  -20.1872 C.ar    1  UNL1        0.0145
     16 C         -63.4882  -37.2550  -20.0845 C.ar    1  UNL1        0.0051
     17 C         -64.4249  -36.9112  -19.0959 C.ar    1  UNL1        0.0715
     18 C         -64.9116  -37.9146  -18.2413 C.ar    1  UNL1        0.0051
     19 C         -64.4344  -39.2243  -18.3419 C.ar    1  UNL1        0.0145
     20 C         -64.9680  -35.5069  -19.0142 C.3     1  UNL1        0.4186
     21 F         -66.2589  -35.4519  -19.5106 F       1  UNL1       -0.1659
     22 F         -64.1632  -34.6639  -19.7573 F       1  UNL1       -0.1659
     23 F         -64.9908  -35.0679  -17.7016 F       1  UNL1       -0.1659
     24 C         -61.8403  -42.5673  -26.8870 C.2     1  UNL1        0.2484
     25 O         -61.0445  -41.6449  -27.2113 O.2     1  UNL1       -0.2701
     26 N         -62.4918  -43.3343  -27.9063 N.am    1  UNL1       -0.2945
     27 H         -62.7308  -44.3340  -27.7209 H       1  UNL1        0.1501
     28 C         -63.1599  -42.6695  -29.0277 C.3     1  UNL1        0.1535
     29 C         -62.3376  -42.8270  -30.2774 C.2     1  UNL1        0.2443
     30 O         -62.3108  -41.8928  -31.1250 O.2     1  UNL1       -0.2730
     31 N         -61.5903  -44.0340  -30.5006 N.am    1  UNL1       -0.2825
     32 H         -61.8473  -44.8800  -29.9432 H       1  UNL1        0.1549
     33 C         -60.5854  -44.1814  -31.5182 C.ar    1  UNL1        0.0535
     34 C         -59.3518  -44.7599  -31.1897 C.ar    1  UNL1        0.0353
     35 C         -58.3632  -44.8838  -32.1690 C.ar    1  UNL1        0.1002
     36 N         -58.5914  -44.4296  -33.4295 N.ar    1  UNL1       -0.2422
     37 C         -59.7697  -43.8457  -33.7733 C.ar    1  UNL1        0.1002
     38 C         -60.7855  -43.7033  -32.8245 C.ar    1  UNL1        0.0353
     39 C         -64.5689  -43.2549  -29.2406 C.3     1  UNL1        0.0569
     40 C         -64.5331  -44.7467  -29.4308 C.ar    1  UNL1       -0.0017
     41 C         -64.2238  -45.6929  -28.4570 C.ar    1  UNL1        0.0681
     42 N         -64.3825  -46.9437  -28.9450 N.ar    1  UNL1       -0.3523
     43 C         -64.8008  -46.7974  -30.2133 C.ar    1  UNL1        0.0563
     44 C         -65.1391  -47.8083  -31.1115 C.ar    1  UNL1        0.0170
     45 C         -65.6002  -47.4283  -32.3845 C.ar    1  UNL1        0.0015
     46 C         -65.7144  -46.0619  -32.7261 C.ar    1  UNL1        0.0001
     47 C         -65.3688  -45.0628  -31.7977 C.ar    1  UNL1        0.0012
     48 C         -64.9109  -45.4704  -30.5451 C.ar    1  UNL1        0.0131
     49 H         -64.2343  -47.8384  -28.4292 H       1  UNL1        0.1660
     50 C         -64.9891  -40.0660  -24.8510 C.3     1  UNL1        0.0773
     51 C         -64.0768  -41.0201  -25.5607 C.2     1  UNL1        0.1737
     52 O         -64.0748  -41.0329  -26.8211 O.2     1  UNL1       -0.2913
@<TRIPOS>BOND
     1    50    51    1
     2    51    52    2
     3    51     1    1
     4     1     2   ar
     5     2     3   ar
     6     3     8    1
     7     8     9    1
     8     9    10    1
     9    10    11    1
    10    11    14    1
    11    14    15   ar
    12    15    16   ar
    13    16    17   ar
    14    17    20    1
    15    20    21    1
    16    20    22    1
    17    20    23    1
    18    17    18   ar
    19    18    19   ar
    20    11    12    1
    21    12    13    1
    22     3     4   ar
    23     4     5   ar
    24     5     6    1
    25     5     7   ar
    26     7    24    1
    27    24    25    2
    28    24    26   am
    29    26    28    1
    30    28    39    1
    31    39    40    1
    32    40    41   ar
    33    41    42   ar
    34    42    43   ar
    35    43    44   ar
    36    44    45   ar
    37    45    46   ar
    38    46    47   ar
    39    47    48   ar
    40    28    29    1
    41    29    30    2
    42    29    31   am
    43    31    33    1
    44    33    34   ar
    45    34    35   ar
    46    35    36   ar
    47    36    37   ar
    48    37    38   ar
    49     7     1   ar
    50    48    40   ar
    51    38    33   ar
    52    13     8    1
    53    48    43   ar
    54    19    14   ar
    55    26    27    1
    56    42    49    1
    57    31    32    1
@<TRIPOS>MOLECULE
*****
 52 57 0 0 0
SMALL
GASTEIGER

@<TRIPOS>ATOM
      1 C         -61.7084  -45.2797  -23.1185 C.ar    1  UNL1        0.0425
      2 C         -62.5416  -44.6761  -22.1606 C.ar    1  UNL1        0.0176
      3 C         -63.1362  -43.4274  -22.3984 C.ar    1  UNL1        0.0503
      4 C         -62.8644  -42.7650  -23.6043 C.ar    1  UNL1        0.0443
      5 C         -62.0574  -43.3566  -24.5737 C.ar    1  UNL1        0.1458
      6 F         -61.8902  -42.7182  -25.7607 F       1  UNL1       -0.2040
      7 C         -61.5055  -44.6319  -24.3631 C.ar    1  UNL1        0.0836
      8 N         -64.0684  -42.8740  -21.4447 N.pl3   1  UNL1       -0.3040
      9 C         -65.0903  -41.9188  -21.9104 C.3     1  UNL1        0.1122
     10 C         -65.4377  -40.9027  -20.8130 C.3     1  UNL1        0.1122
     11 N         -64.2227  -40.5658  -20.0552 N.pl3   1  UNL1       -0.3041
     12 C         -63.4695  -41.6537  -19.4068 C.3     1  UNL1        0.1122
     13 C         -63.8568  -43.0166  -19.9965 C.3     1  UNL1        0.1122
     14 C         -63.6539  -39.2406  -20.0988 C.ar    1  UNL1        0.0479
     15 C         -64.1545  -38.2145  -19.2786 C.ar    1  UNL1        0.0145
     16 C         -63.6380  -36.9192  -19.3672 C.ar    1  UNL1        0.0051
     17 C         -62.6231  -36.6181  -20.2904 C.ar    1  UNL1        0.0715
     18 C         -62.1039  -37.6491  -21.0914 C.ar    1  UNL1        0.0051
     19 C         -62.6234  -38.9436  -21.0052 C.ar    1  UNL1        0.0145
     20 C         -62.0366  -35.2304  -20.3545 C.3     1  UNL1        0.4186
     21 F         -62.8889  -34.3694  -21.0241 F       1  UNL1       -0.1659
     22 F         -60.8277  -35.2778  -21.0229 F       1  UNL1       -0.1659
     23 F         -61.8288  -34.7290  -19.0811 F       1  UNL1       -0.1659
     24 C         -60.8768  -45.3094  -25.5147 C.2     1  UNL1        0.2484
     25 O         -59.6441  -45.1600  -25.7324 O.2     1  UNL1       -0.2701
     26 N         -61.6860  -46.0116  -26.4654 N.am    1  UNL1       -0.2945
     27 H         -62.5121  -46.5565  -26.1314 H       1  UNL1        0.1501
     28 C         -61.6165  -45.6828  -27.8912 C.3     1  UNL1        0.1535
     29 C         -62.9619  -45.2128  -28.3726 C.2     1  UNL1        0.2443
     30 O         -63.6945  -44.5332  -27.6023 O.2     1  UNL1       -0.2730
     31 N         -63.4058  -45.5379  -29.7002 N.am    1  UNL1       -0.2825
     32 H         -62.9231  -46.3178  -30.2014 H       1  UNL1        0.1549
     33 C         -64.5419  -44.9316  -30.3395 C.ar    1  UNL1        0.0535
     34 C         -64.9599  -45.4015  -31.5921 C.ar    1  UNL1        0.0353
     35 C         -66.0485  -44.8003  -32.2284 C.ar    1  UNL1        0.1002
     36 N         -66.6878  -43.7535  -31.6427 N.ar    1  UNL1       -0.2422
     37 C         -66.2932  -43.2623  -30.4384 C.ar    1  UNL1        0.1002
     38 C         -65.2098  -43.8354  -29.7675 C.ar    1  UNL1        0.0353
     39 C         -60.5523  -44.5980  -28.1439 C.3     1  UNL1        0.0569
     40 C         -59.9283  -44.7315  -29.5062 C.ar    1  UNL1       -0.0017
     41 C         -58.8678  -45.5673  -29.8469 C.ar    1  UNL1        0.0681
     42 N         -58.6262  -45.5080  -31.1757 N.ar    1  UNL1       -0.3523
     43 C         -59.5313  -44.6527  -31.6800 C.ar    1  UNL1        0.0563
     44 C         -59.7046  -44.3001  -33.0175 C.ar    1  UNL1        0.0170
     45 C         -60.7509  -43.4151  -33.3329 C.ar    1  UNL1        0.0015
     46 C         -61.5927  -42.9105  -32.3164 C.ar    1  UNL1        0.0001
     47 C         -61.3963  -43.2865  -30.9750 C.ar    1  UNL1        0.0012
     48 C         -60.3484  -44.1622  -30.6925 C.ar    1  UNL1        0.0131
     49 H         -57.9000  -46.0405  -31.7025 H       1  UNL1        0.1660
     50 C         -59.7450  -46.5951  -22.0224 C.3     1  UNL1        0.0773
     51 C         -61.0468  -46.5591  -22.7643 C.2     1  UNL1        0.1737
     52 O         -61.6003  -47.6493  -23.0706 O.2     1  UNL1       -0.2913
@<TRIPOS>BOND
     1    50    51    1
     2    51    52    2
     3    51     1    1
     4     1     2   ar
     5     2     3   ar
     6     3     8    1
     7     8     9    1
     8     9    10    1
     9    10    11    1
    10    11    14    1
    11    14    15   ar
    12    15    16   ar
    13    16    17   ar
    14    17    20    1
    15    20    21    1
    16    20    22    1
    17    20    23    1
    18    17    18   ar
    19    18    19   ar
    20    11    12    1
    21    12    13    1
    22     3     4   ar
    23     4     5   ar
    24     5     6    1
    25     5     7   ar
    26     7    24    1
    27    24    25    2
    28    24    26   am
    29    26    28    1
    30    28    39    1
    31    39    40    1
    32    40    41   ar
    33    41    42   ar
    34    42    43   ar
    35    43    44   ar
    36    44    45   ar
    37    45    46   ar
    38    46    47   ar
    39    47    48   ar
    40    28    29    1
    41    29    30    2
    42    29    31   am
    43    31    33    1
    44    33    34   ar
    45    34    35   ar
    46    35    36   ar
    47    36    37   ar
    48    37    38   ar
    49     7     1   ar
    50    48    40   ar
    51    38    33   ar
    52    13     8    1
    53    48    43   ar
    54    19    14   ar
    55    26    27    1
    56    42    49    1
    57    31    32    1
