@<TRIPOS>MOLECULE
*****
 42 46 0 0 0
SMALL
GASTEIGER

@<TRIPOS>ATOM
      1 C          -7.3653  -13.8086   27.9076 C.ar    1  UNL1        0.0922
      2 C          -8.6077  -14.1110   28.5110 C.ar    1  UNL1        0.0284
      3 C          -9.0626  -13.2890   29.5389 C.ar    1  UNL1        0.1033
      4 N         -10.2144  -13.4070   30.2229 N.ar    1  UNL1       -0.2134
      5 C         -10.1594  -12.3636   31.0921 C.ar    1  UNL1        0.2019
      6 N          -9.0265  -11.6187   30.9787 N.ar    1  UNL1       -0.2950
      7 C          -8.6505  -10.4241   31.7344 C.3     1  UNL1        0.1333
      8 C          -8.3487  -12.2113   29.9778 C.ar    1  UNL1        0.1173
      9 C          -7.1268  -11.8637   29.3963 C.ar    1  UNL1        0.1897
     10 C          -6.6456  -12.6572   28.3335 C.ar    1  UNL1        0.1782
     11 O          -5.4630  -12.2623   27.6960 O.3     1  UNL1       -0.4682
     12 C          -4.8905  -10.9711   27.9134 C.3     1  UNL1        0.2526
     13 C          -5.0339  -10.5696   29.3859 C.3     1  UNL1        0.2527
     14 O          -6.3828  -10.7575   29.8176 O.3     1  UNL1       -0.4669
     15 N          -7.4505  -14.6167   25.5052 N.am    1  UNL1       -0.2806
     16 C          -6.8633  -14.6712   26.8161 C.2     1  UNL1        0.2526
     17 O          -5.9002  -15.4531   27.0449 O.2     1  UNL1       -0.2697
     18 H          -8.1940  -13.9103   25.3077 H       1  UNL1        0.1552
     19 C          -7.9637  -16.4069   23.8665 C.ar    1  UNL1       -0.0068
     20 C          -7.5624  -17.1512   22.7407 C.ar    1  UNL1        0.0265
     21 C          -6.2759  -17.0236   22.2148 C.ar    1  UNL1        0.1438
     22 F          -5.9357  -17.7559   21.1235 F       1  UNL1       -0.2042
     23 C          -5.3535  -16.1409   22.7980 C.ar    1  UNL1        0.1000
     24 C          -5.7607  -15.3571   23.8900 C.ar    1  UNL1        0.0205
     25 C          -7.0503  -15.4840   24.4325 C.ar    1  UNL1        0.0466
     26 C          -3.9752  -15.9866   22.1996 C.3     1  UNL1        0.4207
     27 F          -4.0084  -16.0631   20.8176 F       1  UNL1       -0.1658
     28 F          -3.1532  -16.9888   22.6808 F       1  UNL1       -0.1658
     29 F          -3.4439  -14.7583   22.5509 F       1  UNL1       -0.1658
     30 C          -9.5005  -17.8908   25.2335 C.3     1  UNL1        0.0047
     31 C          -9.3674  -16.5872   24.4333 C.3     1  UNL1        0.0236
     32 C         -10.4140  -16.5163   23.3173 C.3     1  UNL1        0.0047
     33 N         -11.2288  -12.0554   31.9988 N.pl3   1  UNL1       -0.2814
     34 H         -11.7694  -11.1742   31.8548 H       1  UNL1        0.1551
     35 C         -11.7730  -13.0357   32.8942 C.ar    1  UNL1        0.0889
     36 C         -13.0262  -13.6043   32.6122 C.ar    1  UNL1        0.1543
     37 F         -13.7055  -13.2429   31.4945 F       1  UNL1       -0.2028
     38 C         -13.5746  -14.5633   33.4686 C.ar    1  UNL1        0.0310
     39 C         -12.8850  -14.9520   34.6185 C.ar    1  UNL1        0.0033
     40 C         -11.6499  -14.3750   34.9220 C.ar    1  UNL1        0.0128
     41 C         -11.0908  -13.4136   34.0712 C.ar    1  UNL1        0.0733
     42 CL         -9.5787  -12.6500   34.5483 Cl      1  UNL1       -0.0809
@<TRIPOS>BOND
     1    30    31    1
     2    31    32    1
     3    31    19    1
     4    19    20   ar
     5    20    21   ar
     6    21    22    1
     7    21    23   ar
     8    23    26    1
     9    26    27    1
    10    26    28    1
    11    26    29    1
    12    23    24   ar
    13    24    25   ar
    14    25    15    1
    15    15    16   am
    16    16    17    2
    17    16     1    1
    18     1     2   ar
    19     2     3   ar
    20     3     4   ar
    21     4     5   ar
    22     5    33    1
    23    33    35    1
    24    35    36   ar
    25    36    37    1
    26    36    38   ar
    27    38    39   ar
    28    39    40   ar
    29    40    41   ar
    30    41    42    1
    31     5     6   ar
    32     6     7    1
    33     6     8   ar
    34     8     9   ar
    35     9    10   ar
    36    10    11    1
    37    11    12    1
    38    12    13    1
    39    13    14    1
    40    25    19   ar
    41    10     1   ar
    42     8     3   ar
    43    14     9    1
    44    41    35   ar
    45    15    18    1
    46    33    34    1
@<TRIPOS>MOLECULE
*****
 42 46 0 0 0
SMALL
GASTEIGER

@<TRIPOS>ATOM
      1 C          -7.7535  -15.2446   26.5853 C.ar    1  UNL1        0.0922
      2 C          -6.5678  -14.6740   26.0680 C.ar    1  UNL1        0.0284
      3 C          -6.0604  -15.1722   24.8706 C.ar    1  UNL1        0.1033
      4 N          -4.9595  -14.7559   24.2202 N.ar    1  UNL1       -0.2134
      5 C          -4.9279  -15.5650   23.1286 C.ar    1  UNL1        0.2019
      6 N          -5.9508  -16.4612   23.0844 N.ar    1  UNL1       -0.2950
      7 C          -6.2343  -17.4594   22.0535 C.3     1  UNL1        0.1333
      8 C          -6.6684  -16.1875   24.1900 C.ar    1  UNL1        0.1173
      9 C          -7.8526  -16.7660   24.6537 C.ar    1  UNL1        0.1897
     10 C          -8.4121  -16.2697   25.8501 C.ar    1  UNL1        0.1782
     11 O          -9.6410  -16.7918   26.2722 O.3     1  UNL1       -0.4682
     12 C         -10.4465  -17.5995   25.4113 C.3     1  UNL1        0.2526
     13 C          -9.5604  -18.5362   24.5823 C.3     1  UNL1        0.2527
     14 O          -8.5025  -17.7973   23.9690 O.3     1  UNL1       -0.4669
     15 N          -8.1815  -13.3431   28.2080 N.am    1  UNL1       -0.2806
     16 C          -8.3069  -14.7315   27.8574 C.2     1  UNL1        0.2526
     17 O          -8.9043  -15.5274   28.6326 O.2     1  UNL1       -0.2697
     18 H          -7.7547  -12.6800   27.5233 H       1  UNL1        0.1552
     19 C          -7.8593  -11.8574   30.1683 C.ar    1  UNL1       -0.0068
     20 C          -8.3983  -11.2753   31.3314 C.ar    1  UNL1        0.0265
     21 C          -9.6514  -11.6570   31.8130 C.ar    1  UNL1        0.1438
     22 F         -10.1342  -11.0630   32.9342 F       1  UNL1       -0.2042
     23 C         -10.4057  -12.6304   31.1397 C.ar    1  UNL1        0.1000
     24 C          -9.8987  -13.1802   29.9508 C.ar    1  UNL1        0.0205
     25 C          -8.6349  -12.8094   29.4621 C.ar    1  UNL1        0.0466
     26 C         -11.7749  -13.0110   31.6516 C.3     1  UNL1        0.4207
     27 F         -11.9446  -12.6419   32.9752 F       1  UNL1       -0.1658
     28 F         -11.9375  -14.3801   31.5473 F       1  UNL1       -0.1658
     29 F         -12.7509  -12.3812   30.8998 F       1  UNL1       -0.1658
     30 C          -5.4310  -11.4945   30.8042 C.3     1  UNL1        0.0047
     31 C          -6.4768  -11.4380   29.6814 C.3     1  UNL1        0.0236
     32 C          -6.5275  -10.0458   29.0450 C.3     1  UNL1        0.0047
     33 N          -3.9356  -15.4364   22.0993 N.pl3   1  UNL1       -0.2814
     34 H          -3.4322  -14.5275   21.9995 H       1  UNL1        0.1551
     35 C          -3.4007  -16.5768   21.4119 C.ar    1  UNL1        0.0889
     36 C          -3.5737  -16.6855   20.0221 C.ar    1  UNL1        0.1543
     37 F          -4.2240  -15.7125   19.3354 F       1  UNL1       -0.2028
     38 C          -3.0585  -17.7860   19.3311 C.ar    1  UNL1        0.0310
     39 C          -2.3801  -18.7920   20.0215 C.ar    1  UNL1        0.0033
     40 C          -2.2240  -18.7066   21.4068 C.ar    1  UNL1        0.0128
     41 C          -2.7356  -17.6087   22.1093 C.ar    1  UNL1        0.0733
     42 CL         -2.5945  -17.5964   23.8635 Cl      1  UNL1       -0.0809
@<TRIPOS>BOND
     1    30    31    1
     2    31    32    1
     3    31    19    1
     4    19    20   ar
     5    20    21   ar
     6    21    22    1
     7    21    23   ar
     8    23    26    1
     9    26    27    1
    10    26    28    1
    11    26    29    1
    12    23    24   ar
    13    24    25   ar
    14    25    15    1
    15    15    16   am
    16    16    17    2
    17    16     1    1
    18     1     2   ar
    19     2     3   ar
    20     3     4   ar
    21     4     5   ar
    22     5    33    1
    23    33    35    1
    24    35    36   ar
    25    36    37    1
    26    36    38   ar
    27    38    39   ar
    28    39    40   ar
    29    40    41   ar
    30    41    42    1
    31     5     6   ar
    32     6     7    1
    33     6     8   ar
    34     8     9   ar
    35     9    10   ar
    36    10    11    1
    37    11    12    1
    38    12    13    1
    39    13    14    1
    40    25    19   ar
    41    10     1   ar
    42     8     3   ar
    43    14     9    1
    44    41    35   ar
    45    15    18    1
    46    33    34    1
@<TRIPOS>MOLECULE
*****
 42 46 0 0 0
SMALL
GASTEIGER

@<TRIPOS>ATOM
      1 C          -7.7507  -14.8056   26.6485 C.ar    1  UNL1        0.0922
      2 C          -9.0841  -14.8857   26.1853 C.ar    1  UNL1        0.0284
      3 C          -9.3215  -15.4817   24.9492 C.ar    1  UNL1        0.1033
      4 N         -10.5118  -15.6593   24.3491 N.ar    1  UNL1       -0.2134
      5 C         -10.1763  -16.2800   23.1875 C.ar    1  UNL1        0.2019
      6 N          -8.8386  -16.4828   23.0443 N.ar    1  UNL1       -0.2950
      7 C          -8.1360  -17.1333   21.9385 C.3     1  UNL1        0.1333
      8 C          -8.3126  -15.9836   24.1785 C.ar    1  UNL1        0.1173
      9 C          -6.9832  -15.9445   24.6065 C.ar    1  UNL1        0.1897
     10 C          -6.7059  -15.3723   25.8661 C.ar    1  UNL1        0.1782
     11 O          -5.3857  -15.4066   26.3320 O.3     1  UNL1       -0.4682
     12 C          -4.3904  -16.2161   25.7023 C.3     1  UNL1        0.2526
     13 C          -4.5721  -16.1902   24.1804 C.3     1  UNL1        0.2527
     14 O          -5.9333  -16.4636   23.8430 O.3     1  UNL1       -0.4669
     15 N          -8.1951  -12.9993   28.3723 N.am    1  UNL1       -0.2806
     16 C          -7.4774  -14.1736   27.9575 C.2     1  UNL1        0.2526
     17 O          -6.6100  -14.6852   28.7172 O.2     1  UNL1       -0.2697
     18 H          -8.9647  -12.6316   27.7695 H       1  UNL1        0.1552
     19 C          -8.9367  -12.0871   30.5567 C.ar    1  UNL1       -0.0068
     20 C          -8.5908  -11.5084   31.7928 C.ar    1  UNL1        0.0265
     21 C          -7.2798  -11.1108   32.0595 C.ar    1  UNL1        0.1438
     22 F          -6.9912  -10.5642   33.2682 F       1  UNL1       -0.2042
     23 C          -6.2735  -11.2866   31.0970 C.ar    1  UNL1        0.1000
     24 C          -6.5986  -11.9090   29.8806 C.ar    1  UNL1        0.0205
     25 C          -7.9165  -12.3051   29.5986 C.ar    1  UNL1        0.0466
     26 C          -4.8519  -10.8832   31.4099 C.3     1  UNL1        0.4207
     27 F          -4.2307  -11.8051   32.2351 F       1  UNL1       -0.1658
     28 F          -4.8543   -9.6527   32.0402 F       1  UNL1       -0.1658
     29 F          -4.1201  -10.7902   30.2393 F       1  UNL1       -0.1658
     30 C         -11.1614  -11.3760   29.5679 C.3     1  UNL1        0.0047
     31 C         -10.3825  -12.4877   30.2854 C.3     1  UNL1        0.0236
     32 C         -11.0816  -12.9004   31.5842 C.3     1  UNL1        0.0047
     33 N         -11.1563  -16.7250   22.2376 N.pl3   1  UNL1       -0.2814
     34 H         -11.8918  -16.0536   21.9248 H       1  UNL1        0.1551
     35 C         -10.9909  -17.9351   21.4845 C.ar    1  UNL1        0.0889
     36 C         -10.8883  -17.8657   20.0852 C.ar    1  UNL1        0.1543
     37 F         -10.9267  -16.6646   19.4551 F       1  UNL1       -0.2028
     38 C         -10.7236  -19.0313   19.3313 C.ar    1  UNL1        0.0310
     39 C         -10.6741  -20.2744   19.9648 C.ar    1  UNL1        0.0033
     40 C         -10.8004  -20.3573   21.3533 C.ar    1  UNL1        0.0128
     41 C         -10.9653  -19.1964   22.1186 C.ar    1  UNL1        0.0733
     42 CL        -11.2140  -19.3640   23.8527 Cl      1  UNL1       -0.0809
@<TRIPOS>BOND
     1    30    31    1
     2    31    32    1
     3    31    19    1
     4    19    20   ar
     5    20    21   ar
     6    21    22    1
     7    21    23   ar
     8    23    26    1
     9    26    27    1
    10    26    28    1
    11    26    29    1
    12    23    24   ar
    13    24    25   ar
    14    25    15    1
    15    15    16   am
    16    16    17    2
    17    16     1    1
    18     1     2   ar
    19     2     3   ar
    20     3     4   ar
    21     4     5   ar
    22     5    33    1
    23    33    35    1
    24    35    36   ar
    25    36    37    1
    26    36    38   ar
    27    38    39   ar
    28    39    40   ar
    29    40    41   ar
    30    41    42    1
    31     5     6   ar
    32     6     7    1
    33     6     8   ar
    34     8     9   ar
    35     9    10   ar
    36    10    11    1
    37    11    12    1
    38    12    13    1
    39    13    14    1
    40    25    19   ar
    41    10     1   ar
    42     8     3   ar
    43    14     9    1
    44    41    35   ar
    45    15    18    1
    46    33    34    1
@<TRIPOS>MOLECULE
*****
 42 46 0 0 0
SMALL
GASTEIGER

@<TRIPOS>ATOM
      1 C          -7.5794  -15.0101   26.8381 C.ar    1  UNL1        0.0922
      2 C          -8.7664  -15.7743   26.9166 C.ar    1  UNL1        0.0284
      3 C          -9.0851  -16.6143   25.8526 C.ar    1  UNL1        0.1033
      4 N         -10.1562  -17.4207   25.7480 N.ar    1  UNL1       -0.2134
      5 C          -9.9783  -18.0054   24.5340 C.ar    1  UNL1        0.2019
      6 N          -8.8556  -17.5895   23.8878 N.ar    1  UNL1       -0.2950
      7 C          -8.3499  -18.0214   22.5849 C.3     1  UNL1        0.1333
      8 C          -8.2928  -16.7181   24.7457 C.ar    1  UNL1        0.1173
      9 C          -7.1009  -15.9975   24.6355 C.ar    1  UNL1        0.1897
     10 C          -6.7304  -15.1557   25.7055 C.ar    1  UNL1        0.1782
     11 O          -5.4969  -14.4969   25.6323 O.3     1  UNL1       -0.4682
     12 C          -4.5161  -14.8504   24.6548 C.3     1  UNL1        0.2526
     13 C          -5.1934  -15.1724   23.3179 C.3     1  UNL1        0.2527
     14 O          -6.2647  -16.0960   23.5193 O.3     1  UNL1       -0.4669
     15 N          -8.2190  -13.2743   28.5730 N.am    1  UNL1       -0.2806
     16 C          -7.2248  -14.1097   27.9565 C.2     1  UNL1        0.2526
     17 O          -6.0350  -14.0895   28.3752 O.2     1  UNL1       -0.2697
     18 H          -9.2150  -13.3575   28.2701 H       1  UNL1        0.1552
     19 C          -8.9026  -11.9257   30.5397 C.ar    1  UNL1       -0.0068
     20 C          -8.5259  -11.0910   31.6091 C.ar    1  UNL1        0.0265
     21 C          -7.2153  -10.6274   31.7330 C.ar    1  UNL1        0.1438
     22 F          -6.8961   -9.8306   32.7848 F       1  UNL1       -0.2042
     23 C          -6.2401  -10.9914   30.7915 C.ar    1  UNL1        0.1000
     24 C          -6.5943  -11.8644   29.7498 C.ar    1  UNL1        0.0205
     25 C          -7.9124  -12.3298   29.6109 C.ar    1  UNL1        0.0466
     26 C          -4.8175  -10.5108   30.9549 C.3     1  UNL1        0.4207
     27 F          -4.0818  -10.6934   29.7964 F       1  UNL1       -0.1658
     28 F          -4.2128  -11.2131   31.9810 F       1  UNL1       -0.1658
     29 F          -4.8083   -9.1620   31.2635 F       1  UNL1       -0.1658
     30 C         -11.2377  -11.3435   29.7389 C.3     1  UNL1        0.0047
     31 C         -10.3480  -12.3951   30.4172 C.3     1  UNL1        0.0236
     32 C         -10.9065  -12.7880   31.7882 C.3     1  UNL1        0.0047
     33 N         -10.8688  -19.0076   24.0206 N.pl3   1  UNL1       -0.2814
     34 H         -10.6234  -20.0130   24.1568 H       1  UNL1        0.1551
     35 C         -12.2060  -18.6954   23.6041 C.ar    1  UNL1        0.0889
     36 C         -13.2186  -18.5818   24.5711 C.ar    1  UNL1        0.1543
     37 F         -12.9301  -18.7476   25.8866 F       1  UNL1       -0.2028
     38 C         -14.5278  -18.2755   24.1889 C.ar    1  UNL1        0.0310
     39 C         -14.8398  -18.0942   22.8403 C.ar    1  UNL1        0.0033
     40 C         -13.8461  -18.2295   21.8682 C.ar    1  UNL1        0.0128
     41 C         -12.5312  -18.5358   22.2395 C.ar    1  UNL1        0.0733
     42 CL        -11.3389  -18.7880   20.9699 Cl      1  UNL1       -0.0809
@<TRIPOS>BOND
     1    30    31    1
     2    31    32    1
     3    31    19    1
     4    19    20   ar
     5    20    21   ar
     6    21    22    1
     7    21    23   ar
     8    23    26    1
     9    26    27    1
    10    26    28    1
    11    26    29    1
    12    23    24   ar
    13    24    25   ar
    14    25    15    1
    15    15    16   am
    16    16    17    2
    17    16     1    1
    18     1     2   ar
    19     2     3   ar
    20     3     4   ar
    21     4     5   ar
    22     5    33    1
    23    33    35    1
    24    35    36   ar
    25    36    37    1
    26    36    38   ar
    27    38    39   ar
    28    39    40   ar
    29    40    41   ar
    30    41    42    1
    31     5     6   ar
    32     6     7    1
    33     6     8   ar
    34     8     9   ar
    35     9    10   ar
    36    10    11    1
    37    11    12    1
    38    12    13    1
    39    13    14    1
    40    25    19   ar
    41    10     1   ar
    42     8     3   ar
    43    14     9    1
    44    41    35   ar
    45    15    18    1
    46    33    34    1
