@<TRIPOS>MOLECULE
*****
 35 36 0 0 0
SMALL
GASTEIGER

@<TRIPOS>ATOM
      1 C         -22.5998  -11.3980  -16.4918 C.3     1  UNL1        0.0187
      2 C         -21.3810  -10.4957  -16.2775 C.3     1  UNL1        0.0722
      3 N         -21.7221   -9.1031  -16.6578 N.3     1  UNL1       -0.2712
      4 C         -20.5431   -8.2280  -16.5471 C.3     1  UNL1        0.0896
      5 C         -22.8377   -8.5762  -15.8430 C.3     1  UNL1        0.0768
      6 C         -22.3152   -8.0927  -14.4779 C.3     1  UNL1        0.0434
      7 C         -23.2608   -6.9906  -12.3522 C.ar    1  UNL1       -0.0229
      8 C         -24.3757   -6.6761  -11.5567 C.ar    1  UNL1        0.0355
      9 C         -25.6712   -7.0772  -11.9291 C.ar    1  UNL1        0.1721
     10 C         -25.8589   -7.7955  -13.1155 C.ar    1  UNL1        0.1721
     11 C         -24.7516   -8.1037  -13.9232 C.ar    1  UNL1        0.0355
     12 C         -23.4554   -7.6962  -13.5661 C.ar    1  UNL1       -0.0215
     13 C         -22.0200   -5.1700  -11.1663 C.3     1  UNL1        0.0050
     14 C         -21.9018   -6.5019  -11.9015 C.3     1  UNL1        0.0261
     15 O         -26.7982   -6.7793  -11.1462 O.3     1  UNL1       -0.4684
     16 C         -27.3581   -7.6519  -10.1700 C.3     1  UNL1        0.2526
     17 O         -27.1631   -8.1860  -13.4603 O.3     1  UNL1       -0.4684
     18 C         -28.1660   -7.3034  -13.9541 C.3     1  UNL1        0.2526
     19 C         -22.7060  -12.5685  -15.4857 C.3     1  UNL1        0.0197
     20 C         -23.8791  -12.5476  -14.4441 C.3     1  UNL1        0.0981
     21 C         -23.3431  -11.8317  -13.1761 C.ar    1  UNL1       -0.0065
     22 C         -21.9675  -11.6484  -12.9225 C.ar    1  UNL1        0.0000
     23 C         -21.5236  -10.9462  -11.8013 C.ar    1  UNL1        0.0398
     24 C         -22.4397  -10.3677  -10.9101 C.ar    1  UNL1        0.1724
     25 C         -23.8104  -10.4856  -11.1617 C.ar    1  UNL1        0.1721
     26 C         -24.2523  -11.1968  -12.2937 C.ar    1  UNL1        0.0367
     27 O         -22.0272   -9.6598   -9.7698 O.3     1  UNL1       -0.4684
     28 C         -20.6888   -9.2435   -9.5189 C.3     1  UNL1        0.2526
     29 O         -24.7049   -9.8767  -10.2664 O.3     1  UNL1       -0.4684
     30 C         -25.2081  -10.4883   -9.0829 C.3     1  UNL1        0.2526
     31 C         -24.5182  -13.9787  -14.1946 C.3     1  UNL1        0.0169
     32 C         -25.9572  -13.9959  -13.6165 C.3     1  UNL1        0.0014
     33 C         -24.4165  -14.9162  -15.4181 C.3     1  UNL1        0.0014
     34 C         -24.9667  -11.7042  -15.0066 C.1     1  UNL1        0.0752
     35 N         -25.8157  -11.0488  -15.4426 N.1     1  UNL1       -0.1956
@<TRIPOS>BOND
     1    13    14    1
     2    14     7    1
     3     7     8   ar
     4     8     9   ar
     5     9    15    1
     6    15    16    1
     7     9    10   ar
     8    10    17    1
     9    17    18    1
    10    10    11   ar
    11    11    12   ar
    12    12     6    1
    13     6     5    1
    14     5     3    1
    15     3     4    1
    16     3     2    1
    17     2     1    1
    18     1    19    1
    19    19    20    1
    20    20    34    1
    21    34    35    3
    22    20    21    1
    23    21    22   ar
    24    22    23   ar
    25    23    24   ar
    26    24    27    1
    27    27    28    1
    28    24    25   ar
    29    25    29    1
    30    29    30    1
    31    25    26   ar
    32    20    31    1
    33    31    32    1
    34    31    33    1
    35    12     7   ar
    36    26    21   ar
@<TRIPOS>MOLECULE
*****
 35 36 0 0 0
SMALL
GASTEIGER

@<TRIPOS>ATOM
      1 C         -21.8539  -11.8786  -15.9294 C.3     1  UNL1        0.0187
      2 C         -21.2038  -10.5086  -16.1444 C.3     1  UNL1        0.0722
      3 N         -22.1436   -9.4419  -15.7209 N.3     1  UNL1       -0.2712
      4 C         -22.8827   -8.9080  -16.8770 C.3     1  UNL1        0.0896
      5 C         -21.4425   -8.3541  -15.0059 C.3     1  UNL1        0.0768
      6 C         -22.3898   -7.6901  -13.9901 C.3     1  UNL1        0.0434
      7 C         -22.2970   -7.2011  -11.4643 C.ar    1  UNL1       -0.0229
      8 C         -21.8801   -7.5906  -10.1802 C.ar    1  UNL1        0.0355
      9 C         -21.1455   -8.7733   -9.9816 C.ar    1  UNL1        0.1721
     10 C         -20.8283   -9.5832  -11.0781 C.ar    1  UNL1        0.1721
     11 C         -21.2516   -9.2079  -12.3640 C.ar    1  UNL1        0.0355
     12 C         -21.9970   -8.0351  -12.5706 C.ar    1  UNL1       -0.0215
     13 C         -22.3249   -4.7302  -11.0719 C.3     1  UNL1        0.0050
     14 C         -23.1074   -5.9304  -11.5969 C.3     1  UNL1        0.0261
     15 O         -20.7135   -9.1782   -8.7083 O.3     1  UNL1       -0.4684
     16 C         -19.8448   -8.4218   -7.8709 C.3     1  UNL1        0.2526
     17 O         -20.0907  -10.7564  -10.8504 O.3     1  UNL1       -0.4684
     18 C         -20.4723  -12.0509  -11.3054 C.3     1  UNL1        0.2526
     19 C         -22.4196  -12.0947  -14.5056 C.3     1  UNL1        0.0197
     20 C         -23.9717  -12.2527  -14.3399 C.3     1  UNL1        0.0981
     21 C         -24.4497  -11.0845  -13.4373 C.ar    1  UNL1       -0.0065
     22 C         -25.2741  -10.0403  -13.9066 C.ar    1  UNL1        0.0000
     23 C         -25.7342   -9.0387  -13.0510 C.ar    1  UNL1        0.0398
     24 C         -25.4179   -9.0636  -11.6844 C.ar    1  UNL1        0.1724
     25 C         -24.6466  -10.1143  -11.1772 C.ar    1  UNL1        0.1721
     26 C         -24.1839  -11.1212  -12.0458 C.ar    1  UNL1        0.0367
     27 O         -25.8595   -8.0688  -10.7973 O.3     1  UNL1       -0.4684
     28 C         -27.1938   -7.5753  -10.7378 C.3     1  UNL1        0.2526
     29 O         -24.3647  -10.1274   -9.8014 O.3     1  UNL1       -0.4684
     30 C         -25.2511  -10.6121   -8.7977 C.3     1  UNL1        0.2526
     31 C         -24.4039  -13.7016  -13.8578 C.3     1  UNL1        0.0169
     32 C         -25.9061  -13.8933  -13.5228 C.3     1  UNL1        0.0014
     33 C         -23.9104  -14.8296  -14.7906 C.3     1  UNL1        0.0014
     34 C         -24.5898  -12.0635  -15.6788 C.1     1  UNL1        0.0752
     35 N         -25.0723  -11.9193  -16.7214 N.1     1  UNL1       -0.1956
@<TRIPOS>BOND
     1    13    14    1
     2    14     7    1
     3     7     8   ar
     4     8     9   ar
     5     9    15    1
     6    15    16    1
     7     9    10   ar
     8    10    17    1
     9    17    18    1
    10    10    11   ar
    11    11    12   ar
    12    12     6    1
    13     6     5    1
    14     5     3    1
    15     3     4    1
    16     3     2    1
    17     2     1    1
    18     1    19    1
    19    19    20    1
    20    20    34    1
    21    34    35    3
    22    20    21    1
    23    21    22   ar
    24    22    23   ar
    25    23    24   ar
    26    24    27    1
    27    27    28    1
    28    24    25   ar
    29    25    29    1
    30    29    30    1
    31    25    26   ar
    32    20    31    1
    33    31    32    1
    34    31    33    1
    35    12     7   ar
    36    26    21   ar
@<TRIPOS>MOLECULE
*****
 35 36 0 0 0
SMALL
GASTEIGER

@<TRIPOS>ATOM
      1 C         -25.1215   -7.6224  -13.4463 C.3     1  UNL1        0.0187
      2 C         -25.7213   -6.2354  -13.1970 C.3     1  UNL1        0.0722
      3 N         -27.2012   -6.3175  -13.2550 N.3     1  UNL1       -0.2712
      4 C         -27.6459   -7.7210  -13.2761 C.3     1  UNL1        0.0896
      5 C         -27.7397   -5.5849  -14.4210 C.3     1  UNL1        0.0768
      6 C         -26.6089   -4.8259  -15.1389 C.3     1  UNL1        0.0434
      7 C         -26.3975   -4.3849  -17.6664 C.ar    1  UNL1       -0.0229
      8 C         -26.9106   -3.7819  -18.8273 C.ar    1  UNL1        0.0355
      9 C         -28.0807   -3.0028  -18.7858 C.ar    1  UNL1        0.1721
     10 C         -28.7532   -2.8285  -17.5708 C.ar    1  UNL1        0.1721
     11 C         -28.2543   -3.4377  -16.4074 C.ar    1  UNL1        0.0355
     12 C         -27.0935   -4.2284  -16.4415 C.ar    1  UNL1       -0.0215
     13 C         -25.0933   -5.9137  -19.1570 C.3     1  UNL1        0.0050
     14 C         -25.1499   -5.2313  -17.7934 C.3     1  UNL1        0.0261
     15 O         -28.6073   -2.3861  -19.9322 O.3     1  UNL1       -0.4684
     16 C         -27.8252   -1.7689  -20.9498 C.3     1  UNL1        0.2526
     17 O         -29.9170   -2.0425  -17.5587 O.3     1  UNL1       -0.4684
     18 C         -31.2020   -2.5090  -17.1591 C.3     1  UNL1        0.2526
     19 C         -23.9168   -7.6264  -14.4171 C.3     1  UNL1        0.0197
     20 C         -23.1157   -8.9628  -14.6002 C.3     1  UNL1        0.0981
     21 C         -22.0922   -9.0376  -13.4363 C.ar    1  UNL1       -0.0065
     22 C         -21.4049   -7.9076  -12.9455 C.ar    1  UNL1        0.0000
     23 C         -20.5367   -8.0025  -11.8572 C.ar    1  UNL1        0.0398
     24 C         -20.3512   -9.2247  -11.1940 C.ar    1  UNL1        0.1724
     25 C         -21.0585  -10.3526  -11.6224 C.ar    1  UNL1        0.1721
     26 C         -21.9318  -10.2511  -12.7221 C.ar    1  UNL1        0.0367
     27 O         -19.4811   -9.3562  -10.0998 O.3     1  UNL1       -0.4684
     28 C         -19.7094   -8.7874   -8.8145 C.3     1  UNL1        0.2526
     29 O         -20.8721  -11.5578  -10.9257 O.3     1  UNL1       -0.4684
     30 C         -20.0884  -12.6508  -11.3938 C.3     1  UNL1        0.2526
     31 C         -22.5013   -9.1284  -16.0540 C.3     1  UNL1        0.0169
     32 C         -21.6721   -7.9317  -16.5886 C.3     1  UNL1        0.0014
     33 C         -21.7254  -10.4506  -16.2437 C.3     1  UNL1        0.0014
     34 C         -24.0712  -10.0887  -14.4270 C.1     1  UNL1        0.0752
     35 N         -24.8169  -10.9637  -14.2902 N.1     1  UNL1       -0.1956
@<TRIPOS>BOND
     1    13    14    1
     2    14     7    1
     3     7     8   ar
     4     8     9   ar
     5     9    15    1
     6    15    16    1
     7     9    10   ar
     8    10    17    1
     9    17    18    1
    10    10    11   ar
    11    11    12   ar
    12    12     6    1
    13     6     5    1
    14     5     3    1
    15     3     4    1
    16     3     2    1
    17     2     1    1
    18     1    19    1
    19    19    20    1
    20    20    34    1
    21    34    35    3
    22    20    21    1
    23    21    22   ar
    24    22    23   ar
    25    23    24   ar
    26    24    27    1
    27    27    28    1
    28    24    25   ar
    29    25    29    1
    30    29    30    1
    31    25    26   ar
    32    20    31    1
    33    31    32    1
    34    31    33    1
    35    12     7   ar
    36    26    21   ar
@<TRIPOS>MOLECULE
*****
 35 36 0 0 0
SMALL
GASTEIGER

@<TRIPOS>ATOM
      1 C         -21.9396  -11.7971  -15.9498 C.3     1  UNL1        0.0187
      2 C         -21.2658  -10.4349  -16.1395 C.3     1  UNL1        0.0722
      3 N         -22.1488   -9.3669  -15.6103 N.3     1  UNL1       -0.2712
      4 C         -22.8736   -8.6991  -16.7042 C.3     1  UNL1        0.0896
      5 C         -21.3889   -8.3804  -14.8132 C.3     1  UNL1        0.0768
      6 C         -22.2871   -7.7796  -13.7166 C.3     1  UNL1        0.0434
      7 C         -21.8247   -7.1918  -11.2533 C.ar    1  UNL1       -0.0229
      8 C         -21.2910   -7.5672  -10.0088 C.ar    1  UNL1        0.0355
      9 C         -20.6636   -8.8135   -9.8327 C.ar    1  UNL1        0.1721
     10 C         -20.5737   -9.7015  -10.9108 C.ar    1  UNL1        0.1721
     11 C         -21.1154   -9.3395  -12.1554 C.ar    1  UNL1        0.0355
     12 C         -21.7554   -8.1022  -12.3376 C.ar    1  UNL1       -0.0215
     13 C         -21.5488   -4.7184  -10.9959 C.3     1  UNL1        0.0050
     14 C         -22.5092   -5.8468  -11.3599 C.3     1  UNL1        0.0261
     15 O         -20.1180   -9.2064   -8.5998 O.3     1  UNL1       -0.4684
     16 C         -19.6632   -8.3071   -7.5937 C.3     1  UNL1        0.2526
     17 O         -19.9387  -10.9373  -10.7066 O.3     1  UNL1       -0.4684
     18 C         -20.3553  -12.1658  -11.2948 C.3     1  UNL1        0.2526
     19 C         -22.4555  -12.0539  -14.5139 C.3     1  UNL1        0.0197
     20 C         -23.9962  -12.2645  -14.3056 C.3     1  UNL1        0.0981
     21 C         -24.4611  -11.2011  -13.2757 C.ar    1  UNL1       -0.0065
     22 C         -24.0380  -11.2004  -11.9298 C.ar    1  UNL1        0.0000
     23 C         -24.4288  -10.1930  -11.0469 C.ar    1  UNL1        0.0398
     24 C         -25.2276   -9.1266  -11.4860 C.ar    1  UNL1        0.1724
     25 C         -25.6200   -9.0695  -12.8272 C.ar    1  UNL1        0.1721
     26 C         -25.2241  -10.0898  -13.7130 C.ar    1  UNL1        0.0367
     27 O         -25.6432   -8.1000  -10.6229 O.3     1  UNL1       -0.4684
     28 C         -26.8010   -8.1601   -9.7962 C.3     1  UNL1        0.2526
     29 O         -26.3997   -7.9787  -13.2453 O.3     1  UNL1       -0.4684
     30 C         -25.8751   -6.7340  -13.6964 C.3     1  UNL1        0.2526
     31 C         -24.3793  -13.7633  -13.9513 C.3     1  UNL1        0.0169
     32 C         -25.8479  -14.0120  -13.5192 C.3     1  UNL1        0.0014
     33 C         -23.9573  -14.7764  -15.0384 C.3     1  UNL1        0.0014
     34 C         -24.6713  -11.9616  -15.5952 C.1     1  UNL1        0.0752
     35 N         -25.1985  -11.7285  -16.5993 N.1     1  UNL1       -0.1956
@<TRIPOS>BOND
     1    13    14    1
     2    14     7    1
     3     7     8   ar
     4     8     9   ar
     5     9    15    1
     6    15    16    1
     7     9    10   ar
     8    10    17    1
     9    17    18    1
    10    10    11   ar
    11    11    12   ar
    12    12     6    1
    13     6     5    1
    14     5     3    1
    15     3     4    1
    16     3     2    1
    17     2     1    1
    18     1    19    1
    19    19    20    1
    20    20    34    1
    21    34    35    3
    22    20    21    1
    23    21    22   ar
    24    22    23   ar
    25    23    24   ar
    26    24    27    1
    27    27    28    1
    28    24    25   ar
    29    25    29    1
    30    29    30    1
    31    25    26   ar
    32    20    31    1
    33    31    32    1
    34    31    33    1
    35    12     7   ar
    36    26    21   ar
@<TRIPOS>MOLECULE
*****
 35 36 0 0 0
SMALL
GASTEIGER

@<TRIPOS>ATOM
      1 C         -22.5385  -11.1813  -16.4615 C.3     1  UNL1        0.0187
      2 C         -21.7555  -10.0911  -15.7238 C.3     1  UNL1        0.0722
      3 N         -21.6312   -8.8956  -16.5931 N.3     1  UNL1       -0.2712
      4 C         -20.2311   -8.4456  -16.6650 C.3     1  UNL1        0.0896
      5 C         -22.5064   -7.7967  -16.1321 C.3     1  UNL1        0.0768
      6 C         -23.5038   -8.3181  -15.0816 C.3     1  UNL1        0.0434
      7 C         -24.1559   -7.1120  -12.9027 C.ar    1  UNL1       -0.0229
      8 C         -23.7745   -6.6135  -11.6455 C.ar    1  UNL1        0.0355
      9 C         -22.4480   -6.7238  -11.1914 C.ar    1  UNL1        0.1721
     10 C         -21.4896   -7.3468  -11.9991 C.ar    1  UNL1        0.1721
     11 C         -21.8648   -7.8590  -13.2523 C.ar    1  UNL1        0.0355
     12 C         -23.1901   -7.7651  -13.7089 C.ar    1  UNL1       -0.0215
     13 C         -26.4970   -7.8665  -12.4445 C.3     1  UNL1        0.0050
     14 C         -25.6067   -6.9817  -13.3119 C.3     1  UNL1        0.0261
     15 O         -22.0437   -6.2273   -9.9417 O.3     1  UNL1       -0.4684
     16 C         -21.4783   -4.9378   -9.7285 C.3     1  UNL1        0.2526
     17 O         -20.1723   -7.4394  -11.5215 O.3     1  UNL1       -0.4684
     18 C         -19.6223   -8.5906  -10.8884 C.3     1  UNL1        0.2526
     19 C         -22.7383  -12.4801  -15.6449 C.3     1  UNL1        0.0197
     20 C         -23.9581  -12.5580  -14.6614 C.3     1  UNL1        0.0981
     21 C         -23.5326  -11.8325  -13.3574 C.ar    1  UNL1       -0.0065
     22 C         -24.4157  -11.0335  -12.6010 C.ar    1  UNL1        0.0000
     23 C         -24.0147  -10.4453  -11.4008 C.ar    1  UNL1        0.0398
     24 C         -22.7260  -10.6645  -10.8917 C.ar    1  UNL1        0.1724
     25 C         -21.8437  -11.4948  -11.5905 C.ar    1  UNL1        0.1721
     26 C         -22.2534  -12.0841  -12.8019 C.ar    1  UNL1        0.0367
     27 O         -22.2886  -10.0836   -9.6906 O.3     1  UNL1       -0.4684
     28 C         -23.1410   -9.4431   -8.7468 C.3     1  UNL1        0.2526
     29 O         -20.5680  -11.7162  -11.0464 O.3     1  UNL1       -0.4684
     30 C         -19.7767  -12.8762  -11.2833 C.3     1  UNL1        0.2526
     31 C         -24.5098  -14.0333  -14.4663 C.3     1  UNL1        0.0169
     32 C         -25.8013  -14.1762  -13.6197 C.3     1  UNL1        0.0014
     33 C         -24.6426  -14.8171  -15.7907 C.3     1  UNL1        0.0014
     34 C         -25.0725  -11.7785  -15.2622 C.1     1  UNL1        0.0752
     35 N         -25.9420  -11.1742  -15.7306 N.1     1  UNL1       -0.1956
@<TRIPOS>BOND
     1    13    14    1
     2    14     7    1
     3     7     8   ar
     4     8     9   ar
     5     9    15    1
     6    15    16    1
     7     9    10   ar
     8    10    17    1
     9    17    18    1
    10    10    11   ar
    11    11    12   ar
    12    12     6    1
    13     6     5    1
    14     5     3    1
    15     3     4    1
    16     3     2    1
    17     2     1    1
    18     1    19    1
    19    19    20    1
    20    20    34    1
    21    34    35    3
    22    20    21    1
    23    21    22   ar
    24    22    23   ar
    25    23    24   ar
    26    24    27    1
    27    27    28    1
    28    24    25   ar
    29    25    29    1
    30    29    30    1
    31    25    26   ar
    32    20    31    1
    33    31    32    1
    34    31    33    1
    35    12     7   ar
    36    26    21   ar
@<TRIPOS>MOLECULE
*****
 35 36 0 0 0
SMALL
GASTEIGER

@<TRIPOS>ATOM
      1 C         -25.1282   -7.8276  -13.5130 C.3     1  UNL1        0.0187
      2 C         -25.6043   -6.3934  -13.2640 C.3     1  UNL1        0.0722
      3 N         -27.0872   -6.3579  -13.2547 N.3     1  UNL1       -0.2712
      4 C         -27.6406   -7.7083  -13.0592 C.3     1  UNL1        0.0896
      5 C         -27.6228   -5.7519  -14.4924 C.3     1  UNL1        0.0768
      6 C         -26.6126   -4.7437  -15.0695 C.3     1  UNL1        0.0434
      7 C         -26.3990   -4.3871  -17.6101 C.ar    1  UNL1       -0.0229
      8 C         -26.9076   -3.8179  -18.7899 C.ar    1  UNL1        0.0355
      9 C         -28.0710   -3.0278  -18.7734 C.ar    1  UNL1        0.1721
     10 C         -28.7413   -2.8083  -17.5645 C.ar    1  UNL1        0.1721
     11 C         -28.2468   -3.3835  -16.3821 C.ar    1  UNL1        0.0355
     12 C         -27.0929   -4.1848  -16.3907 C.ar    1  UNL1       -0.0215
     13 C         -25.0590   -5.8988  -19.0863 C.3     1  UNL1        0.0050
     14 C         -25.1588   -5.2478  -17.7099 C.3     1  UNL1        0.0261
     15 O         -28.5930   -2.4444  -19.9392 O.3     1  UNL1       -0.4684
     16 C         -27.8172   -1.7614  -20.9186 C.3     1  UNL1        0.2526
     17 O         -29.8982   -2.0124  -17.5776 O.3     1  UNL1       -0.4684
     18 C         -31.2047   -2.4821  -17.2600 C.3     1  UNL1        0.2526
     19 C         -23.8304   -7.9279  -14.3494 C.3     1  UNL1        0.0197
     20 C         -23.1405   -9.3305  -14.4835 C.3     1  UNL1        0.0981
     21 C         -22.3578   -9.5754  -13.1663 C.ar    1  UNL1       -0.0065
     22 C         -21.9742  -10.8609  -12.7296 C.ar    1  UNL1        0.0000
     23 C         -21.2181  -11.0378  -11.5702 C.ar    1  UNL1        0.0398
     24 C         -20.7844   -9.9326  -10.8229 C.ar    1  UNL1        0.1724
     25 C         -21.1027   -8.6420  -11.2580 C.ar    1  UNL1        0.1721
     26 C         -21.8673   -8.4699  -12.4276 C.ar    1  UNL1        0.0367
     27 O         -20.0274  -10.0753   -9.6490 O.3     1  UNL1       -0.4684
     28 C         -18.6213  -10.2973   -9.6176 C.3     1  UNL1        0.2526
     29 O         -20.6358   -7.5529  -10.5041 O.3     1  UNL1       -0.4684
     30 C         -21.4714   -6.6043   -9.8484 C.3     1  UNL1        0.2526
     31 C         -22.2904   -9.4836  -15.8149 C.3     1  UNL1        0.0169
     32 C         -23.0655   -9.9533  -17.0734 C.3     1  UNL1        0.0014
     33 C         -21.4344   -8.2397  -16.1408 C.3     1  UNL1        0.0014
     34 C         -24.2144  -10.3558  -14.5614 C.1     1  UNL1        0.0752
     35 N         -25.0509  -11.1537  -14.6252 N.1     1  UNL1       -0.1956
@<TRIPOS>BOND
     1    13    14    1
     2    14     7    1
     3     7     8   ar
     4     8     9   ar
     5     9    15    1
     6    15    16    1
     7     9    10   ar
     8    10    17    1
     9    17    18    1
    10    10    11   ar
    11    11    12   ar
    12    12     6    1
    13     6     5    1
    14     5     3    1
    15     3     4    1
    16     3     2    1
    17     2     1    1
    18     1    19    1
    19    19    20    1
    20    20    34    1
    21    34    35    3
    22    20    21    1
    23    21    22   ar
    24    22    23   ar
    25    23    24   ar
    26    24    27    1
    27    27    28    1
    28    24    25   ar
    29    25    29    1
    30    29    30    1
    31    25    26   ar
    32    20    31    1
    33    31    32    1
    34    31    33    1
    35    12     7   ar
    36    26    21   ar
@<TRIPOS>MOLECULE
*****
 35 36 0 0 0
SMALL
GASTEIGER

@<TRIPOS>ATOM
      1 C         -24.1383   -5.4319  -11.7729 C.3     1  UNL1        0.0187
      2 C         -22.6240   -5.5176  -11.5598 C.3     1  UNL1        0.0722
      3 N         -22.3347   -6.4093  -10.4103 N.3     1  UNL1       -0.2712
      4 C         -21.6226   -5.6784   -9.3489 C.3     1  UNL1        0.0896
      5 C         -21.5634   -7.5995  -10.8280 C.3     1  UNL1        0.0768
      6 C         -21.3690   -7.5964  -12.3553 C.3     1  UNL1        0.0434
      7 C         -21.8622   -9.2703  -14.2479 C.ar    1  UNL1       -0.0229
      8 C         -21.9253  -10.6042  -14.6853 C.ar    1  UNL1        0.0355
      9 C         -21.6193  -11.6689  -13.8188 C.ar    1  UNL1        0.1721
     10 C         -21.2374  -11.3996  -12.4995 C.ar    1  UNL1        0.1721
     11 C         -21.1597  -10.0684  -12.0572 C.ar    1  UNL1        0.0355
     12 C         -21.4509   -8.9978  -12.9190 C.ar    1  UNL1       -0.0215
     13 C         -21.1001   -8.0938  -16.3204 C.3     1  UNL1        0.0050
     14 C         -22.1787   -8.1767  -15.2444 C.3     1  UNL1        0.0261
     15 O         -21.6820  -13.0092  -14.2329 O.3     1  UNL1       -0.4684
     16 C         -21.9368  -13.4316  -15.5688 C.3     1  UNL1        0.2526
     17 O         -20.9412  -12.4825  -11.6559 O.3     1  UNL1       -0.4684
     18 C         -19.6854  -12.6871  -11.0159 C.3     1  UNL1        0.2526
     19 C         -24.6350   -6.1148  -13.0693 C.3     1  UNL1        0.0197
     20 C         -26.0025   -6.8826  -13.0265 C.3     1  UNL1        0.0981
     21 C         -25.6674   -8.3946  -12.9292 C.ar    1  UNL1       -0.0065
     22 C         -25.7705   -9.2752  -14.0266 C.ar    1  UNL1        0.0000
     23 C         -25.4027  -10.6168  -13.9173 C.ar    1  UNL1        0.0398
     24 C         -24.8819  -11.1207  -12.7161 C.ar    1  UNL1        0.1724
     25 C         -24.7171  -10.2612  -11.6252 C.ar    1  UNL1        0.1721
     26 C         -25.0916   -8.9089  -11.7408 C.ar    1  UNL1        0.0367
     27 O         -24.5074  -12.4661  -12.5705 O.3     1  UNL1       -0.4684
     28 C         -25.0869  -13.5476  -13.2931 C.3     1  UNL1        0.2526
     29 O         -24.1715  -10.7863  -10.4423 O.3     1  UNL1       -0.4684
     30 C         -24.1062  -10.0901   -9.2018 C.3     1  UNL1        0.2526
     31 C         -26.9816   -6.4807  -14.2090 C.3     1  UNL1        0.0169
     32 C         -28.4726   -6.8666  -14.0262 C.3     1  UNL1        0.0014
     33 C         -26.8548   -5.0005  -14.6324 C.3     1  UNL1        0.0014
     34 C         -26.6967   -6.4978  -11.7693 C.1     1  UNL1        0.0752
     35 N         -27.2393   -6.2005  -10.7906 N.1     1  UNL1       -0.1956
@<TRIPOS>BOND
     1    13    14    1
     2    14     7    1
     3     7     8   ar
     4     8     9   ar
     5     9    15    1
     6    15    16    1
     7     9    10   ar
     8    10    17    1
     9    17    18    1
    10    10    11   ar
    11    11    12   ar
    12    12     6    1
    13     6     5    1
    14     5     3    1
    15     3     4    1
    16     3     2    1
    17     2     1    1
    18     1    19    1
    19    19    20    1
    20    20    34    1
    21    34    35    3
    22    20    21    1
    23    21    22   ar
    24    22    23   ar
    25    23    24   ar
    26    24    27    1
    27    27    28    1
    28    24    25   ar
    29    25    29    1
    30    29    30    1
    31    25    26   ar
    32    20    31    1
    33    31    32    1
    34    31    33    1
    35    12     7   ar
    36    26    21   ar
@<TRIPOS>MOLECULE
*****
 35 36 0 0 0
SMALL
GASTEIGER

@<TRIPOS>ATOM
      1 C         -22.6169   -9.9047  -16.1030 C.3     1  UNL1        0.0187
      2 C         -21.5709   -8.8848  -15.6432 C.3     1  UNL1        0.0722
      3 N         -22.2317   -7.8208  -14.8485 N.3     1  UNL1       -0.2712
      4 C         -21.7953   -7.8716  -13.4431 C.3     1  UNL1        0.0896
      5 C         -23.7046   -7.9127  -14.9381 C.3     1  UNL1        0.0768
      6 C         -24.3505   -7.3345  -13.6658 C.3     1  UNL1        0.0434
      7 C         -26.9088   -7.1126  -13.4825 C.ar    1  UNL1       -0.0229
      8 C         -28.0836   -6.4290  -13.8390 C.ar    1  UNL1        0.0355
      9 C         -28.0462   -5.3213  -14.7047 C.ar    1  UNL1        0.1721
     10 C         -26.8191   -4.8841  -15.2165 C.ar    1  UNL1        0.1721
     11 C         -25.6381   -5.5540  -14.8557 C.ar    1  UNL1        0.0355
     12 C         -25.6640   -6.6534  -13.9813 C.ar    1  UNL1       -0.0215
     13 C         -27.2256   -7.7876  -11.0941 C.3     1  UNL1        0.0050
     14 C         -27.0239   -8.2782  -12.5248 C.3     1  UNL1        0.0261
     15 O         -29.2083   -4.6276  -15.0790 O.3     1  UNL1       -0.4684
     16 C         -30.4861   -5.2294  -15.2601 C.3     1  UNL1        0.2526
     17 O         -26.8125   -3.7778  -16.0814 O.3     1  UNL1       -0.4684
     18 C         -26.8269   -3.8645  -17.5030 C.3     1  UNL1        0.2526
     19 C         -22.2915  -11.3659  -15.7120 C.3     1  UNL1        0.0197
     20 C         -23.2708  -12.1088  -14.7371 C.3     1  UNL1        0.0981
     21 C         -23.0943  -11.4585  -13.3393 C.ar    1  UNL1       -0.0065
     22 C         -24.1684  -10.9096  -12.6076 C.ar    1  UNL1        0.0000
     23 C         -23.9822  -10.3874  -11.3271 C.ar    1  UNL1        0.0398
     24 C         -22.7211  -10.4282  -10.7138 C.ar    1  UNL1        0.1724
     25 C         -21.6468  -11.0139  -11.3912 C.ar    1  UNL1        0.1721
     26 C         -21.8404  -11.5376  -12.6837 C.ar    1  UNL1        0.0367
     27 O         -22.4981   -9.9068   -9.4293 O.3     1  UNL1       -0.4684
     28 C         -23.3727   -9.0024   -8.7625 C.3     1  UNL1        0.2526
     29 O         -20.4010  -11.0628  -10.7446 O.3     1  UNL1       -0.4684
     30 C         -19.5840   -9.9283  -10.4740 C.3     1  UNL1        0.2526
     31 C         -23.1109  -13.6873  -14.7746 C.3     1  UNL1        0.0169
     32 C         -24.4241  -14.5078  -14.8622 C.3     1  UNL1        0.0014
     33 C         -22.0978  -14.1750  -15.8338 C.3     1  UNL1        0.0014
     34 C         -24.6585  -11.8253  -15.1890 C.1     1  UNL1        0.0752
     35 N         -25.7403  -11.6067  -15.5389 N.1     1  UNL1       -0.1956
@<TRIPOS>BOND
     1    13    14    1
     2    14     7    1
     3     7     8   ar
     4     8     9   ar
     5     9    15    1
     6    15    16    1
     7     9    10   ar
     8    10    17    1
     9    17    18    1
    10    10    11   ar
    11    11    12   ar
    12    12     6    1
    13     6     5    1
    14     5     3    1
    15     3     4    1
    16     3     2    1
    17     2     1    1
    18     1    19    1
    19    19    20    1
    20    20    34    1
    21    34    35    3
    22    20    21    1
    23    21    22   ar
    24    22    23   ar
    25    23    24   ar
    26    24    27    1
    27    27    28    1
    28    24    25   ar
    29    25    29    1
    30    29    30    1
    31    25    26   ar
    32    20    31    1
    33    31    32    1
    34    31    33    1
    35    12     7   ar
    36    26    21   ar
@<TRIPOS>MOLECULE
*****
 35 36 0 0 0
SMALL
GASTEIGER

@<TRIPOS>ATOM
      1 C         -24.4980   -9.7012  -10.5102 C.3     1  UNL1        0.0187
      2 C         -25.6291   -8.6722  -10.4229 C.3     1  UNL1        0.0722
      3 N         -25.6112   -7.8120  -11.6312 N.3     1  UNL1       -0.2712
      4 C         -26.6106   -6.7363  -11.5211 C.3     1  UNL1        0.0896
      5 C         -25.8317   -8.6012  -12.8619 C.3     1  UNL1        0.0768
      6 C         -24.7697   -8.2449  -13.9179 C.3     1  UNL1        0.0434
      7 C         -22.8654   -9.4081  -15.2018 C.ar    1  UNL1       -0.0229
      8 C         -22.2168  -10.5994  -15.5687 C.ar    1  UNL1        0.0355
      9 C         -22.6916  -11.8496  -15.1335 C.ar    1  UNL1        0.1721
     10 C         -23.8249  -11.9126  -14.3146 C.ar    1  UNL1        0.1721
     11 C         -24.4724  -10.7259  -13.9328 C.ar    1  UNL1        0.0355
     12 C         -23.9980   -9.4716  -14.3518 C.ar    1  UNL1       -0.0215
     13 C         -20.8781   -8.3061  -16.2490 C.3     1  UNL1        0.0050
     14 C         -22.2808   -8.0990  -15.6853 C.3     1  UNL1        0.0261
     15 O         -22.0629  -13.0527  -15.4933 O.3     1  UNL1       -0.4684
     16 C         -21.1092  -13.7386  -14.6884 C.3     1  UNL1        0.2526
     17 O         -24.2784  -13.1749  -13.8983 O.3     1  UNL1       -0.4684
     18 C         -25.4127  -13.8442  -14.4404 C.3     1  UNL1        0.2526
     19 C         -23.2332   -9.3222   -9.7038 C.3     1  UNL1        0.0197
     20 C         -21.8771   -9.1712  -10.4781 C.3     1  UNL1        0.0981
     21 C         -20.7494   -9.1537   -9.4123 C.ar    1  UNL1       -0.0065
     22 C         -20.8874   -8.5192   -8.1599 C.ar    1  UNL1        0.0000
     23 C         -19.8741   -8.5757   -7.2023 C.ar    1  UNL1        0.0398
     24 C         -18.6984   -9.3011   -7.4462 C.ar    1  UNL1        0.1724
     25 C         -18.5528   -9.9858   -8.6570 C.ar    1  UNL1        0.1721
     26 C         -19.5779   -9.9236   -9.6202 C.ar    1  UNL1        0.0367
     27 O         -17.6571   -9.3739   -6.5070 O.3     1  UNL1       -0.4684
     28 C         -17.8120   -9.8196   -5.1635 C.3     1  UNL1        0.2526
     29 O         -17.3760  -10.7236   -8.8656 O.3     1  UNL1       -0.4684
     30 C         -17.3140  -12.1441   -8.9436 C.3     1  UNL1        0.2526
     31 C         -21.8695   -7.9504  -11.4921 C.3     1  UNL1        0.0169
     32 C         -22.2653   -6.5700  -10.9065 C.3     1  UNL1        0.0014
     33 C         -20.5603   -7.8374  -12.3041 C.3     1  UNL1        0.0014
     34 C         -21.6910  -10.3931  -11.3044 C.1     1  UNL1        0.0752
     35 N         -21.5439  -11.3432  -11.9496 N.1     1  UNL1       -0.1956
@<TRIPOS>BOND
     1    13    14    1
     2    14     7    1
     3     7     8   ar
     4     8     9   ar
     5     9    15    1
     6    15    16    1
     7     9    10   ar
     8    10    17    1
     9    17    18    1
    10    10    11   ar
    11    11    12   ar
    12    12     6    1
    13     6     5    1
    14     5     3    1
    15     3     4    1
    16     3     2    1
    17     2     1    1
    18     1    19    1
    19    19    20    1
    20    20    34    1
    21    34    35    3
    22    20    21    1
    23    21    22   ar
    24    22    23   ar
    25    23    24   ar
    26    24    27    1
    27    27    28    1
    28    24    25   ar
    29    25    29    1
    30    29    30    1
    31    25    26   ar
    32    20    31    1
    33    31    32    1
    34    31    33    1
    35    12     7   ar
    36    26    21   ar
