@<TRIPOS>MOLECULE
*****
 45 50 0 0 0
SMALL
GASTEIGER

@<TRIPOS>ATOM
      1 C          -7.0852  -13.9872   27.4492 C.ar    1  UNL1        0.0702
      2 C          -8.3205  -14.6215   27.6525 C.ar    1  UNL1        0.0191
      3 C          -9.1628  -14.2017   28.6833 C.ar    1  UNL1        0.0356
      4 C          -8.7588  -13.1532   29.5266 C.ar    1  UNL1        0.1318
      5 N          -7.5486  -12.5642   29.3179 N.ar    1  UNL1       -0.2279
      6 C          -6.7127  -12.9563   28.3206 C.ar    1  UNL1        0.1149
      7 N          -9.6009  -12.6877   30.6011 N.pl3   1  UNL1       -0.2932
      8 C         -11.0420  -12.9777   30.6106 C.3     1  UNL1        0.0923
      9 C         -11.5314  -13.2466   32.0392 C.3     1  UNL1        0.0252
     10 C         -11.0895  -12.1513   33.0313 C.3     1  UNL1        0.0472
     11 C          -9.5639  -11.9475   32.9560 C.3     1  UNL1        0.0252
     12 C          -9.0868  -11.6691   31.5266 C.3     1  UNL1        0.0923
     13 C         -11.8579  -10.8306   32.8356 C.3     1  UNL1        0.2054
     14 O         -11.4869  -10.2336   31.5948 O.3     1  UNL1       -0.4755
     15 C         -11.5450   -8.8582   31.3262 C.ar    1  UNL1        0.1388
     16 C         -12.6689   -8.0740   31.6459 C.ar    1  UNL1        0.0369
     17 C         -12.6760   -6.7077   31.3583 C.ar    1  UNL1        0.0033
     18 C         -11.5688   -6.1103   30.7519 C.ar    1  UNL1        0.0066
     19 C         -10.4372   -6.8779   30.4250 C.ar    1  UNL1        0.0785
     20 C         -10.4379   -8.2535   30.7177 C.ar    1  UNL1        0.0433
     21 C          -9.2606   -6.2516   29.7825 C.2     1  UNL1        0.3381
     22 O          -9.1925   -4.9987   29.6574 O.2     1  UNL1       -0.2451
     23 O          -8.2157   -7.0412   29.3091 O.3     1  UNL1       -0.4771
     24 H          -7.4057   -6.6224   28.8678 H       1  UNL1        0.2954
     25 C          -6.5947  -14.8524   25.1133 C.2     1  UNL1        0.2839
     26 O          -7.7763  -14.6543   24.7221 O.2     1  UNL1       -0.2665
     27 N          -6.1790  -14.4068   26.4145 N.am    1  UNL1       -0.2766
     28 H          -5.1543  -14.3012   26.5925 H       1  UNL1        0.1553
     29 C          -2.4848  -17.6873   21.7630 C.ar    1  UNL1        0.0002
     30 C          -3.1663  -16.9560   20.7528 C.ar    1  UNL1        0.0031
     31 C          -4.2467  -16.1167   21.0755 C.ar    1  UNL1        0.0375
     32 C          -4.6263  -16.0249   22.4099 C.ar    1  UNL1        0.1452
     33 O          -5.6001  -15.3056   22.9122 O.2     1  UNL1       -0.4492
     34 C          -5.6219  -15.5068   24.2178 C.ar    1  UNL1        0.1946
     35 C          -4.6094  -16.4018   24.5813 C.ar    1  UNL1        0.0202
     36 C          -4.2793  -16.9026   25.9552 C.3     1  UNL1        0.0345
     37 C          -3.9790  -16.7225   23.3942 C.ar    1  UNL1        0.0337
     38 C          -2.9030  -17.5648   23.1098 C.ar    1  UNL1        0.0028
     39 C           1.9609  -21.1470   20.3619 C.3     1  UNL1        0.0310
     40 C           0.8274  -20.2454   20.7522 C.ar    1  UNL1       -0.0218
     41 C           0.8253  -18.9006   20.3558 C.ar    1  UNL1       -0.0043
     42 C          -0.2476  -18.0683   20.6876 C.ar    1  UNL1       -0.0003
     43 C          -1.3447  -18.5710   21.4105 C.ar    1  UNL1       -0.0000
     44 C          -1.3455  -19.9256   21.7895 C.ar    1  UNL1       -0.0003
     45 C          -0.2713  -20.7562   21.4577 C.ar    1  UNL1       -0.0043
@<TRIPOS>BOND
     1    39    40    1
     2    40    41   ar
     3    41    42   ar
     4    42    43   ar
     5    43    29    1
     6    29    30   ar
     7    30    31   ar
     8    31    32   ar
     9    32    33   ar
    10    33    34   ar
    11    34    25    1
    12    25    26    2
    13    25    27   am
    14    27     1    1
    15     1     2   ar
    16     2     3   ar
    17     3     4   ar
    18     4     7    1
    19     7     8    1
    20     8     9    1
    21     9    10    1
    22    10    13    1
    23    13    14    1
    24    14    15    1
    25    15    16   ar
    26    16    17   ar
    27    17    18   ar
    28    18    19   ar
    29    19    21    1
    30    21    22    2
    31    21    23    1
    32    19    20   ar
    33    10    11    1
    34    11    12    1
    35     4     5   ar
    36     5     6   ar
    37    34    35   ar
    38    35    36    1
    39    35    37   ar
    40    37    38   ar
    41    43    44   ar
    42    44    45   ar
    43    45    40   ar
    44    38    29   ar
    45    37    32   ar
    46     6     1   ar
    47    12     7    1
    48    20    15   ar
    49    27    28    1
    50    23    24    1
@<TRIPOS>MOLECULE
*****
 45 50 0 0 0
SMALL
GASTEIGER

@<TRIPOS>ATOM
      1 C          -8.1972  -15.3175   26.7725 C.ar    1  UNL1        0.0702
      2 C          -8.6856  -16.5927   27.0971 C.ar    1  UNL1        0.0191
      3 C          -9.1195  -17.4547   26.0886 C.ar    1  UNL1        0.0356
      4 C          -9.0812  -17.0318   24.7495 C.ar    1  UNL1        0.1318
      5 N          -8.6172  -15.7839   24.4621 N.ar    1  UNL1       -0.2279
      6 C          -8.1895  -14.9281   25.4273 C.ar    1  UNL1        0.1149
      7 N          -9.5174  -17.8930   23.6779 N.pl3   1  UNL1       -0.2932
      8 C          -9.3745  -19.3528   23.7770 C.3     1  UNL1        0.0923
      9 C         -10.5738  -20.0598   23.1332 C.3     1  UNL1        0.0252
     10 C         -10.8749  -19.5382   21.7132 C.3     1  UNL1        0.0472
     11 C         -11.0296  -18.0051   21.7298 C.3     1  UNL1        0.0252
     12 C          -9.8218  -17.3080   22.3652 C.3     1  UNL1        0.0923
     13 C          -9.8312  -20.0011   20.6790 C.3     1  UNL1        0.2054
     14 O          -8.8410  -18.9899   20.5041 O.3     1  UNL1       -0.4755
     15 C          -7.4610  -19.2320   20.4405 C.ar    1  UNL1        0.1388
     16 C          -6.9256  -20.5313   20.3685 C.ar    1  UNL1        0.0369
     17 C          -5.5433  -20.7182   20.3059 C.ar    1  UNL1        0.0033
     18 C          -4.6832  -19.6180   20.3144 C.ar    1  UNL1        0.0066
     19 C          -5.1999  -18.3124   20.3862 C.ar    1  UNL1        0.0785
     20 C          -6.5933  -18.1326   20.4492 C.ar    1  UNL1        0.0433
     21 C          -4.2945  -17.1421   20.3955 C.2     1  UNL1        0.3381
     22 O          -3.5126  -16.9470   21.3653 O.2     1  UNL1       -0.2451
     23 O          -4.2974  -16.2436   19.3315 O.3     1  UNL1       -0.4771
     24 H          -3.6815  -15.4393   19.3280 H       1  UNL1        0.2954
     25 C          -8.6566  -13.6760   28.6539 C.2     1  UNL1        0.2839
     26 O          -9.8657  -14.0201   28.7454 O.2     1  UNL1       -0.2665
     27 N          -7.7646  -14.3915   27.7840 N.am    1  UNL1       -0.2766
     28 H          -6.7369  -14.2979   27.9508 H       1  UNL1        0.1553
     29 C          -6.2573   -9.1371   31.7835 C.ar    1  UNL1        0.0002
     30 C          -7.4947   -9.2826   32.4672 C.ar    1  UNL1        0.0031
     31 C          -8.4249  -10.2602   32.0736 C.ar    1  UNL1        0.0375
     32 C          -8.0971  -11.0777   30.9977 C.ar    1  UNL1        0.1452
     33 O          -8.8217  -12.0392   30.4796 O.2     1  UNL1       -0.4492
     34 C          -8.1436  -12.5615   29.4731 C.ar    1  UNL1        0.1946
     35 C          -6.9153  -11.9058   29.3319 C.ar    1  UNL1        0.0202
     36 C          -5.8419  -12.1793   28.3218 C.3     1  UNL1        0.0345
     37 C          -6.9088  -10.9501   30.3299 C.ar    1  UNL1        0.0337
     38 C          -5.9625   -9.9906   30.6933 C.ar    1  UNL1        0.0028
     39 C          -2.4650   -5.0707   33.4508 C.3     1  UNL1        0.0310
     40 C          -3.4198   -6.1413   33.0120 C.ar    1  UNL1       -0.0218
     41 C          -3.9023   -7.0797   33.9352 C.ar    1  UNL1       -0.0043
     42 C          -4.8200   -8.0555   33.5358 C.ar    1  UNL1       -0.0003
     43 C          -5.2822   -8.1008   32.2080 C.ar    1  UNL1       -0.0000
     44 C          -4.8087   -7.1453   31.2907 C.ar    1  UNL1       -0.0003
     45 C          -3.8902   -6.1708   31.6916 C.ar    1  UNL1       -0.0043
@<TRIPOS>BOND
     1    39    40    1
     2    40    41   ar
     3    41    42   ar
     4    42    43   ar
     5    43    29    1
     6    29    30   ar
     7    30    31   ar
     8    31    32   ar
     9    32    33   ar
    10    33    34   ar
    11    34    25    1
    12    25    26    2
    13    25    27   am
    14    27     1    1
    15     1     2   ar
    16     2     3   ar
    17     3     4   ar
    18     4     7    1
    19     7     8    1
    20     8     9    1
    21     9    10    1
    22    10    13    1
    23    13    14    1
    24    14    15    1
    25    15    16   ar
    26    16    17   ar
    27    17    18   ar
    28    18    19   ar
    29    19    21    1
    30    21    22    2
    31    21    23    1
    32    19    20   ar
    33    10    11    1
    34    11    12    1
    35     4     5   ar
    36     5     6   ar
    37    34    35   ar
    38    35    36    1
    39    35    37   ar
    40    37    38   ar
    41    43    44   ar
    42    44    45   ar
    43    45    40   ar
    44    38    29   ar
    45    37    32   ar
    46     6     1   ar
    47    12     7    1
    48    20    15   ar
    49    27    28    1
    50    23    24    1
