@<TRIPOS>MOLECULE
*****
 52 57 0 0 0
SMALL
GASTEIGER

@<TRIPOS>ATOM
      1 N          59.8544   85.1887   11.9549 N.am    1  UNL1       -0.2945
      2 C          59.0675   85.0285   10.7637 C.2     1  UNL1        0.2483
      3 O          58.2293   84.0887   10.6869 O.2     1  UNL1       -0.2701
      4 H          60.3440   86.0996   12.1042 H       1  UNL1        0.1501
      5 C          59.1985   85.9764    9.6339 C.ar    1  UNL1        0.0808
      6 C          59.7971   87.2287    9.8459 C.ar    1  UNL1        0.0080
      7 C          59.9389   88.1368    8.7939 C.ar    1  UNL1        0.0148
      8 C          59.4743   87.8181    7.5061 C.ar    1  UNL1        0.0502
      9 C          58.8626   86.5699    7.2976 C.ar    1  UNL1        0.0443
     10 C          58.7194   85.6585    8.3487 C.ar    1  UNL1        0.1457
     11 F          58.0671   84.4917    8.1141 F       1  UNL1       -0.2040
     12 N          59.6249   88.7533    6.4148 N.pl3   1  UNL1       -0.3040
     13 C          60.8395   88.7118    5.5855 C.3     1  UNL1        0.1123
     14 C          61.0368   90.0157    4.8062 C.3     1  UNL1        0.1136
     15 N          59.8076   90.3770    4.0857 N.pl3   1  UNL1       -0.2897
     16 C          58.4979   90.1589    4.7230 C.3     1  UNL1        0.1136
     17 C          58.6357   89.8213    6.2117 C.3     1  UNL1        0.1123
     18 C          59.8989   91.0675    2.8187 C.ar    1  UNL1        0.1318
     19 C          61.0452   91.8002    2.4644 C.ar    1  UNL1        0.0343
     20 C          61.0949   92.4527    1.2316 C.ar    1  UNL1        0.0083
     21 C          59.9998   92.3975    0.3572 C.ar    1  UNL1        0.0906
     22 C          58.8827   91.6384    0.7365 C.ar    1  UNL1        0.1041
     23 N          58.8580   91.0094    1.9410 N.ar    1  UNL1       -0.2292
     24 C          60.0610   93.0561   -0.9974 C.3     1  UNL1        0.4200
     25 F          58.9407   93.8474   -1.1698 F       1  UNL1       -0.1658
     26 F          61.1923   93.8463   -1.1057 F       1  UNL1       -0.1658
     27 F          60.0999   92.1042   -2.0016 F       1  UNL1       -0.1658
     28 C          59.7977   84.2310   13.0666 C.3     1  UNL1        0.1535
     29 C          59.9477   82.8092   12.5671 C.2     1  UNL1        0.2443
     30 O          59.1497   81.9121   12.9552 O.2     1  UNL1       -0.2730
     31 N          61.0368   82.4657   11.6994 N.am    1  UNL1       -0.2825
     32 H          61.9093   83.0377   11.7630 H       1  UNL1        0.1549
     33 C          60.9786   81.4143   10.7183 C.ar    1  UNL1        0.0535
     34 C          60.0964   81.4738    9.6236 C.ar    1  UNL1        0.0353
     35 C          60.1283   80.4668    8.6564 C.ar    1  UNL1        0.1002
     36 N          61.0099   79.4391    8.7702 N.ar    1  UNL1       -0.2422
     37 C          61.8801   79.3599    9.8110 C.ar    1  UNL1        0.1002
     38 C          61.8857   80.3490   10.7974 C.ar    1  UNL1        0.0353
     39 C          60.8555   84.5949   14.1353 C.3     1  UNL1        0.0569
     40 C          63.6879   88.6801   14.2670 C.ar    1  UNL1       -0.0069
     41 C          63.2988   89.0918   15.5661 C.ar    1  UNL1       -0.0029
     42 C          62.3105   88.3919   16.2851 C.ar    1  UNL1       -0.0002
     43 C          61.7036   87.2540   15.7376 C.ar    1  UNL1        0.0011
     44 C          62.1132   86.8389   14.4712 C.ar    1  UNL1        0.0128
     45 C          61.7487   85.7357   13.7208 C.ar    1  UNL1       -0.0017
     46 C          62.4890   85.8212   12.5489 C.ar    1  UNL1        0.0681
     47 N          63.2888   86.9099   12.5718 N.ar    1  UNL1       -0.3525
     48 C          63.0608   87.5277   13.7498 C.ar    1  UNL1        0.0523
     49 H          63.9586   87.1768   11.8188 H       1  UNL1        0.1660
     50 C          64.2451   90.1400   12.2808 C.3     1  UNL1        0.0047
     51 C          64.7884   89.4142   13.5191 C.3     1  UNL1        0.0238
     52 C          65.5127   90.3878   14.4547 C.3     1  UNL1        0.0047
@<TRIPOS>BOND
     1    50    51    1
     2    51    52    1
     3    51    40    1
     4    40    41   ar
     5    41    42   ar
     6    42    43   ar
     7    43    44   ar
     8    44    45   ar
     9    45    39    1
    10    39    28    1
    11    28     1    1
    12     1     2   am
    13     2     3    2
    14     2     5    1
    15     5     6   ar
    16     6     7   ar
    17     7     8   ar
    18     8    12    1
    19    12    13    1
    20    13    14    1
    21    14    15    1
    22    15    18    1
    23    18    19   ar
    24    19    20   ar
    25    20    21   ar
    26    21    24    1
    27    24    25    1
    28    24    26    1
    29    24    27    1
    30    21    22   ar
    31    22    23   ar
    32    15    16    1
    33    16    17    1
    34     8     9   ar
    35     9    10   ar
    36    10    11    1
    37    28    29    1
    38    29    30    2
    39    29    31   am
    40    31    33    1
    41    33    34   ar
    42    34    35   ar
    43    35    36   ar
    44    36    37   ar
    45    37    38   ar
    46    45    46   ar
    47    46    47   ar
    48    47    48   ar
    49    48    40   ar
    50    48    44   ar
    51    10     5   ar
    52    38    33   ar
    53    17    12    1
    54    23    18   ar
    55     1     4    1
    56    31    32    1
    57    47    49    1
@<TRIPOS>MOLECULE
*****
 52 57 0 0 0
SMALL
GASTEIGER

@<TRIPOS>ATOM
      1 N          58.9375   82.6249   11.8877 N.am    1  UNL1       -0.2945
      2 C          59.0558   83.9166   11.2703 C.2     1  UNL1        0.2483
      3 O          58.3037   84.2219   10.3045 O.2     1  UNL1       -0.2701
      4 H          59.3739   82.4847   12.8265 H       1  UNL1        0.1501
      5 C          60.0257   84.9142   11.7765 C.ar    1  UNL1        0.0808
      6 C          60.2743   86.0787   11.0323 C.ar    1  UNL1        0.0080
      7 C          61.1792   87.0379   11.4930 C.ar    1  UNL1        0.0148
      8 C          61.8664   86.8495   12.7048 C.ar    1  UNL1        0.0502
      9 C          61.6276   85.6771   13.4424 C.ar    1  UNL1        0.0443
     10 C          60.7221   84.7151   12.9839 C.ar    1  UNL1        0.1457
     11 F          60.5705   83.5712   13.6985 F       1  UNL1       -0.2040
     12 N          62.7987   87.8430   13.1865 N.pl3   1  UNL1       -0.3040
     13 C          63.3322   87.7354   14.5536 C.3     1  UNL1        0.1123
     14 C          63.9156   89.0659   15.0390 C.3     1  UNL1        0.1136
     15 N          64.8564   89.6086   14.0485 N.pl3   1  UNL1       -0.2897
     16 C          64.5558   89.4833   12.6123 C.3     1  UNL1        0.1136
     17 C          63.1148   89.0220   12.3678 C.3     1  UNL1        0.1123
     18 C          65.9963   90.3788   14.4931 C.ar    1  UNL1        0.1318
     19 C          65.9223   91.2117   15.6233 C.ar    1  UNL1        0.0343
     20 C          67.0453   91.9390   16.0208 C.ar    1  UNL1        0.0083
     21 C          68.2371   91.8583   15.2860 C.ar    1  UNL1        0.0906
     22 C          68.2786   90.9998   14.1772 C.ar    1  UNL1        0.1041
     23 N          67.1732   90.2993   13.8105 N.ar    1  UNL1       -0.2292
     24 C          69.4706   92.5999   15.7340 C.3     1  UNL1        0.4200
     25 F          70.1027   91.8742   16.7263 F       1  UNL1       -0.1658
     26 F          70.3460   92.7755   14.6763 F       1  UNL1       -0.1658
     27 F          69.1363   93.8478   16.2310 F       1  UNL1       -0.1658
     28 C          58.0337   81.5890   11.3713 C.3     1  UNL1        0.1535
     29 C          58.0084   81.5957    9.8571 C.2     1  UNL1        0.2443
     30 O          57.0203   82.0812    9.2404 O.2     1  UNL1       -0.2730
     31 N          59.0807   80.9927    9.1198 N.am    1  UNL1       -0.2825
     32 H          59.6131   80.2193    9.5792 H       1  UNL1        0.1549
     33 C          59.4933   81.4226    7.8097 C.ar    1  UNL1        0.0535
     34 C          60.1552   82.6481    7.6091 C.ar    1  UNL1        0.0353
     35 C          60.6037   82.9887    6.3311 C.ar    1  UNL1        0.1002
     36 N          60.4061   82.1387    5.2895 N.ar    1  UNL1       -0.2422
     37 C          59.7787   80.9446    5.4546 C.ar    1  UNL1        0.1002
     38 C          59.3195   80.5622    6.7173 C.ar    1  UNL1        0.0353
     39 C          58.4247   80.2077   11.9481 C.3     1  UNL1        0.0569
     40 C          63.2336   80.9328   12.9860 C.ar    1  UNL1       -0.0069
     41 C          63.6222   81.2785   11.6677 C.ar    1  UNL1       -0.0029
     42 C          62.7028   81.2285   10.6020 C.ar    1  UNL1       -0.0002
     43 C          61.3712   80.8558   10.8275 C.ar    1  UNL1        0.0011
     44 C          60.9902   80.5456   12.1324 C.ar    1  UNL1        0.0128
     45 C          59.7540   80.2167   12.6581 C.ar    1  UNL1       -0.0017
     46 C          59.9652   80.0300   14.0180 C.ar    1  UNL1        0.0681
     47 N          61.2612   80.2487   14.3308 N.ar    1  UNL1       -0.3525
     48 C          61.8848   80.5684   13.1774 C.ar    1  UNL1        0.0523
     49 H          61.6623   80.1966   15.2917 H       1  UNL1        0.1660
     50 C          64.5933   82.4939   14.4356 C.3     1  UNL1        0.0047
     51 C          64.2211   81.0354   14.1365 C.3     1  UNL1        0.0238
     52 C          63.6623   80.3425   15.3837 C.3     1  UNL1        0.0047
@<TRIPOS>BOND
     1    50    51    1
     2    51    52    1
     3    51    40    1
     4    40    41   ar
     5    41    42   ar
     6    42    43   ar
     7    43    44   ar
     8    44    45   ar
     9    45    39    1
    10    39    28    1
    11    28     1    1
    12     1     2   am
    13     2     3    2
    14     2     5    1
    15     5     6   ar
    16     6     7   ar
    17     7     8   ar
    18     8    12    1
    19    12    13    1
    20    13    14    1
    21    14    15    1
    22    15    18    1
    23    18    19   ar
    24    19    20   ar
    25    20    21   ar
    26    21    24    1
    27    24    25    1
    28    24    26    1
    29    24    27    1
    30    21    22   ar
    31    22    23   ar
    32    15    16    1
    33    16    17    1
    34     8     9   ar
    35     9    10   ar
    36    10    11    1
    37    28    29    1
    38    29    30    2
    39    29    31   am
    40    31    33    1
    41    33    34   ar
    42    34    35   ar
    43    35    36   ar
    44    36    37   ar
    45    37    38   ar
    46    45    46   ar
    47    46    47   ar
    48    47    48   ar
    49    48    40   ar
    50    48    44   ar
    51    10     5   ar
    52    38    33   ar
    53    17    12    1
    54    23    18   ar
    55     1     4    1
    56    31    32    1
    57    47    49    1
@<TRIPOS>MOLECULE
*****
 52 57 0 0 0
SMALL
GASTEIGER

@<TRIPOS>ATOM
      1 N          59.5446   85.0376   11.8019 N.am    1  UNL1       -0.2945
      2 C          58.7127   85.0108   10.6309 C.2     1  UNL1        0.2483
      3 O          57.7493   84.1991   10.5638 O.2     1  UNL1       -0.2701
      4 H          60.1607   85.8681   11.9507 H       1  UNL1        0.1501
      5 C          58.9464   85.9516    9.5118 C.ar    1  UNL1        0.0808
      6 C          59.5538   87.1921    9.7647 C.ar    1  UNL1        0.0080
      7 C          59.7916   88.0932    8.7241 C.ar    1  UNL1        0.0148
      8 C          59.4168   87.7793    7.4062 C.ar    1  UNL1        0.0502
      9 C          58.7962   86.5432    7.1558 C.ar    1  UNL1        0.0443
     10 C          58.5570   85.6390    8.1954 C.ar    1  UNL1        0.1457
     11 F          57.8995   84.4850    7.9158 F       1  UNL1       -0.2040
     12 N          59.6669   88.7072    6.3270 N.pl3   1  UNL1       -0.3040
     13 C          60.9445   88.6475    5.5997 C.3     1  UNL1        0.1123
     14 C          61.2201   89.9451    4.8337 C.3     1  UNL1        0.1136
     15 N          60.0581   90.3168    4.0138 N.pl3   1  UNL1       -0.2897
     16 C          58.6983   90.1170    4.5431 C.3     1  UNL1        0.1136
     17 C          58.7102   89.7854    6.0394 C.3     1  UNL1        0.1123
     18 C          60.2605   90.9998    2.7557 C.ar    1  UNL1        0.1318
     19 C          59.2181   91.7038    2.1279 C.ar    1  UNL1        0.0343
     20 C          59.4538   92.3506    0.9138 C.ar    1  UNL1        0.0083
     21 C          60.7175   92.2826    0.3095 C.ar    1  UNL1        0.0906
     22 C          61.7381   91.5892    0.9770 C.ar    1  UNL1        0.1041
     23 N          61.4858   90.9692    2.1598 N.ar    1  UNL1       -0.2292
     24 C          60.9979   93.0183   -0.9760 C.3     1  UNL1        0.4200
     25 F          62.0956   93.8399   -0.8001 F       1  UNL1       -0.1658
     26 F          61.2614   92.1268   -2.0015 F       1  UNL1       -0.1658
     27 F          59.9100   93.7914   -1.3431 F       1  UNL1       -0.1658
     28 C          59.3825   84.0770   12.9007 C.3     1  UNL1        0.1535
     29 C          59.6156   82.6593   12.4218 C.2     1  UNL1        0.2443
     30 O          60.7781   82.1685   12.4318 O.2     1  UNL1       -0.2730
     31 N          58.5239   81.8918   11.8964 N.am    1  UNL1       -0.2825
     32 H          57.7278   82.4114   11.4620 H       1  UNL1        0.1549
     33 C          58.4413   80.4572   11.9766 C.ar    1  UNL1        0.0535
     34 C          58.0464   79.6774   10.8738 C.ar    1  UNL1        0.0353
     35 C          58.0537   78.2845   10.9758 C.ar    1  UNL1        0.1002
     36 N          58.4449   77.6870   12.1318 N.ar    1  UNL1       -0.2422
     37 C          58.8405   78.4136   13.2100 C.ar    1  UNL1        0.1002
     38 C          58.8538   79.8091   13.1487 C.ar    1  UNL1        0.0353
     39 C          60.3065   84.4597   14.0811 C.3     1  UNL1        0.0569
     40 C          62.8098   88.1342   11.8537 C.ar    1  UNL1       -0.0069
     41 C          63.0146   87.4552   10.6267 C.ar    1  UNL1       -0.0029
     42 C          62.6027   86.1191   10.4575 C.ar    1  UNL1       -0.0002
     43 C          61.9576   85.4360   11.4968 C.ar    1  UNL1        0.0011
     44 C          61.7339   86.1208   12.6906 C.ar    1  UNL1        0.0128
     45 C          61.0745   85.7344   13.8433 C.ar    1  UNL1       -0.0017
     46 C          61.1451   86.8276   14.6970 C.ar    1  UNL1        0.0681
     47 N          61.7976   87.8511   14.1037 N.ar    1  UNL1       -0.3525
     48 C          62.1524   87.4183   12.8756 C.ar    1  UNL1        0.0523
     49 H          61.9562   88.7885   14.5315 H       1  UNL1        0.1660
     50 C          64.4413   89.7422   12.9213 C.3     1  UNL1        0.0047
     51 C          63.2156   89.5903   12.0102 C.3     1  UNL1        0.0238
     52 C          63.4667   90.2254   10.6386 C.3     1  UNL1        0.0047
@<TRIPOS>BOND
     1    50    51    1
     2    51    52    1
     3    51    40    1
     4    40    41   ar
     5    41    42   ar
     6    42    43   ar
     7    43    44   ar
     8    44    45   ar
     9    45    39    1
    10    39    28    1
    11    28     1    1
    12     1     2   am
    13     2     3    2
    14     2     5    1
    15     5     6   ar
    16     6     7   ar
    17     7     8   ar
    18     8    12    1
    19    12    13    1
    20    13    14    1
    21    14    15    1
    22    15    18    1
    23    18    19   ar
    24    19    20   ar
    25    20    21   ar
    26    21    24    1
    27    24    25    1
    28    24    26    1
    29    24    27    1
    30    21    22   ar
    31    22    23   ar
    32    15    16    1
    33    16    17    1
    34     8     9   ar
    35     9    10   ar
    36    10    11    1
    37    28    29    1
    38    29    30    2
    39    29    31   am
    40    31    33    1
    41    33    34   ar
    42    34    35   ar
    43    35    36   ar
    44    36    37   ar
    45    37    38   ar
    46    45    46   ar
    47    46    47   ar
    48    47    48   ar
    49    48    40   ar
    50    48    44   ar
    51    10     5   ar
    52    38    33   ar
    53    17    12    1
    54    23    18   ar
    55     1     4    1
    56    31    32    1
    57    47    49    1
@<TRIPOS>MOLECULE
*****
 52 57 0 0 0
SMALL
GASTEIGER

@<TRIPOS>ATOM
      1 N          60.7773   83.7046   12.5631 N.am    1  UNL1       -0.2945
      2 C          59.5902   84.1839   11.9113 C.2     1  UNL1        0.2483
      3 O          58.4572   83.7877   12.3001 O.2     1  UNL1       -0.2701
      4 H          61.6700   84.2249   12.4077 H       1  UNL1        0.1501
      5 C          59.6741   85.1693   10.8095 C.ar    1  UNL1        0.0808
      6 C          59.2321   84.8123    9.5254 C.ar    1  UNL1        0.0080
      7 C          59.2940   85.7272    8.4716 C.ar    1  UNL1        0.0148
      8 C          59.8109   87.0185    8.6748 C.ar    1  UNL1        0.0502
      9 C          60.2661   87.3707    9.9572 C.ar    1  UNL1        0.0443
     10 C          60.2052   86.4571   11.0142 C.ar    1  UNL1        0.1457
     11 F          60.7133   86.8208   12.2190 F       1  UNL1       -0.2040
     12 N          59.8708   87.9689    7.5878 N.pl3   1  UNL1       -0.3040
     13 C          61.1266   88.6873    7.3201 C.3     1  UNL1        0.1123
     14 C          60.8912   89.9402    6.4709 C.3     1  UNL1        0.1136
     15 N          60.0989   89.6126    5.2768 N.pl3   1  UNL1       -0.2897
     16 C          58.9942   88.6439    5.3779 C.3     1  UNL1        0.1136
     17 C          58.6558   88.3127    6.8356 C.3     1  UNL1        0.1123
     18 C          60.3212   90.3435    4.0494 C.ar    1  UNL1        0.1318
     19 C          61.5925   90.4035    3.4522 C.ar    1  UNL1        0.0343
     20 C          61.7663   91.1192    2.2666 C.ar    1  UNL1        0.0083
     21 C          60.6846   91.7944    1.6827 C.ar    1  UNL1        0.0906
     22 C          59.4271   91.6929    2.2961 C.ar    1  UNL1        0.1041
     23 N          59.2813   90.9880    3.4490 N.ar    1  UNL1       -0.2292
     24 C          60.8487   92.5288    0.3765 C.3     1  UNL1        0.4200
     25 F          59.8989   93.5298    0.2948 F       1  UNL1       -0.1658
     26 F          62.1090   93.0944    0.2891 F       1  UNL1       -0.1658
     27 F          60.6867   91.6648   -0.6928 F       1  UNL1       -0.1658
     28 C          60.7353   82.6796   13.6138 C.3     1  UNL1        0.1535
     29 C          60.5535   81.2989   13.0188 C.2     1  UNL1        0.2443
     30 O          61.0662   80.2923   13.5812 O.2     1  UNL1       -0.2730
     31 N          59.8500   81.1397   11.7791 N.am    1  UNL1       -0.2825
     32 H          59.8507   81.9444   11.1120 H       1  UNL1        0.1549
     33 C          59.1074   79.9588   11.4252 C.ar    1  UNL1        0.0535
     34 C          59.1146   78.8105   12.2387 C.ar    1  UNL1        0.0353
     35 C          58.3192   77.7157   11.8935 C.ar    1  UNL1        0.1002
     36 N          57.5396   77.7621   10.7816 N.ar    1  UNL1       -0.2422
     37 C          57.5048   78.8606    9.9823 C.ar    1  UNL1        0.1002
     38 C          58.2804   79.9798   10.2940 C.ar    1  UNL1        0.0353
     39 C          61.9987   82.7771   14.5015 C.3     1  UNL1        0.0569
     40 C          62.8012   87.6399   15.1634 C.ar    1  UNL1       -0.0069
     41 C          61.4772   87.9595   15.5549 C.ar    1  UNL1       -0.0029
     42 C          60.4615   86.9839   15.5486 C.ar    1  UNL1       -0.0002
     43 C          60.7450   85.6637   15.1748 C.ar    1  UNL1        0.0011
     44 C          62.0564   85.3512   14.8192 C.ar    1  UNL1        0.0128
     45 C          62.6358   84.1426   14.4777 C.ar    1  UNL1       -0.0017
     46 C          63.9747   84.4253   14.2404 C.ar    1  UNL1        0.0681
     47 N          64.2248   85.7377   14.4409 N.ar    1  UNL1       -0.3525
     48 C          63.0517   86.3007   14.7991 C.ar    1  UNL1        0.0523
     49 H          65.1602   86.1895   14.3516 H       1  UNL1        0.1660
     50 C          64.3791   89.0816   13.8148 C.3     1  UNL1        0.0047
     51 C          63.8997   88.6885   15.2187 C.3     1  UNL1        0.0238
     52 C          63.4268   89.9168   16.0032 C.3     1  UNL1        0.0047
@<TRIPOS>BOND
     1    50    51    1
     2    51    52    1
     3    51    40    1
     4    40    41   ar
     5    41    42   ar
     6    42    43   ar
     7    43    44   ar
     8    44    45   ar
     9    45    39    1
    10    39    28    1
    11    28     1    1
    12     1     2   am
    13     2     3    2
    14     2     5    1
    15     5     6   ar
    16     6     7   ar
    17     7     8   ar
    18     8    12    1
    19    12    13    1
    20    13    14    1
    21    14    15    1
    22    15    18    1
    23    18    19   ar
    24    19    20   ar
    25    20    21   ar
    26    21    24    1
    27    24    25    1
    28    24    26    1
    29    24    27    1
    30    21    22   ar
    31    22    23   ar
    32    15    16    1
    33    16    17    1
    34     8     9   ar
    35     9    10   ar
    36    10    11    1
    37    28    29    1
    38    29    30    2
    39    29    31   am
    40    31    33    1
    41    33    34   ar
    42    34    35   ar
    43    35    36   ar
    44    36    37   ar
    45    37    38   ar
    46    45    46   ar
    47    46    47   ar
    48    47    48   ar
    49    48    40   ar
    50    48    44   ar
    51    10     5   ar
    52    38    33   ar
    53    17    12    1
    54    23    18   ar
    55     1     4    1
    56    31    32    1
    57    47    49    1
@<TRIPOS>MOLECULE
*****
 52 57 0 0 0
SMALL
GASTEIGER

@<TRIPOS>ATOM
      1 N          61.9064   85.7619   12.1324 N.am    1  UNL1       -0.2945
      2 C          60.7559   86.5593   11.8092 C.2     1  UNL1        0.2483
      3 O          59.9023   86.8199   12.7008 O.2     1  UNL1       -0.2701
      4 H          62.7149   85.7710   11.4707 H       1  UNL1        0.1501
      5 C          60.5747   87.1142   10.4486 C.ar    1  UNL1        0.0808
      6 C          60.5600   88.5062   10.2642 C.ar    1  UNL1        0.0080
      7 C          60.3981   89.0534    8.9892 C.ar    1  UNL1        0.0148
      8 C          60.2354   88.2205    7.8686 C.ar    1  UNL1        0.0502
      9 C          60.2362   86.8274    8.0556 C.ar    1  UNL1        0.0443
     10 C          60.3983   86.2766    9.3307 C.ar    1  UNL1        0.1457
     11 F          60.3304   84.9283    9.4707 F       1  UNL1       -0.2040
     12 N          60.0735   88.7838    6.5477 N.pl3   1  UNL1       -0.3040
     13 C          59.3768   90.0698    6.3873 C.3     1  UNL1        0.1123
     14 C          58.9042   90.2808    4.9457 C.3     1  UNL1        0.1136
     15 N          60.0083   90.0533    4.0023 N.pl3   1  UNL1       -0.2897
     16 C          60.9655   88.9617    4.2497 C.3     1  UNL1        0.1136
     17 C          60.4855   88.0212    5.3607 C.3     1  UNL1        0.1123
     18 C          60.0651   90.8118    2.7728 C.ar    1  UNL1        0.1318
     19 C          61.2928   91.1718    2.1899 C.ar    1  UNL1        0.0343
     20 C          61.3056   91.9042    1.0018 C.ar    1  UNL1        0.0083
     21 C          60.1014   92.2991    0.4011 C.ar    1  UNL1        0.0906
     22 C          58.8968   91.9022    1.0007 C.ar    1  UNL1        0.1041
     23 N          58.9091   91.1870    2.1563 N.ar    1  UNL1       -0.2292
     24 C          60.1019   93.0469   -0.9078 C.3     1  UNL1        0.4200
     25 F          58.9773   93.8479   -0.9747 F       1  UNL1       -0.1658
     26 F          61.2295   93.8424   -1.0154 F       1  UNL1       -0.1658
     27 F          60.0912   92.1643   -1.9740 F       1  UNL1       -0.1658
     28 C          62.0850   85.1420   13.4516 C.3     1  UNL1        0.1535
     29 C          62.6182   86.1434   14.4548 C.2     1  UNL1        0.2443
     30 O          63.3324   85.7565   15.4205 O.2     1  UNL1       -0.2730
     31 N          62.2602   87.5279   14.3447 N.am    1  UNL1       -0.2825
     32 H          61.3520   87.7609   13.8830 H       1  UNL1        0.1549
     33 C          63.0989   88.6100   14.7888 C.ar    1  UNL1        0.0535
     34 C          64.2182   89.0294   14.0461 C.ar    1  UNL1        0.0353
     35 C          64.9584   90.1324   14.4776 C.ar    1  UNL1        0.1002
     36 N          64.5959   90.7988   15.6049 N.ar    1  UNL1       -0.2422
     37 C          63.5145   90.4228   16.3372 C.ar    1  UNL1        0.1002
     38 C          62.7431   89.3288   15.9380 C.ar    1  UNL1        0.0353
     39 C          60.7607   84.4908   13.9159 C.3     1  UNL1        0.0569
     40 C          58.4426   81.7060   10.5100 C.ar    1  UNL1       -0.0069
     41 C          57.4075   82.6342   10.2351 C.ar    1  UNL1       -0.0029
     42 C          57.2984   83.8372   10.9593 C.ar    1  UNL1       -0.0002
     43 C          58.2294   84.1543   11.9571 C.ar    1  UNL1        0.0011
     44 C          59.2615   83.2492   12.2010 C.ar    1  UNL1        0.0128
     45 C          60.3428   83.3227   13.0602 C.ar    1  UNL1       -0.0017
     46 C          61.0515   82.1437   12.8689 C.ar    1  UNL1        0.0681
     47 N          60.4562   81.3805   11.9264 N.ar    1  UNL1       -0.3525
     48 C          59.3649   82.0604   11.5162 C.ar    1  UNL1        0.0523
     49 H          60.8123   80.4610   11.5877 H       1  UNL1        0.1660
     50 C          57.9799   79.2231   10.4208 C.3     1  UNL1        0.0047
     51 C          58.5789   80.4331    9.6912 C.3     1  UNL1        0.0238
     52 C          57.9405   80.6151    8.3102 C.3     1  UNL1        0.0047
@<TRIPOS>BOND
     1    50    51    1
     2    51    52    1
     3    51    40    1
     4    40    41   ar
     5    41    42   ar
     6    42    43   ar
     7    43    44   ar
     8    44    45   ar
     9    45    39    1
    10    39    28    1
    11    28     1    1
    12     1     2   am
    13     2     3    2
    14     2     5    1
    15     5     6   ar
    16     6     7   ar
    17     7     8   ar
    18     8    12    1
    19    12    13    1
    20    13    14    1
    21    14    15    1
    22    15    18    1
    23    18    19   ar
    24    19    20   ar
    25    20    21   ar
    26    21    24    1
    27    24    25    1
    28    24    26    1
    29    24    27    1
    30    21    22   ar
    31    22    23   ar
    32    15    16    1
    33    16    17    1
    34     8     9   ar
    35     9    10   ar
    36    10    11    1
    37    28    29    1
    38    29    30    2
    39    29    31   am
    40    31    33    1
    41    33    34   ar
    42    34    35   ar
    43    35    36   ar
    44    36    37   ar
    45    37    38   ar
    46    45    46   ar
    47    46    47   ar
    48    47    48   ar
    49    48    40   ar
    50    48    44   ar
    51    10     5   ar
    52    38    33   ar
    53    17    12    1
    54    23    18   ar
    55     1     4    1
    56    31    32    1
    57    47    49    1
@<TRIPOS>MOLECULE
*****
 52 57 0 0 0
SMALL
GASTEIGER

@<TRIPOS>ATOM
      1 N          58.8352   84.2664   10.2802 N.am    1  UNL1       -0.2945
      2 C          59.5676   85.2667    9.5544 C.2     1  UNL1        0.2483
      3 O          59.3856   85.4008    8.3132 O.2     1  UNL1       -0.2701
      4 H          58.8029   84.3372   11.3221 H       1  UNL1        0.1501
      5 C          60.5095   86.1726   10.2503 C.ar    1  UNL1        0.0808
      6 C          61.1143   85.7566   11.4473 C.ar    1  UNL1        0.0080
      7 C          62.0122   86.5904   12.1181 C.ar    1  UNL1        0.0148
      8 C          62.3179   87.8661   11.6130 C.ar    1  UNL1        0.0502
      9 C          61.7015   88.2875   10.4221 C.ar    1  UNL1        0.0443
     10 C          60.8024   87.4549    9.7482 C.ar    1  UNL1        0.1457
     11 F          60.1851   87.9285    8.6361 F       1  UNL1       -0.2040
     12 N          63.2507   88.7284   12.3018 N.pl3   1  UNL1       -0.3040
     13 C          63.6712   88.3957   13.6720 C.3     1  UNL1        0.1123
     14 C          64.2703   89.6089   14.3899 C.3     1  UNL1        0.1136
     15 N          65.3072   90.2390   13.5602 N.pl3   1  UNL1       -0.2897
     16 C          65.1144   90.3394   12.1036 C.3     1  UNL1        0.1136
     17 C          63.6787   89.9954   11.6919 C.3     1  UNL1        0.1123
     18 C          66.4404   90.8752   14.1939 C.ar    1  UNL1        0.1318
     19 C          66.3146   91.5337   15.4296 C.ar    1  UNL1        0.0343
     20 C          67.4327   92.1354   16.0092 C.ar    1  UNL1        0.0083
     21 C          68.6725   92.1038   15.3544 C.ar    1  UNL1        0.0906
     22 C          68.7632   91.4185   14.1336 C.ar    1  UNL1        0.1041
     23 N          67.6614   90.8378   13.5897 N.ar    1  UNL1       -0.2292
     24 C          69.8975   92.7064   15.9935 C.3     1  UNL1        0.4200
     25 F          70.5166   91.7527   16.7796 F       1  UNL1       -0.1658
     26 F          70.7880   93.1423   15.0277 F       1  UNL1       -0.1658
     27 F          69.5528   93.7887   16.7847 F       1  UNL1       -0.1658
     28 C          57.9433   83.3095    9.6130 C.3     1  UNL1        0.1535
     29 C          58.5530   82.8087    8.3203 C.2     1  UNL1        0.2443
     30 O          57.8191   82.5727    7.3214 O.2     1  UNL1       -0.2730
     31 N          59.9603   82.5415    8.2481 N.am    1  UNL1       -0.2825
     32 H          60.4531   82.2834    9.1329 H       1  UNL1        0.1549
     33 C          60.7364   82.6551    7.0414 C.ar    1  UNL1        0.0535
     34 C          60.3109   82.0744    5.8322 C.ar    1  UNL1        0.0353
     35 C          61.0589   82.2747    4.6700 C.ar    1  UNL1        0.1002
     36 N          62.1878   83.0302    4.7067 N.ar    1  UNL1       -0.2422
     37 C          62.6181   83.6112    5.8574 C.ar    1  UNL1        0.1002
     38 C          61.8966   83.4412    7.0414 C.ar    1  UNL1        0.0353
     39 C          57.5827   82.1567   10.5798 C.3     1  UNL1        0.0569
     40 C          61.5673   80.9372   13.2936 C.ar    1  UNL1       -0.0069
     41 C          62.0924   79.9939   12.3754 C.ar    1  UNL1       -0.0029
     42 C          61.3951   79.6589   11.1985 C.ar    1  UNL1       -0.0002
     43 C          60.1713   80.2712   10.8975 C.ar    1  UNL1        0.0011
     44 C          59.6763   81.2194   11.7916 C.ar    1  UNL1        0.0128
     45 C          58.5507   82.0206   11.7268 C.ar    1  UNL1       -0.0017
     46 C          58.5702   82.7848   12.8863 C.ar    1  UNL1        0.0681
     47 N          59.6599   82.4916   13.6290 N.ar    1  UNL1       -0.3525
     48 C          60.3369   81.5379   12.9556 C.ar    1  UNL1        0.0523
     49 H          59.9113   82.9507   14.5307 H       1  UNL1        0.1660
     50 C          63.3920   80.2621   14.9065 C.3     1  UNL1        0.0047
     51 C          62.3499   81.3263   14.5367 C.3     1  UNL1        0.0238
     52 C          63.0065   82.6978   14.3473 C.3     1  UNL1        0.0047
@<TRIPOS>BOND
     1    50    51    1
     2    51    52    1
     3    51    40    1
     4    40    41   ar
     5    41    42   ar
     6    42    43   ar
     7    43    44   ar
     8    44    45   ar
     9    45    39    1
    10    39    28    1
    11    28     1    1
    12     1     2   am
    13     2     3    2
    14     2     5    1
    15     5     6   ar
    16     6     7   ar
    17     7     8   ar
    18     8    12    1
    19    12    13    1
    20    13    14    1
    21    14    15    1
    22    15    18    1
    23    18    19   ar
    24    19    20   ar
    25    20    21   ar
    26    21    24    1
    27    24    25    1
    28    24    26    1
    29    24    27    1
    30    21    22   ar
    31    22    23   ar
    32    15    16    1
    33    16    17    1
    34     8     9   ar
    35     9    10   ar
    36    10    11    1
    37    28    29    1
    38    29    30    2
    39    29    31   am
    40    31    33    1
    41    33    34   ar
    42    34    35   ar
    43    35    36   ar
    44    36    37   ar
    45    37    38   ar
    46    45    46   ar
    47    46    47   ar
    48    47    48   ar
    49    48    40   ar
    50    48    44   ar
    51    10     5   ar
    52    38    33   ar
    53    17    12    1
    54    23    18   ar
    55     1     4    1
    56    31    32    1
    57    47    49    1
