@<TRIPOS>MOLECULE
*****
 50 55 0 0 0
SMALL
GASTEIGER

@<TRIPOS>ATOM
      1 C          60.9188   85.6757   12.5749 C.3     1  UNL1        0.1535
      2 N          60.7880   86.3408   11.2738 N.am    1  UNL1       -0.2945
      3 C          59.8639   87.4184   11.0524 C.2     1  UNL1        0.2483
      4 O          59.0747   87.7644   11.9737 O.2     1  UNL1       -0.2701
      5 H          61.2300   85.8992   10.4387 H       1  UNL1        0.1501
      6 C          59.8206   88.1207    9.7466 C.ar    1  UNL1        0.0808
      7 C          60.4420   89.3734    9.5931 C.ar    1  UNL1        0.0080
      8 C          60.4039   90.0406    8.3665 C.ar    1  UNL1        0.0148
      9 C          59.7406   89.4742    7.2692 C.ar    1  UNL1        0.0502
     10 C          59.1142   88.2269    7.4181 C.ar    1  UNL1        0.0443
     11 C          59.1484   87.5557    8.6445 C.ar    1  UNL1        0.1457
     12 F          58.5431   86.3448    8.7429 F       1  UNL1       -0.2040
     13 N          59.7108   90.1656    6.0064 N.pl3   1  UNL1       -0.3040
     14 C          60.8934   90.1812    5.1373 C.3     1  UNL1        0.1122
     15 C          61.0337   91.5503    4.4709 C.3     1  UNL1        0.1122
     16 N          59.7504   91.9633    3.8900 N.pl3   1  UNL1       -0.3040
     17 C          58.5675   91.9471    4.7591 C.3     1  UNL1        0.1122
     18 C          58.4274   90.5780    5.4252 C.3     1  UNL1        0.1122
     19 C          59.7222   92.6610    2.6306 C.ar    1  UNL1        0.0488
     20 C          60.6320   93.6978    2.3652 C.ar    1  UNL1        0.0154
     21 C          60.5971   94.3714    1.1416 C.ar    1  UNL1        0.0135
     22 C          59.6540   94.0214    0.1696 C.ar    1  UNL1        0.0683
     23 CL         59.6411   94.8924   -1.3578 Cl      1  UNL1       -0.0814
     24 C          58.7378   92.9878    0.4273 C.ar    1  UNL1        0.0694
     25 CL         57.5318   92.5207   -0.7641 Cl      1  UNL1       -0.0813
     26 C          58.7752   92.3139    1.6538 C.ar    1  UNL1        0.0268
     27 C          60.0605   84.4362   12.6326 C.2     1  UNL1        0.2443
     28 O          58.8397   84.5563   12.9244 O.2     1  UNL1       -0.2730
     29 N          60.6372   83.1311   12.4473 N.am    1  UNL1       -0.2825
     30 H          61.6776   83.0413   12.4740 H       1  UNL1        0.1549
     31 C          59.8704   81.9177   12.3919 C.ar    1  UNL1        0.0535
     32 C          59.1062   81.5832   11.2617 C.ar    1  UNL1        0.0353
     33 C          58.3955   80.3804   11.2432 C.ar    1  UNL1        0.1002
     34 N          58.4553   79.5355   12.3065 N.ar    1  UNL1       -0.2422
     35 C          59.2006   79.8261   13.4056 C.ar    1  UNL1        0.1002
     36 C          59.9275   81.0174   13.4643 C.ar    1  UNL1        0.0353
     37 C          62.3952   85.3713   12.9076 C.3     1  UNL1        0.0569
     38 N          64.5589   91.7602   13.2771 N.pl3   1  UNL1       -0.3570
     39 C          64.1363   90.3956   13.3337 C.ar    1  UNL1        0.0430
     40 C          63.4428   89.8221   12.2397 C.ar    1  UNL1        0.0142
     41 C          63.0228   88.4808   12.2817 C.ar    1  UNL1        0.0024
     42 C          63.3148   87.7413   13.4277 C.ar    1  UNL1        0.0132
     43 C          63.0568   86.4236   13.7569 C.ar    1  UNL1       -0.0017
     44 C          63.5891   86.2447   15.0311 C.ar    1  UNL1        0.0681
     45 N          64.1546   87.3908   15.4724 N.ar    1  UNL1       -0.3522
     46 C          63.9831   88.2923   14.4901 C.ar    1  UNL1        0.0576
     47 C          64.4110   89.6188   14.4791 C.ar    1  UNL1        0.0310
     48 H          65.0714   92.1942   14.0769 H       1  UNL1        0.1424
     49 H          64.3628   92.3457   12.4347 H       1  UNL1        0.1424
     50 H          64.6359   87.5379   16.3874 H       1  UNL1        0.1660
@<TRIPOS>BOND
     1    38    39    1
     2    39    40   ar
     3    40    41   ar
     4    41    42   ar
     5    42    43   ar
     6    43    37    1
     7    37     1    1
     8     1     2    1
     9     2     3   am
    10     3     4    2
    11     3     6    1
    12     6     7   ar
    13     7     8   ar
    14     8     9   ar
    15     9    13    1
    16    13    14    1
    17    14    15    1
    18    15    16    1
    19    16    19    1
    20    19    20   ar
    21    20    21   ar
    22    21    22   ar
    23    22    23    1
    24    22    24   ar
    25    24    25    1
    26    24    26   ar
    27    16    17    1
    28    17    18    1
    29     9    10   ar
    30    10    11   ar
    31    11    12    1
    32     1    27    1
    33    27    28    2
    34    27    29   am
    35    29    31    1
    36    31    32   ar
    37    32    33   ar
    38    33    34   ar
    39    34    35   ar
    40    35    36   ar
    41    43    44   ar
    42    44    45   ar
    43    45    46   ar
    44    46    47   ar
    45    47    39   ar
    46    46    42   ar
    47    11     6   ar
    48    36    31   ar
    49    18    13    1
    50    26    19   ar
    51    38    48    1
    52    38    49    1
    53     2     5    1
    54    29    30    1
    55    45    50    1
@<TRIPOS>MOLECULE
*****
 50 55 0 0 0
SMALL
GASTEIGER

@<TRIPOS>ATOM
      1 C          59.6607   85.4443   12.4045 C.3     1  UNL1        0.1535
      2 N          59.6169   86.1758   11.1336 N.am    1  UNL1       -0.2945
      3 C          59.6444   87.6110   11.0731 C.2     1  UNL1        0.2483
      4 O          59.6251   88.2823   12.1410 O.2     1  UNL1       -0.2701
      5 H          59.3638   85.6567   10.2652 H       1  UNL1        0.1501
      6 C          59.6833   88.3118    9.7663 C.ar    1  UNL1        0.0808
      7 C          59.1859   87.6850    8.6093 C.ar    1  UNL1        0.0080
      8 C          59.2205   88.3389    7.3755 C.ar    1  UNL1        0.0148
      9 C          59.7570   89.6296    7.2695 C.ar    1  UNL1        0.0502
     10 C          60.2598   90.2577    8.4197 C.ar    1  UNL1        0.0443
     11 C          60.2285   89.6067    9.6569 C.ar    1  UNL1        0.1457
     12 F          60.7110   90.2544   10.7478 F       1  UNL1       -0.2040
     13 N          59.7839   90.2992    5.9949 N.pl3   1  UNL1       -0.3040
     14 C          60.9762   90.2299    5.1419 C.3     1  UNL1        0.1122
     15 C          61.2054   91.5765    4.4545 C.3     1  UNL1        0.1122
     16 N          59.9560   92.0539    3.8493 N.pl3   1  UNL1       -0.3040
     17 C          58.7635   92.1225    4.7024 C.3     1  UNL1        0.1122
     18 C          58.5345   90.7759    5.3895 C.3     1  UNL1        0.1122
     19 C          59.9849   92.7297    2.5780 C.ar    1  UNL1        0.0488
     20 C          61.0266   93.6174    2.2619 C.ar    1  UNL1        0.0154
     21 C          61.0465   94.2710    1.0271 C.ar    1  UNL1        0.0135
     22 C          60.0278   94.0494    0.0944 C.ar    1  UNL1        0.0683
     23 CL         60.0876   94.8905   -1.4486 Cl      1  UNL1       -0.0814
     24 C          58.9801   93.1657    0.4030 C.ar    1  UNL1        0.0694
     25 CL         57.6763   92.8639   -0.7376 Cl      1  UNL1       -0.0813
     26 C          58.9626   92.5116    1.6406 C.ar    1  UNL1        0.0268
     27 C          58.9770   84.1053   12.2767 C.2     1  UNL1        0.2443
     28 O          57.7202   84.0548   12.3642 O.2     1  UNL1       -0.2730
     29 N          59.7446   82.8952   12.1473 N.am    1  UNL1       -0.2825
     30 H          60.7696   82.9357   12.3446 H       1  UNL1        0.1549
     31 C          59.1652   81.5999   11.9242 C.ar    1  UNL1        0.0535
     32 C          58.4400   81.3114   10.7563 C.ar    1  UNL1        0.0353
     33 C          57.9152   80.0297   10.5714 C.ar    1  UNL1        0.1002
     34 N          58.1174   79.0672   11.5098 N.ar    1  UNL1       -0.2422
     35 C          58.8299   79.3141   12.6408 C.ar    1  UNL1        0.1002
     36 C          59.3731   80.5814   12.8640 C.ar    1  UNL1        0.0353
     37 C          61.1067   85.3063   12.9272 C.3     1  UNL1        0.0569
     38 N          64.5600   90.6011   15.3097 N.pl3   1  UNL1       -0.3570
     39 C          63.7671   89.4735   14.9306 C.ar    1  UNL1        0.0430
     40 C          63.7551   89.0357   13.5834 C.ar    1  UNL1        0.0142
     41 C          62.9809   87.9273   13.1974 C.ar    1  UNL1        0.0024
     42 C          62.2350   87.2780   14.1811 C.ar    1  UNL1        0.0132
     43 C          61.4071   86.1725   14.1213 C.ar    1  UNL1       -0.0017
     44 C          60.9412   85.9826   15.4197 C.ar    1  UNL1        0.0681
     45 N          61.4560   86.9189   16.2483 N.ar    1  UNL1       -0.3522
     46 C          62.2410   87.6993   15.4855 C.ar    1  UNL1        0.0576
     47 C          62.9969   88.7951   15.8988 C.ar    1  UNL1        0.0310
     48 H          64.5775   90.9331   16.2997 H       1  UNL1        0.1424
     49 H          65.1354   91.1114   14.6030 H       1  UNL1        0.1424
     50 H          61.2843   87.0071   17.2745 H       1  UNL1        0.1660
@<TRIPOS>BOND
     1    38    39    1
     2    39    40   ar
     3    40    41   ar
     4    41    42   ar
     5    42    43   ar
     6    43    37    1
     7    37     1    1
     8     1     2    1
     9     2     3   am
    10     3     4    2
    11     3     6    1
    12     6     7   ar
    13     7     8   ar
    14     8     9   ar
    15     9    13    1
    16    13    14    1
    17    14    15    1
    18    15    16    1
    19    16    19    1
    20    19    20   ar
    21    20    21   ar
    22    21    22   ar
    23    22    23    1
    24    22    24   ar
    25    24    25    1
    26    24    26   ar
    27    16    17    1
    28    17    18    1
    29     9    10   ar
    30    10    11   ar
    31    11    12    1
    32     1    27    1
    33    27    28    2
    34    27    29   am
    35    29    31    1
    36    31    32   ar
    37    32    33   ar
    38    33    34   ar
    39    34    35   ar
    40    35    36   ar
    41    43    44   ar
    42    44    45   ar
    43    45    46   ar
    44    46    47   ar
    45    47    39   ar
    46    46    42   ar
    47    11     6   ar
    48    36    31   ar
    49    18    13    1
    50    26    19   ar
    51    38    48    1
    52    38    49    1
    53     2     5    1
    54    29    30    1
    55    45    50    1
@<TRIPOS>MOLECULE
*****
 50 55 0 0 0
SMALL
GASTEIGER

@<TRIPOS>ATOM
      1 C          57.9260   83.5220   12.1416 C.3     1  UNL1        0.1535
      2 N          58.9914   84.4752   12.4712 N.am    1  UNL1       -0.2945
      3 C          58.8019   85.8969   12.3871 C.2     1  UNL1        0.2483
      4 O          57.7156   86.3575   11.9407 O.2     1  UNL1       -0.2701
      5 H          59.9657   84.1196   12.5806 H       1  UNL1        0.1501
      6 C          59.8760   86.8289   12.8091 C.ar    1  UNL1        0.0808
      7 C          61.1965   86.6395   12.3625 C.ar    1  UNL1        0.0080
      8 C          62.2128   87.5127   12.7570 C.ar    1  UNL1        0.0148
      9 C          61.9337   88.5899   13.6095 C.ar    1  UNL1        0.0502
     10 C          60.6189   88.7805   14.0626 C.ar    1  UNL1        0.0443
     11 C          59.5983   87.9082   13.6715 C.ar    1  UNL1        0.1457
     12 F          58.3374   88.1360   14.1197 F       1  UNL1       -0.2040
     13 N          62.9859   89.4890   14.0071 N.pl3   1  UNL1       -0.3040
     14 C          63.2383   90.7213   13.2509 C.3     1  UNL1        0.1122
     15 C          64.7424   90.9829   13.1658 C.3     1  UNL1        0.1122
     16 N          65.3532   90.8566   14.4947 N.pl3   1  UNL1       -0.3040
     17 C          65.1002   89.6244   15.2512 C.3     1  UNL1        0.1122
     18 C          63.5961   89.3631   15.3363 C.3     1  UNL1        0.1122
     19 C          66.4102   91.7518   14.8885 C.ar    1  UNL1        0.0488
     20 C          66.1848   92.7448   15.8562 C.ar    1  UNL1        0.0154
     21 C          67.2148   93.6110   16.2316 C.ar    1  UNL1        0.0135
     22 C          68.4801   93.4994   15.6456 C.ar    1  UNL1        0.0683
     23 CL         69.7508   94.6079   16.1441 Cl      1  UNL1       -0.0814
     24 C          68.7140   92.5113   14.6745 C.ar    1  UNL1        0.0694
     25 CL         70.2874   92.3410   13.9081 Cl      1  UNL1       -0.0813
     26 C          67.6806   91.6442   14.3005 C.ar    1  UNL1        0.0268
     27 C          57.8545   83.2911   10.6523 C.2     1  UNL1        0.2443
     28 O          57.0455   83.9766    9.9700 O.2     1  UNL1       -0.2730
     29 N          58.6269   82.2487   10.0301 N.am    1  UNL1       -0.2825
     30 H          59.0764   81.5325   10.6434 H       1  UNL1        0.1549
     31 C          58.6844   82.0336    8.6110 C.ar    1  UNL1        0.0535
     32 C          57.7181   81.2610    7.9458 C.ar    1  UNL1        0.0353
     33 C          57.8011   81.0992    6.5605 C.ar    1  UNL1        0.1002
     34 N          58.8025   81.6970    5.8620 N.ar    1  UNL1       -0.2422
     35 C          59.7406   82.4640    6.4779 C.ar    1  UNL1        0.1002
     36 C          59.6934   82.6527    7.8611 C.ar    1  UNL1        0.0353
     37 C          58.0888   82.2007   12.9232 C.3     1  UNL1        0.0569
     38 N          64.8327   82.2065   12.5283 N.pl3   1  UNL1       -0.3570
     39 C          63.4102   82.0711   12.5726 C.ar    1  UNL1        0.0430
     40 C          62.6147   83.1156   13.1044 C.ar    1  UNL1        0.0142
     41 C          61.2145   82.9960   13.1526 C.ar    1  UNL1        0.0024
     42 C          60.6425   81.8238   12.6585 C.ar    1  UNL1        0.0132
     43 C          59.3236   81.4231   12.5527 C.ar    1  UNL1       -0.0017
     44 C          59.3618   80.1572   11.9739 C.ar    1  UNL1        0.0681
     45 N          60.6391   79.7889   11.7267 N.ar    1  UNL1       -0.3522
     46 C          61.4079   80.8090   12.1454 C.ar    1  UNL1        0.0576
     47 C          62.7977   80.8972   12.0852 C.ar    1  UNL1        0.0310
     48 H          65.4300   81.4437   12.1381 H       1  UNL1        0.1424
     49 H          65.2985   83.0707   12.8848 H       1  UNL1        0.1424
     50 H          60.9581   78.8961   11.2888 H       1  UNL1        0.1660
@<TRIPOS>BOND
     1    38    39    1
     2    39    40   ar
     3    40    41   ar
     4    41    42   ar
     5    42    43   ar
     6    43    37    1
     7    37     1    1
     8     1     2    1
     9     2     3   am
    10     3     4    2
    11     3     6    1
    12     6     7   ar
    13     7     8   ar
    14     8     9   ar
    15     9    13    1
    16    13    14    1
    17    14    15    1
    18    15    16    1
    19    16    19    1
    20    19    20   ar
    21    20    21   ar
    22    21    22   ar
    23    22    23    1
    24    22    24   ar
    25    24    25    1
    26    24    26   ar
    27    16    17    1
    28    17    18    1
    29     9    10   ar
    30    10    11   ar
    31    11    12    1
    32     1    27    1
    33    27    28    2
    34    27    29   am
    35    29    31    1
    36    31    32   ar
    37    32    33   ar
    38    33    34   ar
    39    34    35   ar
    40    35    36   ar
    41    43    44   ar
    42    44    45   ar
    43    45    46   ar
    44    46    47   ar
    45    47    39   ar
    46    46    42   ar
    47    11     6   ar
    48    36    31   ar
    49    18    13    1
    50    26    19   ar
    51    38    48    1
    52    38    49    1
    53     2     5    1
    54    29    30    1
    55    45    50    1
@<TRIPOS>MOLECULE
*****
 50 55 0 0 0
SMALL
GASTEIGER

@<TRIPOS>ATOM
      1 C          59.3188   84.1135    8.6247 C.3     1  UNL1        0.1535
      2 N          60.2222   85.0330    9.3252 N.am    1  UNL1       -0.2945
      3 C          60.2350   86.4453    9.0618 C.2     1  UNL1        0.2483
      4 O          59.5084   86.9168    8.1448 O.2     1  UNL1       -0.2701
      5 H          61.0077   84.6348    9.8840 H       1  UNL1        0.1501
      6 C          61.1036   87.3533    9.8502 C.ar    1  UNL1        0.0808
      7 C          61.8159   86.8671   10.9616 C.ar    1  UNL1        0.0080
      8 C          62.6346   87.7170   11.7088 C.ar    1  UNL1        0.0148
      9 C          62.7554   89.0708   11.3659 C.ar    1  UNL1        0.0502
     10 C          62.0427   89.5626   10.2611 C.ar    1  UNL1        0.0443
     11 C          61.2208   88.7159    9.5107 C.ar    1  UNL1        0.1457
     12 F          60.5602   89.2273    8.4408 F       1  UNL1       -0.2040
     13 N          63.6060   89.9393   12.1378 N.pl3   1  UNL1       -0.3040
     14 C          64.0602   91.2209   11.5853 C.3     1  UNL1        0.1122
     15 C          65.5068   91.4865   12.0037 C.3     1  UNL1        0.1122
     16 N          65.6637   91.2678   13.4468 N.pl3   1  UNL1       -0.3040
     17 C          65.2087   89.9862   13.9994 C.3     1  UNL1        0.1122
     18 C          63.7621   89.7210   13.5810 C.3     1  UNL1        0.1122
     19 C          66.5200   92.1326   14.2165 C.ar    1  UNL1        0.0488
     20 C          66.4964   93.5234   14.0208 C.ar    1  UNL1        0.0154
     21 C          67.3317   94.3558   14.7700 C.ar    1  UNL1        0.0135
     22 C          68.2017   93.8120   15.7209 C.ar    1  UNL1        0.0683
     23 CL         69.2378   94.8919   16.6441 Cl      1  UNL1       -0.0814
     24 C          68.2347   92.4218   15.9214 C.ar    1  UNL1        0.0694
     25 CL         69.3180   91.6964   17.1013 Cl      1  UNL1       -0.0813
     26 C          67.3963   91.5899   15.1699 C.ar    1  UNL1        0.0268
     27 C          59.8453   82.7005    8.6765 C.2     1  UNL1        0.2443
     28 O          59.6884   81.9571    7.6701 O.2     1  UNL1       -0.2730
     29 N          60.4357   82.1776    9.8799 N.am    1  UNL1       -0.2825
     30 H          60.3122   82.7162   10.7663 H       1  UNL1        0.1549
     31 C          61.0443   80.8799    9.9743 C.ar    1  UNL1        0.0535
     32 C          62.3157   80.6243    9.4346 C.ar    1  UNL1        0.0353
     33 C          62.8785   79.3528    9.5719 C.ar    1  UNL1        0.1002
     34 N          62.2046   78.3758   10.2348 N.ar    1  UNL1       -0.2422
     35 C          60.9807   78.6007   10.7819 C.ar    1  UNL1        0.1002
     36 C          60.3829   79.8581   10.6687 C.ar    1  UNL1        0.0353
     37 C          57.8779   84.2127    9.1700 C.3     1  UNL1        0.0569
     38 N          58.4009   88.2135   14.5883 N.pl3   1  UNL1       -0.3570
     39 C          58.2504   87.2651   13.5291 C.ar    1  UNL1        0.0430
     40 C          58.3494   87.6868   12.1803 C.ar    1  UNL1        0.0142
     41 C          58.2049   86.7643   11.1290 C.ar    1  UNL1        0.0024
     42 C          57.9666   85.4304   11.4597 C.ar    1  UNL1        0.0132
     43 C          57.8008   84.3075   10.6706 C.ar    1  UNL1       -0.0017
     44 C          57.5996   83.2528   11.5572 C.ar    1  UNL1        0.0681
     45 N          57.6426   83.6943   12.8345 N.ar    1  UNL1       -0.3522
     46 C          57.8671   85.0177   12.7631 C.ar    1  UNL1        0.0576
     47 C          58.0043   85.9081   13.8267 C.ar    1  UNL1        0.0310
     48 H          58.3305   87.9148   15.5866 H       1  UNL1        0.1424
     49 H          58.5843   89.2207   14.3815 H       1  UNL1        0.1424
     50 H          57.5339   83.1180   13.6985 H       1  UNL1        0.1660
@<TRIPOS>BOND
     1    38    39    1
     2    39    40   ar
     3    40    41   ar
     4    41    42   ar
     5    42    43   ar
     6    43    37    1
     7    37     1    1
     8     1     2    1
     9     2     3   am
    10     3     4    2
    11     3     6    1
    12     6     7   ar
    13     7     8   ar
    14     8     9   ar
    15     9    13    1
    16    13    14    1
    17    14    15    1
    18    15    16    1
    19    16    19    1
    20    19    20   ar
    21    20    21   ar
    22    21    22   ar
    23    22    23    1
    24    22    24   ar
    25    24    25    1
    26    24    26   ar
    27    16    17    1
    28    17    18    1
    29     9    10   ar
    30    10    11   ar
    31    11    12    1
    32     1    27    1
    33    27    28    2
    34    27    29   am
    35    29    31    1
    36    31    32   ar
    37    32    33   ar
    38    33    34   ar
    39    34    35   ar
    40    35    36   ar
    41    43    44   ar
    42    44    45   ar
    43    45    46   ar
    44    46    47   ar
    45    47    39   ar
    46    46    42   ar
    47    11     6   ar
    48    36    31   ar
    49    18    13    1
    50    26    19   ar
    51    38    48    1
    52    38    49    1
    53     2     5    1
    54    29    30    1
    55    45    50    1
@<TRIPOS>MOLECULE
*****
 50 55 0 0 0
SMALL
GASTEIGER

@<TRIPOS>ATOM
      1 C          58.4614   82.0289   12.4709 C.3     1  UNL1        0.1535
      2 N          59.4054   83.1183   12.7435 N.am    1  UNL1       -0.2945
      3 C          58.9994   84.4961   12.7723 C.2     1  UNL1        0.2483
      4 O          57.8122   84.8044   12.4773 O.2     1  UNL1       -0.2701
      5 H          60.4277   82.9123   12.7230 H       1  UNL1        0.1501
      6 C          59.9660   85.5616   13.1342 C.ar    1  UNL1        0.0808
      7 C          61.3385   85.3927   12.8761 C.ar    1  UNL1        0.0080
      8 C          62.2541   86.3915   13.2154 C.ar    1  UNL1        0.0148
      9 C          61.8200   87.5772   13.8241 C.ar    1  UNL1        0.0502
     10 C          60.4523   87.7488   14.0890 C.ar    1  UNL1        0.0443
     11 C          59.5319   86.7512   13.7524 C.ar    1  UNL1        0.1457
     12 F          58.2163   86.9623   14.0117 F       1  UNL1       -0.2040
     13 N          62.7694   88.6045   14.1657 N.pl3   1  UNL1       -0.3040
     14 C          62.7904   89.8742   13.4297 C.3     1  UNL1        0.1122
     15 C          64.2334   90.3416   13.2358 C.3     1  UNL1        0.1122
     16 N          64.9615   90.2748   14.5088 N.pl3   1  UNL1       -0.3040
     17 C          64.9399   89.0051   15.2451 C.3     1  UNL1        0.1122
     18 C          63.4969   88.5381   15.4390 C.3     1  UNL1        0.1122
     19 C          65.9159   91.2989   14.8462 C.ar    1  UNL1        0.0488
     20 C          65.5847   92.3146   15.7582 C.ar    1  UNL1        0.0154
     21 C          66.5154   93.3061   16.0790 C.ar    1  UNL1        0.0135
     22 C          67.7856   93.2984   15.4930 C.ar    1  UNL1        0.0683
     23 CL         68.9295   94.5631   15.9216 Cl      1  UNL1       -0.0814
     24 C          68.1247   92.2883   14.5771 C.ar    1  UNL1        0.0694
     25 CL         69.7076   92.2452   13.8125 Cl      1  UNL1       -0.0813
     26 C          67.1907   91.2956   14.2579 C.ar    1  UNL1        0.0268
     27 C          58.3642   81.7613   10.9891 C.2     1  UNL1        0.2443
     28 O          57.6269   80.8197   10.5896 O.2     1  UNL1       -0.2730
     29 N          59.1639   82.5045   10.0520 N.am    1  UNL1       -0.2825
     30 H          59.9506   83.0833   10.4223 H       1  UNL1        0.1549
     31 C          59.0543   82.3734    8.6257 C.ar    1  UNL1        0.0535
     32 C          60.0187   82.9188    7.7621 C.ar    1  UNL1        0.0353
     33 C          59.8833   82.7453    6.3824 C.ar    1  UNL1        0.1002
     34 N          58.8327   82.0422    5.8825 N.ar    1  UNL1       -0.2422
     35 C          57.8946   81.4890    6.6960 C.ar    1  UNL1        0.1002
     36 C          57.9933   81.6375    8.0814 C.ar    1  UNL1        0.0353
     37 C          58.8241   80.7555   13.2646 C.3     1  UNL1        0.0569
     38 N          64.8882   82.8690   15.3616 N.pl3   1  UNL1       -0.3570
     39 C          63.6684   82.3051   14.8736 C.ar    1  UNL1        0.0430
     40 C          62.4328   82.9403   15.1507 C.ar    1  UNL1        0.0142
     41 C          61.2260   82.3973   14.6755 C.ar    1  UNL1        0.0024
     42 C          61.2896   81.2234   13.9249 C.ar    1  UNL1        0.0132
     43 C          60.3017   80.4715   13.3167 C.ar    1  UNL1       -0.0017
     44 C          60.9626   79.4101   12.7037 C.ar    1  UNL1        0.0681
     45 N          62.2953   79.4980   12.9147 N.ar    1  UNL1       -0.3522
     46 C          62.4823   80.6034   13.6564 C.ar    1  UNL1        0.0576
     47 C          63.6947   81.1162   14.1144 C.ar    1  UNL1        0.0310
     48 H          65.8053   82.4104   15.1636 H       1  UNL1        0.1424
     49 H          64.8826   83.7491   15.9238 H       1  UNL1        0.1424
     50 H          63.0281   78.8432   12.5615 H       1  UNL1        0.1660
@<TRIPOS>BOND
     1    38    39    1
     2    39    40   ar
     3    40    41   ar
     4    41    42   ar
     5    42    43   ar
     6    43    37    1
     7    37     1    1
     8     1     2    1
     9     2     3   am
    10     3     4    2
    11     3     6    1
    12     6     7   ar
    13     7     8   ar
    14     8     9   ar
    15     9    13    1
    16    13    14    1
    17    14    15    1
    18    15    16    1
    19    16    19    1
    20    19    20   ar
    21    20    21   ar
    22    21    22   ar
    23    22    23    1
    24    22    24   ar
    25    24    25    1
    26    24    26   ar
    27    16    17    1
    28    17    18    1
    29     9    10   ar
    30    10    11   ar
    31    11    12    1
    32     1    27    1
    33    27    28    2
    34    27    29   am
    35    29    31    1
    36    31    32   ar
    37    32    33   ar
    38    33    34   ar
    39    34    35   ar
    40    35    36   ar
    41    43    44   ar
    42    44    45   ar
    43    45    46   ar
    44    46    47   ar
    45    47    39   ar
    46    46    42   ar
    47    11     6   ar
    48    36    31   ar
    49    18    13    1
    50    26    19   ar
    51    38    48    1
    52    38    49    1
    53     2     5    1
    54    29    30    1
    55    45    50    1
