@<TRIPOS>MOLECULE
*****
 53 60 0 0 0
SMALL
GASTEIGER

@<TRIPOS>ATOM
      1 C          59.8913   85.8929    7.6940 C.ar    1  UNL1        0.0043
      2 C          58.7515   85.0726    7.6723 C.ar    1  UNL1        0.0060
      3 C          58.6820   83.9260    8.4596 C.ar    1  UNL1        0.0691
      4 C          59.7496   83.5738    9.2928 C.ar    1  UNL1        0.2270
      5 C          60.8877   84.3944    9.3359 C.ar    1  UNL1        0.0729
      6 C          60.9672   85.5740    8.5697 C.ar    1  UNL1        0.0773
      7 N          59.6907   82.3515   10.0657 N.am    1  UNL1       -0.0905
      8 C          59.7798   81.1681    9.3697 C.2     1  UNL1        0.4233
      9 O          60.1682   81.1506    8.1684 O.2     1  UNL1       -0.2135
     10 C          59.4009   79.9652    9.9559 C.2     1  UNL1        0.1214
     11 C          58.8429   79.9546   11.2254 C.2     1  UNL1        0.0468
     12 I          58.1729   78.0744   11.9601 I       1  UNL1       -0.0419
     13 C          58.7620   81.1543   11.9538 C.ar    1  UNL1        0.0882
     14 C          58.1285   81.1993   13.2047 C.ar    1  UNL1        0.1051
     15 N          58.0822   82.3521   13.9101 N.ar    1  UNL1       -0.2434
     16 C          58.6992   83.4808   13.4873 C.ar    1  UNL1        0.0870
     17 C          58.6820   84.6083   14.3118 C.ar    1  UNL1        0.0193
     18 C          59.4292   85.7349   13.9790 C.ar    1  UNL1        0.0016
     19 C          60.2448   85.7326   12.8380 C.ar    1  UNL1        0.0018
     20 C          60.2399   84.6049   11.9963 C.ar    1  UNL1        0.0075
     21 C          59.4016   83.4956   12.2570 C.ar    1  UNL1        0.0810
     22 C          59.3098   82.3478   11.4017 C.ar    1  UNL1        0.2301
     23 C          61.1278   86.8919   12.5439 C.ar    1  UNL1        0.0192
     24 C          60.8612   87.7379   11.4520 C.ar    1  UNL1        0.0988
     25 N          61.6698   88.7971   11.1848 N.ar    1  UNL1       -0.2438
     26 C          62.7558   89.0811   11.9496 C.ar    1  UNL1        0.0813
     27 C          63.5665   90.1793   11.6391 C.ar    1  UNL1        0.0191
     28 C          64.6841   90.4688   12.4283 C.ar    1  UNL1        0.0015
     29 C          64.9940   89.6645   13.5295 C.ar    1  UNL1        0.0001
     30 C          64.1879   88.5671   13.8469 C.ar    1  UNL1        0.0015
     31 C          63.0664   88.2673   13.0600 C.ar    1  UNL1        0.0177
     32 C          62.2444   87.1709   13.3509 C.ar    1  UNL1        0.0030
     33 C          59.9731   89.2818    5.0472 C.ar    1  UNL1        0.0534
     34 C          59.1191   89.2707    6.1645 C.ar    1  UNL1        0.0045
     35 C          59.0924   88.1716    7.0274 C.ar    1  UNL1        0.0001
     36 C          59.9148   87.0616    6.7861 C.ar    1  UNL1       -0.0000
     37 C          60.8004   87.0879    5.6988 C.ar    1  UNL1        0.0001
     38 C          60.8249   88.1836    4.8324 C.ar    1  UNL1        0.0045
     39 N          60.5160   90.3371    2.8008 N.am    1  UNL1       -0.3024
     40 C          59.9868   90.4487    4.1329 C.2     1  UNL1        0.2458
     41 O          59.5091   91.5483    4.5262 O.2     1  UNL1       -0.2701
     42 H          60.6222   89.3840    2.3854 H       1  UNL1        0.1497
     43 C          61.3522   93.8472   -0.4779 C.3     1  UNL1        0.0896
     44 N          60.0005   93.5271    0.0117 N.3     1  UNL1       -0.2714
     45 C          59.5927   92.1541   -0.3505 C.3     1  UNL1        0.0738
     46 C          60.3559   91.0753    0.4447 C.3     1  UNL1        0.0369
     47 C          60.6426   91.4917    1.9061 C.3     1  UNL1        0.0746
     48 C          59.6957   92.6055    2.3616 C.3     1  UNL1        0.0369
     49 C          59.8296   93.8444    1.4543 C.3     1  UNL1        0.0738
     50 C          62.2271   86.4163    8.6682 C.3     1  UNL1        0.4188
     51 F          63.1587   85.9554    7.7573 F       1  UNL1       -0.1659
     52 F          61.9676   87.7505    8.4174 F       1  UNL1       -0.1659
     53 F          62.7745   86.3341    9.9374 F       1  UNL1       -0.1659
@<TRIPOS>BOND
     1    43    44    1
     2    44    45    1
     3    45    46    1
     4    46    47    1
     5    47    39    1
     6    39    40   am
     7    40    41    2
     8    40    33    1
     9    33    34   ar
    10    34    35   ar
    11    35    36   ar
    12    36     1    1
    13     1     2   ar
    14     2     3   ar
    15     3     4   ar
    16     4     7    1
    17     7     8    1
    18     8     9    2
    19     8    10    1
    20    10    11    2
    21    11    12    1
    22    11    13    1
    23    13    14   ar
    24    14    15   ar
    25    15    16   ar
    26    16    17   ar
    27    17    18   ar
    28    18    19   ar
    29    19    23    1
    30    23    24   ar
    31    24    25   ar
    32    25    26   ar
    33    26    27   ar
    34    27    28   ar
    35    28    29   ar
    36    29    30   ar
    37    30    31   ar
    38    31    32   ar
    39    19    20   ar
    40    20    21   ar
    41    21    22   ar
    42     4     5   ar
    43     5     6   ar
    44     6    50    1
    45    50    51    1
    46    50    52    1
    47    50    53    1
    48    36    37   ar
    49    37    38   ar
    50    47    48    1
    51    48    49    1
    52    49    44    1
    53    38    33   ar
    54     6     1   ar
    55    22     7    1
    56    22    13   ar
    57    21    16   ar
    58    32    23   ar
    59    31    26   ar
    60    39    42    1
@<TRIPOS>MOLECULE
*****
 53 60 0 0 0
SMALL
GASTEIGER

@<TRIPOS>ATOM
      1 C          61.1021   86.2484    8.6409 C.ar    1  UNL1        0.0043
      2 C          60.9454   86.5949    9.9929 C.ar    1  UNL1        0.0060
      3 C          61.3035   85.7064   11.0037 C.ar    1  UNL1        0.0691
      4 C          61.8324   84.4502   10.6872 C.ar    1  UNL1        0.2270
      5 C          62.0094   84.0985    9.3398 C.ar    1  UNL1        0.0729
      6 C          61.6808   84.9930    8.3021 C.ar    1  UNL1        0.0773
      7 N          62.1504   83.5127   11.7430 N.am    1  UNL1       -0.0905
      8 C          62.2444   82.1858   11.3919 C.2     1  UNL1        0.4233
      9 O          62.3247   81.8403   10.1801 O.2     1  UNL1       -0.2135
     10 C          62.2071   81.1873   12.3593 C.2     1  UNL1        0.1214
     11 C          61.9854   81.5137   13.6887 C.2     1  UNL1        0.0468
     12 I          61.8083   79.8933   15.0549 I       1  UNL1       -0.0419
     13 C          61.9047   82.8664   14.0631 C.ar    1  UNL1        0.0882
     14 C          61.5977   83.2347   15.3815 C.ar    1  UNL1        0.1051
     15 N          61.5515   84.5384   15.7375 N.ar    1  UNL1       -0.2434
     16 C          61.8681   85.5326   14.8744 C.ar    1  UNL1        0.0870
     17 C          61.8828   86.8499   15.3390 C.ar    1  UNL1        0.0193
     18 C          62.3463   87.8785   14.5233 C.ar    1  UNL1        0.0016
     19 C          62.8482   87.5973   13.2442 C.ar    1  UNL1        0.0018
     20 C          62.8081   86.2729   12.7700 C.ar    1  UNL1        0.0075
     21 C          62.2371   85.2325   13.5399 C.ar    1  UNL1        0.0810
     22 C          62.1134   83.8787   13.0826 C.ar    1  UNL1        0.2301
     23 C          63.4463   88.6786   12.4177 C.ar    1  UNL1        0.0192
     24 C          62.9364   88.9699   11.1394 C.ar    1  UNL1        0.0988
     25 N          63.4846   89.9588   10.3854 N.ar    1  UNL1       -0.2438
     26 C          64.5346   90.6988   10.8270 C.ar    1  UNL1        0.0813
     27 C          65.0739   91.7064   10.0185 C.ar    1  UNL1        0.0191
     28 C          66.1552   92.4662   10.4758 C.ar    1  UNL1        0.0015
     29 C          66.6992   92.2236   11.7410 C.ar    1  UNL1        0.0001
     30 C          66.1647   91.2202   12.5549 C.ar    1  UNL1        0.0015
     31 C          65.0820   90.4513   12.1041 C.ar    1  UNL1        0.0177
     32 C          64.5300   89.4358   12.8956 C.ar    1  UNL1        0.0030
     33 C          59.7859   89.0875    5.6905 C.ar    1  UNL1        0.0534
     34 C          58.9899   87.9737    6.0126 C.ar    1  UNL1        0.0045
     35 C          59.4143   87.0511    6.9728 C.ar    1  UNL1        0.0001
     36 C          60.6444   87.2219    7.6242 C.ar    1  UNL1       -0.0000
     37 C          61.4199   88.3551    7.3385 C.ar    1  UNL1        0.0001
     38 C          60.9997   89.2759    6.3755 C.ar    1  UNL1        0.0045
     39 N          59.9770   90.1303    3.3816 N.am    1  UNL1       -0.3024
     40 C          59.3308   90.0552    4.6638 C.2     1  UNL1        0.2458
     41 O          58.3503   90.8084    4.9153 O.2     1  UNL1       -0.2701
     42 H          60.5654   89.3239    3.0725 H       1  UNL1        0.1497
     43 C          58.6330   93.8478    0.5279 C.3     1  UNL1        0.0896
     44 N          59.8482   93.0549    0.2750 N.3     1  UNL1       -0.2714
     45 C          60.8294   93.1831    1.3720 C.3     1  UNL1        0.0738
     46 C          60.3825   92.4619    2.6600 C.3     1  UNL1        0.0369
     47 C          59.6244   91.1432    2.3819 C.3     1  UNL1        0.0746
     48 C          59.9297   90.6130    0.9783 C.3     1  UNL1        0.0369
     49 C          59.5408   91.6481   -0.0956 C.3     1  UNL1        0.0738
     50 C          61.9019   84.5478    6.8670 C.3     1  UNL1        0.4188
     51 F          61.1179   83.4401    6.6051 F       1  UNL1       -0.1659
     52 F          61.5868   85.5503    5.9694 F       1  UNL1       -0.1659
     53 F          63.2277   84.2081    6.6571 F       1  UNL1       -0.1659
@<TRIPOS>BOND
     1    43    44    1
     2    44    45    1
     3    45    46    1
     4    46    47    1
     5    47    39    1
     6    39    40   am
     7    40    41    2
     8    40    33    1
     9    33    34   ar
    10    34    35   ar
    11    35    36   ar
    12    36     1    1
    13     1     2   ar
    14     2     3   ar
    15     3     4   ar
    16     4     7    1
    17     7     8    1
    18     8     9    2
    19     8    10    1
    20    10    11    2
    21    11    12    1
    22    11    13    1
    23    13    14   ar
    24    14    15   ar
    25    15    16   ar
    26    16    17   ar
    27    17    18   ar
    28    18    19   ar
    29    19    23    1
    30    23    24   ar
    31    24    25   ar
    32    25    26   ar
    33    26    27   ar
    34    27    28   ar
    35    28    29   ar
    36    29    30   ar
    37    30    31   ar
    38    31    32   ar
    39    19    20   ar
    40    20    21   ar
    41    21    22   ar
    42     4     5   ar
    43     5     6   ar
    44     6    50    1
    45    50    51    1
    46    50    52    1
    47    50    53    1
    48    36    37   ar
    49    37    38   ar
    50    47    48    1
    51    48    49    1
    52    49    44    1
    53    38    33   ar
    54     6     1   ar
    55    22     7    1
    56    22    13   ar
    57    21    16   ar
    58    32    23   ar
    59    31    26   ar
    60    39    42    1
@<TRIPOS>MOLECULE
*****
 53 60 0 0 0
SMALL
GASTEIGER

@<TRIPOS>ATOM
      1 C          61.4418   85.0377   10.5616 C.ar    1  UNL1        0.0043
      2 C          62.1992   84.3841    9.5759 C.ar    1  UNL1        0.0060
      3 C          61.6658   83.3184    8.8555 C.ar    1  UNL1        0.0691
      4 C          60.3586   82.8828    9.0996 C.ar    1  UNL1        0.2270
      5 C          59.5856   83.5385   10.0707 C.ar    1  UNL1        0.0729
      6 C          60.0954   84.6370   10.7907 C.ar    1  UNL1        0.0773
      7 N          59.8320   81.7399    8.3847 N.am    1  UNL1       -0.0905
      8 C          59.7903   81.8273    7.0123 C.2     1  UNL1        0.4233
      9 O          60.4273   82.7300    6.4009 O.2     1  UNL1       -0.2135
     10 C          59.0092   80.9525    6.2649 C.2     1  UNL1        0.1214
     11 C          58.1899   80.0328    6.9020 C.2     1  UNL1        0.0468
     12 I          56.9372   78.8454    5.6592 I       1  UNL1       -0.0419
     13 C          58.2358   79.9216    8.3027 C.ar    1  UNL1        0.0882
     14 C          57.3630   79.0640    8.9889 C.ar    1  UNL1        0.1051
     15 N          57.4354   78.9427   10.3338 N.ar    1  UNL1       -0.2434
     16 C          58.3859   79.5728   11.0638 C.ar    1  UNL1        0.0870
     17 C          58.4525   79.3298   12.4379 C.ar    1  UNL1        0.0193
     18 C          59.5047   79.8412   13.1926 C.ar    1  UNL1        0.0016
     19 C          60.5345   80.5650   12.5740 C.ar    1  UNL1        0.0018
     20 C          60.4509   80.8295   11.1944 C.ar    1  UNL1        0.0075
     21 C          59.3335   80.4155   10.4320 C.ar    1  UNL1        0.0810
     22 C          59.1662   80.7107    9.0384 C.ar    1  UNL1        0.2301
     23 C          61.7137   81.0140   13.3600 C.ar    1  UNL1        0.0192
     24 C          62.0920   80.3393   14.5350 C.ar    1  UNL1        0.0988
     25 N          63.1703   80.7516   15.2521 N.ar    1  UNL1       -0.2438
     26 C          63.9195   81.8186   14.8711 C.ar    1  UNL1        0.0813
     27 C          65.0208   82.2146   15.6392 C.ar    1  UNL1        0.0191
     28 C          65.7898   83.3138   15.2445 C.ar    1  UNL1        0.0015
     29 C          65.4629   84.0189   14.0819 C.ar    1  UNL1        0.0001
     30 C          64.3655   83.6282   13.3086 C.ar    1  UNL1        0.0015
     31 C          63.5868   82.5287   13.6977 C.ar    1  UNL1        0.0177
     32 C          62.4785   82.1184   12.9455 C.ar    1  UNL1        0.0030
     33 C          63.3452   88.1815   12.7957 C.ar    1  UNL1        0.0534
     34 C          62.9972   88.3757   11.4470 C.ar    1  UNL1        0.0045
     35 C          62.3764   87.3565   10.7196 C.ar    1  UNL1        0.0001
     36 C          62.0974   86.1229   11.3254 C.ar    1  UNL1       -0.0000
     37 C          62.4018   85.9411   12.6825 C.ar    1  UNL1        0.0001
     38 C          63.0267   86.9570   13.4099 C.ar    1  UNL1        0.0045
     39 N          65.3792   89.6217   13.2892 N.am    1  UNL1       -0.3024
     40 C          64.0119   89.2658   13.5556 C.2     1  UNL1        0.2458
     41 O          63.3613   89.8956   14.4343 O.2     1  UNL1       -0.2701
     42 H          65.8045   89.3212   12.3831 H       1  UNL1        0.1497
     43 C          67.8246   92.4917   16.3801 C.3     1  UNL1        0.0896
     44 N          68.0981   92.4724   14.9329 N.3     1  UNL1       -0.2714
     45 C          68.5905   91.1548   14.4815 C.3     1  UNL1        0.0738
     46 C          67.4931   90.0711   14.4936 C.3     1  UNL1        0.0369
     47 C          66.1031   90.6145   14.0892 C.3     1  UNL1        0.0746
     48 C          66.2260   91.9226   13.3028 C.3     1  UNL1        0.0369
     49 C          66.9586   92.9949   14.1332 C.3     1  UNL1        0.0738
     50 C          59.2022   85.3013   11.8239 C.3     1  UNL1        0.4188
     51 F          59.5991   84.9135   13.0897 F       1  UNL1       -0.1659
     52 F          59.2569   86.6793   11.7326 F       1  UNL1       -0.1659
     53 F          57.8811   84.9282   11.6433 F       1  UNL1       -0.1659
@<TRIPOS>BOND
     1    43    44    1
     2    44    45    1
     3    45    46    1
     4    46    47    1
     5    47    39    1
     6    39    40   am
     7    40    41    2
     8    40    33    1
     9    33    34   ar
    10    34    35   ar
    11    35    36   ar
    12    36     1    1
    13     1     2   ar
    14     2     3   ar
    15     3     4   ar
    16     4     7    1
    17     7     8    1
    18     8     9    2
    19     8    10    1
    20    10    11    2
    21    11    12    1
    22    11    13    1
    23    13    14   ar
    24    14    15   ar
    25    15    16   ar
    26    16    17   ar
    27    17    18   ar
    28    18    19   ar
    29    19    23    1
    30    23    24   ar
    31    24    25   ar
    32    25    26   ar
    33    26    27   ar
    34    27    28   ar
    35    28    29   ar
    36    29    30   ar
    37    30    31   ar
    38    31    32   ar
    39    19    20   ar
    40    20    21   ar
    41    21    22   ar
    42     4     5   ar
    43     5     6   ar
    44     6    50    1
    45    50    51    1
    46    50    52    1
    47    50    53    1
    48    36    37   ar
    49    37    38   ar
    50    47    48    1
    51    48    49    1
    52    49    44    1
    53    38    33   ar
    54     6     1   ar
    55    22     7    1
    56    22    13   ar
    57    21    16   ar
    58    32    23   ar
    59    31    26   ar
    60    39    42    1
