@<TRIPOS>MOLECULE
*****
 50 55 0 0 0
SMALL
GASTEIGER

@<TRIPOS>ATOM
      1 O          58.8014   92.0542    5.0850 O.2     1  UNL1       -0.2701
      2 C          59.0458   90.9193    4.5910 C.2     1  UNL1        0.2483
      3 N          59.1760   90.7742    3.1679 N.am    1  UNL1       -0.2945
      4 H          59.1813   89.8126    2.7590 H       1  UNL1        0.1501
      5 C          59.1619   89.7483    5.4882 C.ar    1  UNL1        0.0808
      6 C          60.4334   89.3068    5.8905 C.ar    1  UNL1        0.0080
      7 C          60.5672   88.2067    6.7412 C.ar    1  UNL1        0.0148
      8 C          59.4320   87.5180    7.1968 C.ar    1  UNL1        0.0502
      9 C          58.1620   87.9459    6.7818 C.ar    1  UNL1        0.0443
     10 C          58.0234   89.0479    5.9321 C.ar    1  UNL1        0.1457
     11 F          56.7806   89.3939    5.5112 F       1  UNL1       -0.2040
     12 N          59.5630   86.3834    8.0752 N.pl3   1  UNL1       -0.3034
     13 C          58.5651   85.3097    8.0560 C.3     1  UNL1        0.1123
     14 C          59.2408   83.9542    8.2690 C.3     1  UNL1        0.1142
     15 N          60.1785   84.0094    9.4016 N.pl3   1  UNL1       -0.2829
     16 C          61.1492   85.1134    9.4648 C.3     1  UNL1        0.1469
     17 I          62.7037   84.8030    8.0181 I       1  UNL1       -0.0512
     18 C          60.4536   86.4580    9.2377 C.3     1  UNL1        0.1216
     19 C          60.3580   82.8671   10.2644 C.ar    1  UNL1        0.1323
     20 C          61.4454   81.9930   10.1024 C.ar    1  UNL1        0.0343
     21 C          61.5876   80.9024   10.9615 C.ar    1  UNL1        0.0083
     22 C          60.6641   80.6923   11.9962 C.ar    1  UNL1        0.0906
     23 C          59.5818   81.5781   12.1134 C.ar    1  UNL1        0.1041
     24 N          59.4627   82.6319   11.2633 N.ar    1  UNL1       -0.2292
     25 C          60.7786   79.4910   12.8996 C.3     1  UNL1        0.4200
     26 F          61.1285   78.3656   12.1737 F       1  UNL1       -0.1658
     27 F          61.7485   79.7308   13.8548 F       1  UNL1       -0.1658
     28 F          59.5736   79.2402   13.5332 F       1  UNL1       -0.1658
     29 C          59.2592   91.9361    2.2752 C.3     1  UNL1        0.1535
     30 C          60.6183   92.5704    2.3901 C.2     1  UNL1        0.2443
     31 O          60.7127   93.8237    2.5005 O.2     1  UNL1       -0.2730
     32 N          61.7901   91.7433    2.4605 N.am    1  UNL1       -0.2825
     33 H          61.6604   90.7348    2.7030 H       1  UNL1        0.1549
     34 C          63.1325   92.2365    2.3136 C.ar    1  UNL1        0.0535
     35 C          63.5288   93.3780    3.0239 C.ar    1  UNL1        0.0353
     36 C          64.8387   93.8479    2.9026 C.ar    1  UNL1        0.1002
     37 N          65.7284   93.1911    2.1125 N.ar    1  UNL1       -0.2422
     38 C          65.3796   92.0706    1.4269 C.ar    1  UNL1        0.1002
     39 C          64.0793   91.5675    1.5191 C.ar    1  UNL1        0.0353
     40 C          58.9966   91.5333    0.8132 C.3     1  UNL1        0.0569
     41 C          59.9410   92.2323   -0.1215 C.ar    1  UNL1       -0.0017
     42 C          59.8210   93.5305   -0.6089 C.ar    1  UNL1        0.0681
     43 N          60.8906   93.8479   -1.3739 N.ar    1  UNL1       -0.3523
     44 C          61.6879   92.7654   -1.3657 C.ar    1  UNL1        0.0563
     45 C          62.9197   92.6180   -2.0019 C.ar    1  UNL1        0.0170
     46 C          63.5983   91.3954   -1.8454 C.ar    1  UNL1        0.0015
     47 C          63.0382   90.3605   -1.0637 C.ar    1  UNL1        0.0001
     48 C          61.7938   90.5381   -0.4320 C.ar    1  UNL1        0.0012
     49 C          61.1437   91.7598   -0.6087 C.ar    1  UNL1        0.0131
     50 H          61.0638   94.7557   -1.8600 H       1  UNL1        0.1660
@<TRIPOS>BOND
     1     1     2    2
     2     2     3   am
     3     3    29    1
     4    29    40    1
     5    40    41    1
     6    41    42   ar
     7    42    43   ar
     8    43    44   ar
     9    44    45   ar
    10    45    46   ar
    11    46    47   ar
    12    47    48   ar
    13    48    49   ar
    14    29    30    1
    15    30    31    2
    16    30    32   am
    17    32    34    1
    18    34    35   ar
    19    35    36   ar
    20    36    37   ar
    21    37    38   ar
    22    38    39   ar
    23     2     5    1
    24     5     6   ar
    25     6     7   ar
    26     7     8   ar
    27     8    12    1
    28    12    13    1
    29    13    14    1
    30    14    15    1
    31    15    19    1
    32    19    20   ar
    33    20    21   ar
    34    21    22   ar
    35    22    25    1
    36    25    26    1
    37    25    27    1
    38    25    28    1
    39    22    23   ar
    40    23    24   ar
    41    15    16    1
    42    16    17    1
    43    16    18    1
    44     8     9   ar
    45     9    10   ar
    46    10    11    1
    47    49    41   ar
    48    39    34   ar
    49    10     5   ar
    50    49    44   ar
    51    18    12    1
    52    24    19   ar
    53     3     4    1
    54    43    50    1
    55    32    33    1
@<TRIPOS>MOLECULE
*****
 50 55 0 0 0
SMALL
GASTEIGER

@<TRIPOS>ATOM
      1 O          57.7308   84.2773   12.1129 O.2     1  UNL1       -0.2701
      2 C          58.7927   83.8289   12.6258 C.2     1  UNL1        0.2483
      3 N          58.9555   82.4130   12.8046 N.am    1  UNL1       -0.2945
      4 H          59.7409   82.0689   13.4018 H       1  UNL1        0.1501
      5 C          59.8412   84.7762   13.0651 C.ar    1  UNL1        0.0808
      6 C          61.1775   84.5517   12.6943 C.ar    1  UNL1        0.0080
      7 C          62.1835   85.4353   13.0932 C.ar    1  UNL1        0.0148
      8 C          61.8749   86.5548   13.8819 C.ar    1  UNL1        0.0502
      9 C          60.5438   86.7711   14.2687 C.ar    1  UNL1        0.0443
     10 C          59.5334   85.8904   13.8698 C.ar    1  UNL1        0.1457
     11 F          58.2688   86.1065   14.3120 F       1  UNL1       -0.2040
     12 N          62.9075   87.4705   14.2956 N.pl3   1  UNL1       -0.3034
     13 C          64.0772   86.9867   15.0350 C.3     1  UNL1        0.1123
     14 C          65.3304   87.7492   14.6026 C.3     1  UNL1        0.1142
     15 N          65.0777   89.1986   14.5759 N.pl3   1  UNL1       -0.2829
     16 C          63.8769   89.6959   13.8860 C.3     1  UNL1        0.1469
     17 I          64.1496   89.5678   11.7611 I       1  UNL1       -0.0512
     18 C          62.6378   88.9116   14.3250 C.3     1  UNL1        0.1216
     19 C          66.1141   90.1330   14.9418 C.ar    1  UNL1        0.1323
     20 C          65.8539   91.2130   15.8013 C.ar    1  UNL1        0.0343
     21 C          66.8850   92.0917   16.1365 C.ar    1  UNL1        0.0083
     22 C          68.1798   91.8855   15.6378 C.ar    1  UNL1        0.0906
     23 C          68.3946   90.8053   14.7680 C.ar    1  UNL1        0.1041
     24 N          67.3743   89.9642   14.4537 N.ar    1  UNL1       -0.2292
     25 C          69.2905   92.8549   15.9524 C.3     1  UNL1        0.4200
     26 F          68.8447   93.8476   16.8078 F       1  UNL1       -0.1658
     27 F          70.3314   92.1741   16.5556 F       1  UNL1       -0.1658
     28 F          69.7553   93.4566   14.7956 F       1  UNL1       -0.1658
     29 C          58.0278   81.4451   12.2078 C.3     1  UNL1        0.1535
     30 C          58.1498   81.4801   10.7090 C.2     1  UNL1        0.2443
     31 O          57.3534   80.8015   10.0039 O.2     1  UNL1       -0.2730
     32 N          59.1111   82.3487   10.0896 N.am    1  UNL1       -0.2825
     33 H          59.5081   83.1253   10.6659 H       1  UNL1        0.1549
     34 C          59.4862   82.2747    8.7037 C.ar    1  UNL1        0.0535
     35 C          59.2999   81.0756    8.0024 C.ar    1  UNL1        0.0353
     36 C          59.6412   81.0052    6.6497 C.ar    1  UNL1        0.1002
     37 N          60.1359   82.0996    6.0134 N.ar    1  UNL1       -0.2422
     38 C          60.3095   83.2818    6.6613 C.ar    1  UNL1        0.1002
     39 C          59.9820   83.3950    8.0149 C.ar    1  UNL1        0.0353
     40 C          58.3075   80.0203   12.7179 C.3     1  UNL1        0.0569
     41 C          59.2790   79.3039   11.8252 C.ar    1  UNL1       -0.0017
     42 C          59.0774   78.0852   11.1838 C.ar    1  UNL1        0.0681
     43 N          60.1428   77.7780   10.4088 N.ar    1  UNL1       -0.3523
     44 C          61.0100   78.7958   10.5486 C.ar    1  UNL1        0.0563
     45 C          62.2512   78.9399    9.9301 C.ar    1  UNL1        0.0170
     46 C          62.9935   80.1023   10.2085 C.ar    1  UNL1        0.0015
     47 C          62.4835   81.0843   11.0867 C.ar    1  UNL1        0.0001
     48 C          61.2269   80.9128   11.6955 C.ar    1  UNL1        0.0012
     49 C          60.5163   79.7485   11.4026 C.ar    1  UNL1        0.0131
     50 H          60.2584   76.9274    9.8142 H       1  UNL1        0.1660
@<TRIPOS>BOND
     1     1     2    2
     2     2     3   am
     3     3    29    1
     4    29    40    1
     5    40    41    1
     6    41    42   ar
     7    42    43   ar
     8    43    44   ar
     9    44    45   ar
    10    45    46   ar
    11    46    47   ar
    12    47    48   ar
    13    48    49   ar
    14    29    30    1
    15    30    31    2
    16    30    32   am
    17    32    34    1
    18    34    35   ar
    19    35    36   ar
    20    36    37   ar
    21    37    38   ar
    22    38    39   ar
    23     2     5    1
    24     5     6   ar
    25     6     7   ar
    26     7     8   ar
    27     8    12    1
    28    12    13    1
    29    13    14    1
    30    14    15    1
    31    15    19    1
    32    19    20   ar
    33    20    21   ar
    34    21    22   ar
    35    22    25    1
    36    25    26    1
    37    25    27    1
    38    25    28    1
    39    22    23   ar
    40    23    24   ar
    41    15    16    1
    42    16    17    1
    43    16    18    1
    44     8     9   ar
    45     9    10   ar
    46    10    11    1
    47    49    41   ar
    48    39    34   ar
    49    10     5   ar
    50    49    44   ar
    51    18    12    1
    52    24    19   ar
    53     3     4    1
    54    43    50    1
    55    32    33    1
