@<TRIPOS>MOLECULE
*****
 49 54 0 0 0
SMALL
GASTEIGER

@<TRIPOS>ATOM
      1 O         -61.1895  -42.3761  -19.9691 O.2     1  UNL1       -0.2699
      2 C         -61.9069  -41.7454  -20.7930 C.2     1  UNL1        0.2513
      3 N         -62.8402  -40.7641  -20.3136 N.am    1  UNL1       -0.2944
      4 H         -63.2396  -40.0898  -21.0041 H       1  UNL1        0.1501
      5 C         -61.7693  -42.0246  -22.2461 C.ar    1  UNL1        0.1144
      6 C         -60.5979  -42.6302  -22.7488 C.ar    1  UNL1        0.1414
      7 O         -59.5364  -42.9309  -21.8942 O.3     1  UNL1       -0.5052
      8 C         -60.4858  -42.9207  -24.1156 C.ar    1  UNL1        0.0514
      9 C         -61.5274  -42.6142  -25.0057 C.ar    1  UNL1        0.0532
     10 C         -62.6917  -42.0137  -24.5018 C.ar    1  UNL1        0.0445
     11 C         -62.8153  -41.7208  -23.1419 C.ar    1  UNL1        0.1486
     12 F         -63.9818  -41.1833  -22.7057 F       1  UNL1       -0.2039
     13 H         -58.6843  -43.3618  -22.2334 H       1  UNL1        0.2922
     14 N         -61.4073  -42.9230  -26.4126 N.pl3   1  UNL1       -0.3039
     15 C         -60.5085  -44.0034  -26.8484 C.3     1  UNL1        0.1122
     16 C         -60.8867  -44.5245  -28.2384 C.3     1  UNL1        0.1122
     17 N         -61.0143  -43.4157  -29.1953 N.pl3   1  UNL1       -0.3040
     18 C         -61.5259  -42.1119  -28.7442 C.3     1  UNL1        0.1122
     19 C         -62.2467  -42.2252  -27.3974 C.3     1  UNL1        0.1122
     20 C         -60.7209  -43.6251  -30.5950 C.ar    1  UNL1        0.0488
     21 C         -59.4927  -44.1837  -30.9921 C.ar    1  UNL1        0.0154
     22 C         -59.2083  -44.3839  -32.3451 C.ar    1  UNL1        0.0135
     23 C         -60.1414  -44.0285  -33.3234 C.ar    1  UNL1        0.0683
     24 CL        -59.7460  -44.2961  -35.0158 Cl      1  UNL1       -0.0814
     25 C         -61.3703  -43.4665  -32.9419 C.ar    1  UNL1        0.0694
     26 CL        -62.5690  -42.9987  -34.1406 Cl      1  UNL1       -0.0813
     27 C         -61.6545  -43.2669  -31.5858 C.ar    1  UNL1        0.0268
     28 C         -63.1526  -40.6123  -18.8841 C.3     1  UNL1        0.1535
     29 C         -63.3431  -39.1600  -18.5108 C.2     1  UNL1        0.2443
     30 O         -62.9392  -38.7364  -17.3930 O.2     1  UNL1       -0.2730
     31 N         -63.8910  -38.2466  -19.4748 N.am    1  UNL1       -0.2825
     32 H         -63.9266  -38.5560  -20.4726 H       1  UNL1        0.1549
     33 C         -64.2788  -36.8951  -19.1741 C.ar    1  UNL1        0.0535
     34 C         -63.4353  -36.0296  -18.4567 C.ar    1  UNL1        0.0353
     35 C         -63.8651  -34.7321  -18.1674 C.ar    1  UNL1        0.1002
     36 N         -65.0964  -34.3160  -18.5652 N.ar    1  UNL1       -0.2422
     37 C         -65.9402  -35.1373  -19.2440 C.ar    1  UNL1        0.1002
     38 C         -65.5501  -36.4426  -19.5527 C.ar    1  UNL1        0.0353
     39 C         -64.3828  -41.4538  -18.4786 C.3     1  UNL1        0.0569
     40 C         -65.1719  -41.9552  -19.6577 C.ar    1  UNL1       -0.0017
     41 C         -65.3642  -43.2850  -20.0222 C.ar    1  UNL1        0.0681
     42 N         -66.1748  -43.3676  -21.1013 N.ar    1  UNL1       -0.3523
     43 C         -66.4939  -42.1026  -21.4244 C.ar    1  UNL1        0.0563
     44 C         -67.3217  -41.6807  -22.4640 C.ar    1  UNL1        0.0170
     45 C         -67.5288  -40.2984  -22.6207 C.ar    1  UNL1        0.0015
     46 C         -66.9057  -39.3785  -21.7492 C.ar    1  UNL1        0.0001
     47 C         -66.0727  -39.8324  -20.7110 C.ar    1  UNL1        0.0012
     48 C         -65.8960  -41.2104  -20.5709 C.ar    1  UNL1        0.0131
     49 H         -66.4912  -44.2401  -21.5797 H       1  UNL1        0.1660
@<TRIPOS>BOND
     1     1     2    2
     2     2     3   am
     3     3    28    1
     4    28    39    1
     5    39    40    1
     6    40    41   ar
     7    41    42   ar
     8    42    43   ar
     9    43    44   ar
    10    44    45   ar
    11    45    46   ar
    12    46    47   ar
    13    47    48   ar
    14    28    29    1
    15    29    30    2
    16    29    31   am
    17    31    33    1
    18    33    34   ar
    19    34    35   ar
    20    35    36   ar
    21    36    37   ar
    22    37    38   ar
    23     2     5    1
    24     5     6   ar
    25     6     7    1
    26     6     8   ar
    27     8     9   ar
    28     9    14    1
    29    14    15    1
    30    15    16    1
    31    16    17    1
    32    17    20    1
    33    20    21   ar
    34    21    22   ar
    35    22    23   ar
    36    23    24    1
    37    23    25   ar
    38    25    26    1
    39    25    27   ar
    40    17    18    1
    41    18    19    1
    42     9    10   ar
    43    10    11   ar
    44    11    12    1
    45    48    40   ar
    46    38    33   ar
    47    11     5   ar
    48    48    43   ar
    49    19    14    1
    50    27    20   ar
    51     3     4    1
    52    42    49    1
    53    31    32    1
    54     7    13    1
@<TRIPOS>MOLECULE
*****
 49 54 0 0 0
SMALL
GASTEIGER

@<TRIPOS>ATOM
      1 O         -60.4293  -46.5488  -23.4562 O.2     1  UNL1       -0.2699
      2 C         -61.3365  -45.8248  -23.9503 C.2     1  UNL1        0.2513
      3 N         -61.9514  -46.2078  -25.1910 N.am    1  UNL1       -0.2944
      4 H         -62.8495  -45.7450  -25.4558 H       1  UNL1        0.1501
      5 C         -61.7577  -44.5913  -23.2366 C.ar    1  UNL1        0.1144
      6 C         -61.8729  -44.5846  -21.8300 C.ar    1  UNL1        0.1414
      7 O         -61.6383  -45.7488  -21.0972 O.3     1  UNL1       -0.5052
      8 C         -62.2396  -43.4098  -21.1588 C.ar    1  UNL1        0.0514
      9 C         -62.5009  -42.2262  -21.8672 C.ar    1  UNL1        0.0532
     10 C         -62.3834  -42.2361  -23.2659 C.ar    1  UNL1        0.0445
     11 C         -62.0175  -43.4001  -23.9454 C.ar    1  UNL1        0.1486
     12 F         -61.8748  -43.3374  -25.2928 F       1  UNL1       -0.2039
     13 H         -61.7192  -45.7686  -20.0873 H       1  UNL1        0.2922
     14 N         -62.8718  -41.0170  -21.1676 N.pl3   1  UNL1       -0.3039
     15 C         -64.2002  -40.9134  -20.5435 C.3     1  UNL1        0.1122
     16 C         -64.2265  -39.8418  -19.4492 C.3     1  UNL1        0.1122
     17 N         -63.6889  -38.5688  -19.9512 N.pl3   1  UNL1       -0.3040
     18 C         -62.5990  -38.5712  -20.9397 C.3     1  UNL1        0.1122
     19 C         -61.8957  -39.9307  -20.9994 C.3     1  UNL1        0.1122
     20 C         -64.1668  -37.3148  -19.4144 C.ar    1  UNL1        0.0488
     21 C         -63.3389  -36.5258  -18.5957 C.ar    1  UNL1        0.0154
     22 C         -63.8019  -35.3149  -18.0751 C.ar    1  UNL1        0.0135
     23 C         -65.0970  -34.8725  -18.3597 C.ar    1  UNL1        0.0683
     24 CL        -65.6426  -33.3429  -17.6853 Cl      1  UNL1       -0.0814
     25 C         -65.9358  -35.6515  -19.1726 C.ar    1  UNL1        0.0694
     26 CL        -67.5743  -35.1354  -19.5493 Cl      1  UNL1       -0.0813
     27 C         -65.4708  -36.8644  -19.6943 C.ar    1  UNL1        0.0268
     28 C         -61.4205  -47.2971  -26.0252 C.3     1  UNL1        0.1535
     29 C         -61.7457  -48.6517  -25.4385 C.2     1  UNL1        0.2443
     30 O         -62.7801  -49.2704  -25.8116 O.2     1  UNL1       -0.2730
     31 N         -60.8184  -49.2733  -24.5342 N.am    1  UNL1       -0.2825
     32 H         -59.8495  -48.8838  -24.4872 H       1  UNL1        0.1549
     33 C         -61.1020  -50.4668  -23.7842 C.ar    1  UNL1        0.0535
     34 C         -62.4095  -50.7911  -23.3836 C.ar    1  UNL1        0.0353
     35 C         -62.6333  -51.9496  -22.6353 C.ar    1  UNL1        0.1002
     36 N         -61.5908  -52.7487  -22.2859 N.ar    1  UNL1       -0.2422
     37 C         -60.3140  -52.4500  -22.6436 C.ar    1  UNL1        0.1002
     38 C         -60.0463  -51.3005  -23.3909 C.ar    1  UNL1        0.0353
     39 C         -61.9194  -47.1913  -27.4832 C.3     1  UNL1        0.0569
     40 C         -61.0130  -46.3714  -28.3611 C.ar    1  UNL1       -0.0017
     41 C         -59.6210  -46.3862  -28.3596 C.ar    1  UNL1        0.0681
     42 N         -59.1378  -45.5659  -29.3197 N.ar    1  UNL1       -0.3523
     43 C         -60.2111  -45.0302  -29.9259 C.ar    1  UNL1        0.0563
     44 C         -60.2168  -44.1310  -30.9914 C.ar    1  UNL1        0.0170
     45 C         -61.4626  -43.6997  -31.4818 C.ar    1  UNL1        0.0015
     46 C         -62.6612  -44.1661  -30.8989 C.ar    1  UNL1        0.0001
     47 C         -62.6252  -45.0705  -29.8224 C.ar    1  UNL1        0.0012
     48 C         -61.3750  -45.4917  -29.3651 C.ar    1  UNL1        0.0131
     49 H         -58.1332  -45.3916  -29.5452 H       1  UNL1        0.1660
@<TRIPOS>BOND
     1     1     2    2
     2     2     3   am
     3     3    28    1
     4    28    39    1
     5    39    40    1
     6    40    41   ar
     7    41    42   ar
     8    42    43   ar
     9    43    44   ar
    10    44    45   ar
    11    45    46   ar
    12    46    47   ar
    13    47    48   ar
    14    28    29    1
    15    29    30    2
    16    29    31   am
    17    31    33    1
    18    33    34   ar
    19    34    35   ar
    20    35    36   ar
    21    36    37   ar
    22    37    38   ar
    23     2     5    1
    24     5     6   ar
    25     6     7    1
    26     6     8   ar
    27     8     9   ar
    28     9    14    1
    29    14    15    1
    30    15    16    1
    31    16    17    1
    32    17    20    1
    33    20    21   ar
    34    21    22   ar
    35    22    23   ar
    36    23    24    1
    37    23    25   ar
    38    25    26    1
    39    25    27   ar
    40    17    18    1
    41    18    19    1
    42     9    10   ar
    43    10    11   ar
    44    11    12    1
    45    48    40   ar
    46    38    33   ar
    47    11     5   ar
    48    48    43   ar
    49    19    14    1
    50    27    20   ar
    51     3     4    1
    52    42    49    1
    53    31    32    1
    54     7    13    1
@<TRIPOS>MOLECULE
*****
 49 54 0 0 0
SMALL
GASTEIGER

@<TRIPOS>ATOM
      1 O         -60.3961  -46.5571  -23.4526 O.2     1  UNL1       -0.2699
      2 C         -61.2659  -45.7875  -23.9449 C.2     1  UNL1        0.2513
      3 N         -61.8903  -46.1303  -25.1926 N.am    1  UNL1       -0.2944
      4 H         -62.7645  -45.6240  -25.4580 H       1  UNL1        0.1501
      5 C         -61.6338  -44.5423  -23.2221 C.ar    1  UNL1        0.1144
      6 C         -61.7630  -43.3230  -23.9207 C.ar    1  UNL1        0.1414
      7 O         -61.5009  -43.2631  -25.2901 O.3     1  UNL1       -0.5052
      8 C         -62.1414  -42.1575  -23.2398 C.ar    1  UNL1        0.0514
      9 C         -62.3942  -42.1790  -21.8591 C.ar    1  UNL1        0.0532
     10 C         -62.2667  -43.3940  -21.1678 C.ar    1  UNL1        0.0445
     11 C         -61.8916  -44.5618  -21.8356 C.ar    1  UNL1        0.1486
     12 F         -61.8299  -45.7150  -21.1243 F       1  UNL1       -0.2039
     13 H         -61.5830  -42.3981  -25.8114 H       1  UNL1        0.2922
     14 N         -62.7907  -40.9747  -21.1651 N.pl3   1  UNL1       -0.3039
     15 C         -64.1264  -40.8910  -20.5536 C.3     1  UNL1        0.1122
     16 C         -64.1798  -39.8182  -19.4615 C.3     1  UNL1        0.1122
     17 N         -63.6576  -38.5378  -19.9606 N.pl3   1  UNL1       -0.3040
     18 C         -62.5587  -38.5245  -20.9390 C.3     1  UNL1        0.1122
     19 C         -61.8335  -39.8728  -20.9897 C.3     1  UNL1        0.1122
     20 C         -64.1603  -37.2906  -19.4305 C.ar    1  UNL1        0.0488
     21 C         -63.3496  -36.4830  -18.6127 C.ar    1  UNL1        0.0154
     22 C         -63.8364  -35.2787  -18.0986 C.ar    1  UNL1        0.0135
     23 C         -65.1387  -34.8616  -18.3888 C.ar    1  UNL1        0.0683
     24 CL        -65.7145  -33.3395  -17.7225 Cl      1  UNL1       -0.0814
     25 C         -65.9605  -35.6593  -19.2009 C.ar    1  UNL1        0.0694
     26 CL        -67.6071  -35.1752  -19.5845 Cl      1  UNL1       -0.0813
     27 C         -65.4715  -36.8656  -19.7161 C.ar    1  UNL1        0.0268
     28 C         -61.4054  -47.2354  -26.0339 C.3     1  UNL1        0.1535
     29 C         -61.7553  -48.5794  -25.4372 C.2     1  UNL1        0.2443
     30 O         -62.8276  -49.1573  -25.7661 O.2     1  UNL1       -0.2730
     31 N         -60.8134  -49.2393  -24.5762 N.am    1  UNL1       -0.2825
     32 H         -59.8294  -48.8865  -24.5707 H       1  UNL1        0.1549
     33 C         -61.1085  -50.4245  -23.8177 C.ar    1  UNL1        0.0535
     34 C         -62.4207  -50.7389  -23.4244 C.ar    1  UNL1        0.0353
     35 C         -62.6558  -51.8895  -22.6675 C.ar    1  UNL1        0.1002
     36 N         -61.6200  -52.6904  -22.3027 N.ar    1  UNL1       -0.2422
     37 C         -60.3390  -52.4010  -22.6531 C.ar    1  UNL1        0.1002
     38 C         -60.0599  -51.2597  -23.4087 C.ar    1  UNL1        0.0353
     39 C         -61.9298  -47.1195  -27.4822 C.3     1  UNL1        0.0569
     40 C         -61.0147  -46.3340  -28.3822 C.ar    1  UNL1       -0.0017
     41 C         -59.6234  -46.3800  -28.3946 C.ar    1  UNL1        0.0681
     42 N         -59.1322  -45.5858  -29.3725 N.ar    1  UNL1       -0.3523
     43 C         -60.1996  -45.0357  -29.9762 C.ar    1  UNL1        0.0563
     44 C         -60.1966  -44.1534  -31.0557 C.ar    1  UNL1        0.0170
     45 C         -61.4375  -43.7020  -31.5402 C.ar    1  UNL1        0.0015
     46 C         -62.6399  -44.1322  -30.9377 C.ar    1  UNL1        0.0001
     47 C         -62.6128  -45.0202  -29.8475 C.ar    1  UNL1        0.0012
     48 C         -61.3675  -45.4622  -29.3963 C.ar    1  UNL1        0.0131
     49 H         -58.1264  -45.4377  -29.6110 H       1  UNL1        0.1660
@<TRIPOS>BOND
     1     1     2    2
     2     2     3   am
     3     3    28    1
     4    28    39    1
     5    39    40    1
     6    40    41   ar
     7    41    42   ar
     8    42    43   ar
     9    43    44   ar
    10    44    45   ar
    11    45    46   ar
    12    46    47   ar
    13    47    48   ar
    14    28    29    1
    15    29    30    2
    16    29    31   am
    17    31    33    1
    18    33    34   ar
    19    34    35   ar
    20    35    36   ar
    21    36    37   ar
    22    37    38   ar
    23     2     5    1
    24     5     6   ar
    25     6     7    1
    26     6     8   ar
    27     8     9   ar
    28     9    14    1
    29    14    15    1
    30    15    16    1
    31    16    17    1
    32    17    20    1
    33    20    21   ar
    34    21    22   ar
    35    22    23   ar
    36    23    24    1
    37    23    25   ar
    38    25    26    1
    39    25    27   ar
    40    17    18    1
    41    18    19    1
    42     9    10   ar
    43    10    11   ar
    44    11    12    1
    45    48    40   ar
    46    38    33   ar
    47    11     5   ar
    48    48    43   ar
    49    19    14    1
    50    27    20   ar
    51     3     4    1
    52    42    49    1
    53    31    32    1
    54     7    13    1
@<TRIPOS>MOLECULE
*****
 49 54 0 0 0
SMALL
GASTEIGER

@<TRIPOS>ATOM
      1 O         -61.6260  -41.9108  -19.7353 O.2     1  UNL1       -0.2699
      2 C         -62.2404  -41.2250  -20.5976 C.2     1  UNL1        0.2513
      3 N         -63.0102  -40.0862  -20.1797 N.am    1  UNL1       -0.2944
      4 H         -63.3032  -39.3987  -20.9094 H       1  UNL1        0.1501
      5 C         -62.1519  -41.6039  -22.0318 C.ar    1  UNL1        0.1144
      6 C         -63.2174  -41.3194  -22.9124 C.ar    1  UNL1        0.1414
      7 O         -64.3853  -40.7216  -22.4369 O.3     1  UNL1       -0.5052
      8 C         -63.1161  -41.6500  -24.2709 C.ar    1  UNL1        0.0514
      9 C         -61.9627  -42.2691  -24.7783 C.ar    1  UNL1        0.0532
     10 C         -60.9042  -42.5487  -23.8999 C.ar    1  UNL1        0.0445
     11 C         -60.9931  -42.2228  -22.5448 C.ar    1  UNL1        0.1486
     12 F         -59.9206  -42.4747  -21.7535 F       1  UNL1       -0.2039
     13 H         -65.1646  -40.5120  -23.0497 H       1  UNL1        0.2922
     14 N         -61.8628  -42.6007  -26.1816 N.pl3   1  UNL1       -0.3039
     15 C         -60.5890  -42.3996  -26.8899 C.3     1  UNL1        0.1122
     16 C         -60.5081  -43.2554  -28.1578 C.3     1  UNL1        0.1122
     17 N         -61.7044  -43.0685  -28.9917 N.pl3   1  UNL1       -0.3040
     18 C         -63.0108  -42.8299  -28.3582 C.3     1  UNL1        0.1122
     19 C         -62.9988  -43.2222  -26.8776 C.3     1  UNL1        0.1122
     20 C         -61.6185  -43.2035  -30.4282 C.ar    1  UNL1        0.0488
     21 C         -62.6788  -42.7818  -31.2505 C.ar    1  UNL1        0.0154
     22 C         -62.5966  -42.9144  -32.6387 C.ar    1  UNL1        0.0135
     23 C         -61.4584  -43.4713  -33.2292 C.ar    1  UNL1        0.0683
     24 CL        -61.3932  -43.6212  -34.9800 Cl      1  UNL1       -0.0814
     25 C         -60.3936  -43.8999  -32.4205 C.ar    1  UNL1        0.0694
     26 CL        -58.9469  -44.6125  -33.1220 Cl      1  UNL1       -0.0813
     27 C         -60.4768  -43.7660  -31.0295 C.ar    1  UNL1        0.0268
     28 C         -63.2911  -39.8075  -18.7628 C.3     1  UNL1        0.1535
     29 C         -63.6967  -38.3666  -18.5525 C.2     1  UNL1        0.2443
     30 O         -63.1069  -37.6638  -17.6863 O.2     1  UNL1       -0.2730
     31 N         -64.6832  -37.7753  -19.4133 N.am    1  UNL1       -0.2825
     32 H         -64.9221  -38.2791  -20.2975 H       1  UNL1        0.1549
     33 C         -65.2702  -36.4809  -19.1958 C.ar    1  UNL1        0.0535
     34 C         -64.6538  -35.5220  -18.3737 C.ar    1  UNL1        0.0353
     35 C         -65.2739  -34.2862  -18.1727 C.ar    1  UNL1        0.1002
     36 N         -66.4717  -34.0201  -18.7575 N.ar    1  UNL1       -0.2422
     37 C         -67.0993  -34.9352  -19.5423 C.ar    1  UNL1        0.1002
     38 C         -66.5145  -36.1836  -19.7681 C.ar    1  UNL1        0.0353
     39 C         -64.3562  -40.7708  -18.1943 C.3     1  UNL1        0.0569
     40 C         -65.1958  -41.4212  -19.2605 C.ar    1  UNL1       -0.0017
     41 C         -66.0749  -40.7809  -20.1295 C.ar    1  UNL1        0.0681
     42 N         -66.6162  -41.6684  -20.9941 N.ar    1  UNL1       -0.3523
     43 C         -66.0901  -42.8641  -20.6777 C.ar    1  UNL1        0.0563
     44 C         -66.3372  -44.0861  -21.3018 C.ar    1  UNL1        0.0170
     45 C         -65.6692  -45.2225  -20.8111 C.ar    1  UNL1        0.0015
     46 C         -64.7844  -45.1148  -19.7159 C.ar    1  UNL1        0.0001
     47 C         -64.5568  -43.8694  -19.1034 C.ar    1  UNL1        0.0012
     48 C         -65.2232  -42.7564  -19.6199 C.ar    1  UNL1        0.0131
     49 H         -67.2996  -41.4613  -21.7560 H       1  UNL1        0.1660
@<TRIPOS>BOND
     1     1     2    2
     2     2     3   am
     3     3    28    1
     4    28    39    1
     5    39    40    1
     6    40    41   ar
     7    41    42   ar
     8    42    43   ar
     9    43    44   ar
    10    44    45   ar
    11    45    46   ar
    12    46    47   ar
    13    47    48   ar
    14    28    29    1
    15    29    30    2
    16    29    31   am
    17    31    33    1
    18    33    34   ar
    19    34    35   ar
    20    35    36   ar
    21    36    37   ar
    22    37    38   ar
    23     2     5    1
    24     5     6   ar
    25     6     7    1
    26     6     8   ar
    27     8     9   ar
    28     9    14    1
    29    14    15    1
    30    15    16    1
    31    16    17    1
    32    17    20    1
    33    20    21   ar
    34    21    22   ar
    35    22    23   ar
    36    23    24    1
    37    23    25   ar
    38    25    26    1
    39    25    27   ar
    40    17    18    1
    41    18    19    1
    42     9    10   ar
    43    10    11   ar
    44    11    12    1
    45    48    40   ar
    46    38    33   ar
    47    11     5   ar
    48    48    43   ar
    49    19    14    1
    50    27    20   ar
    51     3     4    1
    52    42    49    1
    53    31    32    1
    54     7    13    1
@<TRIPOS>MOLECULE
*****
 49 54 0 0 0
SMALL
GASTEIGER

@<TRIPOS>ATOM
      1 O         -60.1945  -45.9060  -24.4665 O.2     1  UNL1       -0.2699
      2 C         -60.7799  -44.9243  -25.0002 C.2     1  UNL1        0.2513
      3 N         -60.9418  -44.8863  -26.4272 N.am    1  UNL1       -0.2944
      4 H         -61.6292  -44.2075  -26.8242 H       1  UNL1        0.1501
      5 C         -61.2975  -43.8269  -24.1422 C.ar    1  UNL1        0.1144
      6 C         -60.7040  -43.5594  -22.8900 C.ar    1  UNL1        0.1414
      7 O         -59.6551  -44.3522  -22.4225 O.3     1  UNL1       -0.5052
      8 C         -61.1751  -42.5027  -22.0984 C.ar    1  UNL1        0.0514
      9 C         -62.2410  -41.6976  -22.5305 C.ar    1  UNL1        0.0532
     10 C         -62.8275  -41.9653  -23.7774 C.ar    1  UNL1        0.0445
     11 C         -62.3658  -43.0144  -24.5753 C.ar    1  UNL1        0.1486
     12 F         -62.9406  -43.1961  -25.7904 F       1  UNL1       -0.2039
     13 H         -59.2166  -44.1815  -21.5251 H       1  UNL1        0.2922
     14 N         -62.7168  -40.6056  -21.7118 N.pl3   1  UNL1       -0.3039
     15 C         -64.1619  -40.4292  -21.4988 C.3     1  UNL1        0.1122
     16 C         -64.4492  -39.5982  -20.2445 C.3     1  UNL1        0.1122
     17 N         -63.6788  -38.3461  -20.2592 N.pl3   1  UNL1       -0.3040
     18 C         -62.3347  -38.3183  -20.8571 C.3     1  UNL1        0.1122
     19 C         -61.7610  -39.7293  -21.0191 C.3     1  UNL1        0.1122
     20 C         -64.2003  -37.1632  -19.6127 C.ar    1  UNL1        0.0488
     21 C         -63.3897  -36.4044  -18.7493 C.ar    1  UNL1        0.0154
     22 C         -63.8945  -35.2624  -18.1227 C.ar    1  UNL1        0.0135
     23 C         -65.2148  -34.8601  -18.3442 C.ar    1  UNL1        0.0683
     24 CL        -65.8131  -33.4171  -17.5368 Cl      1  UNL1       -0.0814
     25 C         -66.0366  -35.6100  -19.2008 C.ar    1  UNL1        0.0694
     26 CL        -67.7054  -35.1432  -19.5012 Cl      1  UNL1       -0.0813
     27 C         -65.5296  -36.7538  -19.8287 C.ar    1  UNL1        0.0268
     28 C         -60.2639  -45.8405  -27.3184 C.3     1  UNL1        0.1535
     29 C         -61.2163  -46.9022  -27.8191 C.2     1  UNL1        0.2443
     30 O         -60.8691  -48.1152  -27.8160 O.2     1  UNL1       -0.2730
     31 N         -62.5517  -46.5336  -28.1995 N.am    1  UNL1       -0.2825
     32 H         -62.8994  -45.5930  -27.9045 H       1  UNL1        0.1549
     33 C         -63.4770  -47.4200  -28.8517 C.ar    1  UNL1        0.0535
     34 C         -63.6725  -48.7382  -28.4053 C.ar    1  UNL1        0.0353
     35 C         -64.5649  -49.5706  -29.0857 C.ar    1  UNL1        0.1002
     36 N         -65.2277  -49.1117  -30.1801 N.ar    1  UNL1       -0.2422
     37 C         -65.0442  -47.8477  -30.6450 C.ar    1  UNL1        0.1002
     38 C         -64.1602  -46.9833  -29.9949 C.ar    1  UNL1        0.0353
     39 C         -59.5670  -45.1227  -28.4952 C.3     1  UNL1        0.0569
     40 C         -60.5306  -44.4292  -29.4200 C.ar    1  UNL1       -0.0017
     41 C         -61.7108  -43.7860  -29.0576 C.ar    1  UNL1        0.0681
     42 N         -62.2953  -43.2244  -30.1399 N.ar    1  UNL1       -0.3523
     43 C         -61.4976  -43.5094  -31.1833 C.ar    1  UNL1        0.0563
     44 C         -61.6790  -43.1292  -32.5124 C.ar    1  UNL1        0.0170
     45 C         -60.7108  -43.5317  -33.4500 C.ar    1  UNL1        0.0015
     46 C         -59.5991  -44.3021  -33.0443 C.ar    1  UNL1        0.0001
     47 C         -59.4434  -44.6743  -31.6971 C.ar    1  UNL1        0.0012
     48 C         -60.4127  -44.2495  -30.7862 C.ar    1  UNL1        0.0131
     49 H         -63.1836  -42.6757  -30.1560 H       1  UNL1        0.1660
@<TRIPOS>BOND
     1     1     2    2
     2     2     3   am
     3     3    28    1
     4    28    39    1
     5    39    40    1
     6    40    41   ar
     7    41    42   ar
     8    42    43   ar
     9    43    44   ar
    10    44    45   ar
    11    45    46   ar
    12    46    47   ar
    13    47    48   ar
    14    28    29    1
    15    29    30    2
    16    29    31   am
    17    31    33    1
    18    33    34   ar
    19    34    35   ar
    20    35    36   ar
    21    36    37   ar
    22    37    38   ar
    23     2     5    1
    24     5     6   ar
    25     6     7    1
    26     6     8   ar
    27     8     9   ar
    28     9    14    1
    29    14    15    1
    30    15    16    1
    31    16    17    1
    32    17    20    1
    33    20    21   ar
    34    21    22   ar
    35    22    23   ar
    36    23    24    1
    37    23    25   ar
    38    25    26    1
    39    25    27   ar
    40    17    18    1
    41    18    19    1
    42     9    10   ar
    43    10    11   ar
    44    11    12    1
    45    48    40   ar
    46    38    33   ar
    47    11     5   ar
    48    48    43   ar
    49    19    14    1
    50    27    20   ar
    51     3     4    1
    52    42    49    1
    53    31    32    1
    54     7    13    1
@<TRIPOS>MOLECULE
*****
 49 54 0 0 0
SMALL
GASTEIGER

@<TRIPOS>ATOM
      1 O         -60.7511  -46.7761  -23.4959 O.2     1  UNL1       -0.2699
      2 C         -61.5812  -45.9971  -24.0393 C.2     1  UNL1        0.2513
      3 N         -62.1097  -46.3177  -25.3362 N.am    1  UNL1       -0.2944
      4 H         -62.9613  -45.8058  -25.6582 H       1  UNL1        0.1501
      5 C         -62.0026  -44.7639  -23.3251 C.ar    1  UNL1        0.1144
      6 C         -61.9539  -44.7032  -21.9160 C.ar    1  UNL1        0.1414
      7 O         -61.5543  -45.8162  -21.1751 O.3     1  UNL1       -0.5052
      8 C         -62.3221  -43.5268  -21.2483 C.ar    1  UNL1        0.0514
      9 C         -62.7468  -42.3952  -21.9624 C.ar    1  UNL1        0.0532
     10 C         -62.7921  -42.4586  -23.3639 C.ar    1  UNL1        0.0445
     11 C         -62.4264  -43.6245  -24.0401 C.ar    1  UNL1        0.1486
     12 F         -62.4459  -43.6116  -25.3963 F       1  UNL1       -0.2039
     13 H         -61.5157  -45.7971  -20.1627 H       1  UNL1        0.2922
     14 N         -63.1183  -41.1835  -21.2674 N.pl3   1  UNL1       -0.3039
     15 C         -64.5405  -40.8689  -21.0588 C.3     1  UNL1        0.1122
     16 C         -64.7355  -39.8821  -19.9035 C.3     1  UNL1        0.1122
     17 N         -63.8697  -38.7055  -20.0693 N.pl3   1  UNL1       -0.3040
     18 C         -62.5403  -38.8530  -20.6823 C.3     1  UNL1        0.1122
     19 C         -62.0826  -40.3148  -20.6898 C.3     1  UNL1        0.1122
     20 C         -64.2832  -37.4195  -19.5551 C.ar    1  UNL1        0.0488
     21 C         -63.3892  -36.6244  -18.8156 C.ar    1  UNL1        0.0154
     22 C         -63.7897  -35.3825  -18.3167 C.ar    1  UNL1        0.0135
     23 C         -65.0871  -34.9146  -18.5443 C.ar    1  UNL1        0.0683
     24 CL        -65.5530  -33.3463  -17.8996 Cl      1  UNL1       -0.0814
     25 C         -65.9915  -35.6992  -19.2777 C.ar    1  UNL1        0.0694
     26 CL        -67.6350  -35.1515  -19.5806 Cl      1  UNL1       -0.0813
     27 C         -65.5889  -36.9433  -19.7778 C.ar    1  UNL1        0.0268
     28 C         -61.5627  -47.4090  -26.1573 C.3     1  UNL1        0.1535
     29 C         -61.8254  -48.7586  -25.5293 C.2     1  UNL1        0.2443
     30 O         -62.8433  -49.4245  -25.8645 O.2     1  UNL1       -0.2730
     31 N         -60.8576  -49.3217  -24.6292 N.am    1  UNL1       -0.2825
     32 H         -59.9031  -48.8957  -24.6126 H       1  UNL1        0.1549
     33 C         -61.0814  -50.5046  -23.8430 C.ar    1  UNL1        0.0535
     34 C         -62.3652  -50.8571  -23.3928 C.ar    1  UNL1        0.0353
     35 C         -62.5304  -52.0033  -22.6111 C.ar    1  UNL1        0.1002
     36 N         -61.4538  -52.7631  -22.2773 N.ar    1  UNL1       -0.2422
     37 C         -60.1986  -52.4359  -22.6830 C.ar    1  UNL1        0.1002
     38 C         -59.9892  -51.2975  -23.4650 C.ar    1  UNL1        0.0353
     39 C         -62.1021  -47.3572  -27.6037 C.3     1  UNL1        0.0569
     40 C         -62.6587  -46.0108  -27.9804 C.ar    1  UNL1       -0.0017
     41 C         -63.9984  -45.6964  -28.1909 C.ar    1  UNL1        0.0681
     42 N         -64.1391  -44.3784  -28.4576 N.ar    1  UNL1       -0.3523
     43 C         -62.9007  -43.8573  -28.4211 C.ar    1  UNL1        0.0563
     44 C         -62.5397  -42.5256  -28.6213 C.ar    1  UNL1        0.0170
     45 C         -61.1762  -42.1925  -28.5297 C.ar    1  UNL1        0.0015
     46 C         -60.2141  -43.1875  -28.2499 C.ar    1  UNL1        0.0001
     47 C         -60.6067  -44.5239  -28.0558 C.ar    1  UNL1        0.0012
     48 C         -61.9680  -44.8231  -28.1393 C.ar    1  UNL1        0.0131
     49 H         -65.0319  -43.8710  -28.6470 H       1  UNL1        0.1660
@<TRIPOS>BOND
     1     1     2    2
     2     2     3   am
     3     3    28    1
     4    28    39    1
     5    39    40    1
     6    40    41   ar
     7    41    42   ar
     8    42    43   ar
     9    43    44   ar
    10    44    45   ar
    11    45    46   ar
    12    46    47   ar
    13    47    48   ar
    14    28    29    1
    15    29    30    2
    16    29    31   am
    17    31    33    1
    18    33    34   ar
    19    34    35   ar
    20    35    36   ar
    21    36    37   ar
    22    37    38   ar
    23     2     5    1
    24     5     6   ar
    25     6     7    1
    26     6     8   ar
    27     8     9   ar
    28     9    14    1
    29    14    15    1
    30    15    16    1
    31    16    17    1
    32    17    20    1
    33    20    21   ar
    34    21    22   ar
    35    22    23   ar
    36    23    24    1
    37    23    25   ar
    38    25    26    1
    39    25    27   ar
    40    17    18    1
    41    18    19    1
    42     9    10   ar
    43    10    11   ar
    44    11    12    1
    45    48    40   ar
    46    38    33   ar
    47    11     5   ar
    48    48    43   ar
    49    19    14    1
    50    27    20   ar
    51     3     4    1
    52    42    49    1
    53    31    32    1
    54     7    13    1
