@<TRIPOS>MOLECULE
*****
 46 51 0 0 0
SMALL
GASTEIGER

@<TRIPOS>ATOM
      1 C          11.9060   80.6335   24.9342 C.ar    1  UNL1        0.0702
      2 C          13.3085   80.6197   24.9675 C.ar    1  UNL1        0.0191
      3 C          14.0289   81.7849   24.6999 C.ar    1  UNL1        0.0356
      4 C          13.3429   82.9782   24.4080 C.ar    1  UNL1        0.1318
      5 N          11.9800   82.9652   24.4016 N.ar    1  UNL1       -0.2279
      6 C          11.2581   81.8432   24.6589 C.ar    1  UNL1        0.1149
      7 N          14.0523   84.2106   24.1365 N.pl3   1  UNL1       -0.2924
      8 C          13.6452   85.4718   24.7812 C.3     1  UNL1        0.0923
      9 C          14.3031   86.6916   24.1191 C.3     1  UNL1        0.0261
     10 C          14.2287   86.5693   22.5854 C.3     1  UNL1        0.0568
     11 C          14.9310   85.2706   22.0740 C.3     1  UNL1        0.0672
     12 S          13.9643   84.5069   20.7200 S.3     1  UNL1       -0.1670
     13 C          15.1783   84.2357   23.1898 C.3     1  UNL1        0.1027
     14 H          12.8501   84.2281   21.5351 H       1  UNL1        0.1023
     15 C          14.8212   87.8311   21.9255 C.3     1  UNL1        0.2062
     16 O          16.2043   87.6523   21.6155 O.3     1  UNL1       -0.4754
     17 C          17.2792   88.2349   22.3070 C.ar    1  UNL1        0.1388
     18 C          18.3215   88.9207   21.6564 C.ar    1  UNL1        0.0369
     19 C          19.3658   89.4758   22.3979 C.ar    1  UNL1        0.0033
     20 C          19.3860   89.3540   23.7889 C.ar    1  UNL1        0.0066
     21 C          18.3564   88.6688   24.4574 C.ar    1  UNL1        0.0785
     22 C          17.3013   88.1237   23.7028 C.ar    1  UNL1        0.0433
     23 C          18.3574   88.5337   25.9347 C.2     1  UNL1        0.3381
     24 O          17.2720   88.6093   26.5699 O.2     1  UNL1       -0.2451
     25 O          19.5323   88.3078   26.6512 O.3     1  UNL1       -0.4771
     26 H          20.4212   88.1339   26.2009 H       1  UNL1        0.2954
     27 C          11.6176   78.3543   26.0044 C.2     1  UNL1        0.2839
     28 O          12.8550   78.1205   26.0587 O.2     1  UNL1       -0.2665
     29 N          11.1297   79.4597   25.2296 N.am    1  UNL1       -0.2766
     30 H          10.1993   79.3562   24.7663 H       1  UNL1        0.1553
     31 C           8.4230   78.0978   25.5688 C.3     1  UNL1        0.0345
     32 C           9.3089   77.3089   26.4853 C.ar    1  UNL1        0.0202
     33 C          10.6911   77.4275   26.6782 C.ar    1  UNL1        0.1946
     34 O          11.0938   76.5691   27.5988 O.2     1  UNL1       -0.4492
     35 C          10.0490   75.8850   27.9965 C.ar    1  UNL1        0.1452
     36 C          10.0144   74.8703   28.9466 C.ar    1  UNL1        0.0375
     37 C           8.7759   74.2629   29.2187 C.ar    1  UNL1        0.0031
     38 C           7.5969   74.6766   28.5411 C.ar    1  UNL1        0.0002
     39 C           7.6763   75.7150   27.5822 C.ar    1  UNL1        0.0028
     40 C           8.9216   76.2948   27.3383 C.ar    1  UNL1        0.0337
     41 C           6.2944   74.0271   28.8357 C.ar    1  UNL1        0.0000
     42 C           5.5121   74.4536   29.9257 C.ar    1  UNL1        0.0000
     43 C           4.2865   73.8394   30.2013 C.ar    1  UNL1        0.0000
     44 C           3.8282   72.7959   29.3942 C.ar    1  UNL1        0.0000
     45 C           4.5948   72.3638   28.3097 C.ar    1  UNL1        0.0000
     46 C           5.8215   72.9736   28.0300 C.ar    1  UNL1        0.0000
@<TRIPOS>BOND
     1    31    32    1
     2    32    33   ar
     3    33    27    1
     4    27    28    2
     5    27    29   am
     6    29     1    1
     7     1     2   ar
     8     2     3   ar
     9     3     4   ar
    10     4     7    1
    11     7     8    1
    12     8     9    1
    13     9    10    1
    14    10    15    1
    15    15    16    1
    16    16    17    1
    17    17    18   ar
    18    18    19   ar
    19    19    20   ar
    20    20    21   ar
    21    21    23    1
    22    23    24    2
    23    23    25    1
    24    21    22   ar
    25    10    11    1
    26    11    12    1
    27    11    13    1
    28     4     5   ar
    29     5     6   ar
    30    33    34   ar
    31    34    35   ar
    32    35    36   ar
    33    36    37   ar
    34    37    38   ar
    35    38    41    1
    36    41    42   ar
    37    42    43   ar
    38    43    44   ar
    39    44    45   ar
    40    45    46   ar
    41    38    39   ar
    42    39    40   ar
    43    40    32   ar
    44     6     1   ar
    45    40    35   ar
    46    13     7    1
    47    46    41   ar
    48    22    17   ar
    49    29    30    1
    50    25    26    1
    51    12    14    1
@<TRIPOS>MOLECULE
*****
 46 51 0 0 0
SMALL
GASTEIGER

@<TRIPOS>ATOM
      1 C          11.7169   80.6389   24.8070 C.ar    1  UNL1        0.0702
      2 C          13.1161   80.5729   24.8863 C.ar    1  UNL1        0.0191
      3 C          13.8742   81.7447   24.9103 C.ar    1  UNL1        0.0356
      4 C          13.2292   82.9944   24.8667 C.ar    1  UNL1        0.1318
      5 N          11.8678   83.0270   24.8090 N.ar    1  UNL1       -0.2279
      6 C          11.1097   81.8997   24.7846 C.ar    1  UNL1        0.1149
      7 N          13.9781   84.2328   24.9014 N.pl3   1  UNL1       -0.2924
      8 C          14.1598   84.9681   26.1657 C.3     1  UNL1        0.0923
      9 C          14.6889   86.3906   25.9298 C.3     1  UNL1        0.0261
     10 C          13.9235   87.0578   24.7715 C.3     1  UNL1        0.0568
     11 C          14.0513   86.2397   23.4464 C.3     1  UNL1        0.0672
     12 S          12.4553   86.2131   22.5503 S.3     1  UNL1       -0.1670
     13 C          14.5511   84.7983   23.6699 C.3     1  UNL1        0.1027
     14 H          11.7836   85.4966   23.5597 H       1  UNL1        0.1023
     15 C          14.4048   88.5117   24.5883 C.3     1  UNL1        0.2062
     16 O          15.6575   88.7281   25.2402 O.3     1  UNL1       -0.4754
     17 C          16.8951   88.8968   24.5976 C.ar    1  UNL1        0.1388
     18 C          18.1089   89.0117   25.3003 C.ar    1  UNL1        0.0369
     19 C          19.3078   89.1817   24.6060 C.ar    1  UNL1        0.0033
     20 C          19.3128   89.2411   23.2108 C.ar    1  UNL1        0.0066
     21 C          18.1105   89.1329   22.4905 C.ar    1  UNL1        0.0785
     22 C          16.9084   88.9487   23.1983 C.ar    1  UNL1        0.0433
     23 C          18.0961   89.1879   21.0081 C.2     1  UNL1        0.3381
     24 O          19.1678   89.3983   20.3801 O.2     1  UNL1       -0.2451
     25 O          16.9240   88.9970   20.2770 O.3     1  UNL1       -0.4771
     26 H          16.0508   88.7227   20.7076 H       1  UNL1        0.2954
     27 C          11.1171   78.3366   25.6806 C.2     1  UNL1        0.2839
     28 O          12.2683   78.1096   26.1409 O.2     1  UNL1       -0.2665
     29 N          10.9016   79.4544   24.8063 N.am    1  UNL1       -0.2766
     30 H          10.1805   79.3544   24.0572 H       1  UNL1        0.1553
     31 C           9.7083   77.8233   28.5463 C.3     1  UNL1        0.0345
     32 C           9.4136   77.1723   27.2286 C.ar    1  UNL1        0.0202
     33 C          10.0308   77.3904   25.9904 C.ar    1  UNL1        0.1946
     34 O           9.5043   76.5936   25.0769 O.2     1  UNL1       -0.4492
     35 C           8.5631   75.8866   25.6530 C.ar    1  UNL1        0.1452
     36 C           7.7440   74.9297   25.0640 C.ar    1  UNL1        0.0375
     37 C           6.7889   74.2899   25.8735 C.ar    1  UNL1        0.0031
     38 C           6.6675   74.6139   27.2521 C.ar    1  UNL1        0.0002
     39 C           7.5230   75.5930   27.8122 C.ar    1  UNL1        0.0028
     40 C           8.4588   76.2067   26.9792 C.ar    1  UNL1        0.0337
     41 C           5.6544   73.9326   28.0973 C.ar    1  UNL1        0.0000
     42 C           5.0566   74.6048   29.1803 C.ar    1  UNL1        0.0000
     43 C           4.1037   73.9603   29.9752 C.ar    1  UNL1        0.0000
     44 C           3.7365   72.6415   29.6989 C.ar    1  UNL1        0.0000
     45 C           4.3220   71.9638   28.6272 C.ar    1  UNL1        0.0000
     46 C           5.2762   72.6030   27.8296 C.ar    1  UNL1        0.0000
@<TRIPOS>BOND
     1    31    32    1
     2    32    33   ar
     3    33    27    1
     4    27    28    2
     5    27    29   am
     6    29     1    1
     7     1     2   ar
     8     2     3   ar
     9     3     4   ar
    10     4     7    1
    11     7     8    1
    12     8     9    1
    13     9    10    1
    14    10    15    1
    15    15    16    1
    16    16    17    1
    17    17    18   ar
    18    18    19   ar
    19    19    20   ar
    20    20    21   ar
    21    21    23    1
    22    23    24    2
    23    23    25    1
    24    21    22   ar
    25    10    11    1
    26    11    12    1
    27    11    13    1
    28     4     5   ar
    29     5     6   ar
    30    33    34   ar
    31    34    35   ar
    32    35    36   ar
    33    36    37   ar
    34    37    38   ar
    35    38    41    1
    36    41    42   ar
    37    42    43   ar
    38    43    44   ar
    39    44    45   ar
    40    45    46   ar
    41    38    39   ar
    42    39    40   ar
    43    40    32   ar
    44     6     1   ar
    45    40    35   ar
    46    13     7    1
    47    46    41   ar
    48    22    17   ar
    49    29    30    1
    50    25    26    1
    51    12    14    1
@<TRIPOS>MOLECULE
*****
 46 51 0 0 0
SMALL
GASTEIGER

@<TRIPOS>ATOM
      1 C          10.4520   80.9991   25.1909 C.ar    1  UNL1        0.0702
      2 C          10.2154   80.2969   26.3823 C.ar    1  UNL1        0.0191
      3 C           9.4903   79.1043   26.3624 C.ar    1  UNL1        0.0356
      4 C           9.0070   78.6014   25.1404 C.ar    1  UNL1        0.1318
      5 N           9.2689   79.2958   23.9971 N.ar    1  UNL1       -0.2279
      6 C           9.9722   80.4584   23.9925 C.ar    1  UNL1        0.1149
      7 N           8.2612   77.3624   25.0752 N.pl3   1  UNL1       -0.2924
      8 C           8.8031   76.1251   25.6647 C.3     1  UNL1        0.0923
      9 C           8.0235   74.8835   25.2068 C.3     1  UNL1        0.0261
     10 C           7.7652   74.9469   23.6896 C.3     1  UNL1        0.0568
     11 C           6.9636   76.2279   23.2923 C.3     1  UNL1        0.0672
     12 S           7.6127   76.9354   21.7338 S.3     1  UNL1       -0.1670
     13 C           6.9578   77.3056   24.3949 C.3     1  UNL1        0.1027
     14 H           8.8750   77.2408   22.2785 H       1  UNL1        0.1023
     15 C           7.0501   73.6631   23.2213 C.3     1  UNL1        0.2062
     16 O           7.8129   72.9798   22.2252 O.3     1  UNL1       -0.4754
     17 C           9.2150   72.9496   22.1469 C.ar    1  UNL1        0.1388
     18 C           9.9756   71.8299   22.5317 C.ar    1  UNL1        0.0369
     19 C          11.3677   71.8608   22.4346 C.ar    1  UNL1        0.0033
     20 C          12.0165   73.0016   21.9574 C.ar    1  UNL1        0.0066
     21 C          11.2751   74.1322   21.5721 C.ar    1  UNL1        0.0785
     22 C           9.8716   74.0871   21.6613 C.ar    1  UNL1        0.0433
     23 C          11.9458   75.3511   21.0575 C.2     1  UNL1        0.3381
     24 O          12.1515   76.3248   21.8302 O.2     1  UNL1       -0.2451
     25 O          12.3753   75.4506   19.7344 O.3     1  UNL1       -0.4771
     26 H          12.3367   74.6734   19.0882 H       1  UNL1        0.2954
     27 C          12.6272   82.2689   24.9095 C.2     1  UNL1        0.2839
     28 O          13.3514   81.2687   25.1620 O.2     1  UNL1       -0.2665
     29 N          11.2164   82.2168   25.1685 N.am    1  UNL1       -0.2766
     30 H          10.7427   83.1001   25.4626 H       1  UNL1        0.1553
     31 C          15.4765   82.5528   23.4056 C.3     1  UNL1        0.0345
     32 C          14.4986   83.6293   23.7686 C.ar    1  UNL1        0.0202
     33 C          13.2689   83.5047   24.4273 C.ar    1  UNL1        0.1946
     34 O          12.7202   84.6962   24.5885 O.2     1  UNL1       -0.4492
     35 C          13.5192   85.5840   24.0489 C.ar    1  UNL1        0.1452
     36 C          13.3313   86.9602   23.9814 C.ar    1  UNL1        0.0375
     37 C          14.3214   87.7310   23.3473 C.ar    1  UNL1        0.0031
     38 C          15.4783   87.1187   22.7934 C.ar    1  UNL1        0.0002
     39 C          15.6310   85.7143   22.8857 C.ar    1  UNL1        0.0028
     40 C          14.6289   84.9815   23.5221 C.ar    1  UNL1        0.0337
     41 C          16.5171   87.9427   22.1248 C.ar    1  UNL1        0.0000
     42 C          16.3427   88.3747   20.7962 C.ar    1  UNL1        0.0000
     43 C          17.3231   89.1495   20.1689 C.ar    1  UNL1        0.0000
     44 C          18.4853   89.5021   20.8583 C.ar    1  UNL1        0.0000
     45 C          18.6701   89.0801   22.1767 C.ar    1  UNL1        0.0000
     46 C          17.6935   88.3042   22.8087 C.ar    1  UNL1        0.0000
@<TRIPOS>BOND
     1    31    32    1
     2    32    33   ar
     3    33    27    1
     4    27    28    2
     5    27    29   am
     6    29     1    1
     7     1     2   ar
     8     2     3   ar
     9     3     4   ar
    10     4     7    1
    11     7     8    1
    12     8     9    1
    13     9    10    1
    14    10    15    1
    15    15    16    1
    16    16    17    1
    17    17    18   ar
    18    18    19   ar
    19    19    20   ar
    20    20    21   ar
    21    21    23    1
    22    23    24    2
    23    23    25    1
    24    21    22   ar
    25    10    11    1
    26    11    12    1
    27    11    13    1
    28     4     5   ar
    29     5     6   ar
    30    33    34   ar
    31    34    35   ar
    32    35    36   ar
    33    36    37   ar
    34    37    38   ar
    35    38    41    1
    36    41    42   ar
    37    42    43   ar
    38    43    44   ar
    39    44    45   ar
    40    45    46   ar
    41    38    39   ar
    42    39    40   ar
    43    40    32   ar
    44     6     1   ar
    45    40    35   ar
    46    13     7    1
    47    46    41   ar
    48    22    17   ar
    49    29    30    1
    50    25    26    1
    51    12    14    1
@<TRIPOS>MOLECULE
*****
 46 51 0 0 0
SMALL
GASTEIGER

@<TRIPOS>ATOM
      1 C          12.2182   81.4911   25.1346 C.ar    1  UNL1        0.0702
      2 C          13.2743   82.0762   25.8492 C.ar    1  UNL1        0.0191
      3 C          13.9163   83.2108   25.3502 C.ar    1  UNL1        0.0356
      4 C          13.4925   83.7739   24.1324 C.ar    1  UNL1        0.1318
      5 N          12.4515   83.1945   23.4702 N.ar    1  UNL1       -0.2279
      6 C          11.8120   82.0902   23.9367 C.ar    1  UNL1        0.1149
      7 N          14.1239   84.9568   23.5866 N.pl3   1  UNL1       -0.2924
      8 C          13.5650   86.2959   23.8443 C.3     1  UNL1        0.0923
      9 C          14.1799   87.3600   22.9230 C.3     1  UNL1        0.0261
     10 C          14.2480   86.8359   21.4762 C.3     1  UNL1        0.0568
     11 C          15.0915   85.5245   21.3750 C.3     1  UNL1        0.0672
     12 S          14.3081   84.3435   20.2164 S.3     1  UNL1       -0.1670
     13 C          15.3220   84.8453   22.7398 C.3     1  UNL1        0.1027
     14 H          13.1531   84.1781   21.0050 H       1  UNL1        0.1023
     15 C          14.7945   87.9345   20.5416 C.3     1  UNL1        0.2062
     16 O          13.8830   88.2080   19.4760 O.3     1  UNL1       -0.4754
     17 C          14.1528   88.0450   18.1072 C.ar    1  UNL1        0.1388
     18 C          14.1427   89.1171   17.1958 C.ar    1  UNL1        0.0369
     19 C          14.4152   88.8923   15.8454 C.ar    1  UNL1        0.0033
     20 C          14.6980   87.6035   15.3878 C.ar    1  UNL1        0.0066
     21 C          14.7086   86.5183   16.2814 C.ar    1  UNL1        0.0785
     22 C          14.4454   86.7567   17.6430 C.ar    1  UNL1        0.0433
     23 C          15.0122   85.1431   15.8154 C.2     1  UNL1        0.3381
     24 O          14.2637   84.5919   14.9650 O.2     1  UNL1       -0.2451
     25 O          16.1208   84.4372   16.2816 O.3     1  UNL1       -0.4771
     26 H          16.8190   84.8532   16.8837 H       1  UNL1        0.2954
     27 C          10.5075   80.3941   26.6490 C.2     1  UNL1        0.2839
     28 O          10.5146   81.3320   27.4910 O.2     1  UNL1       -0.2665
     29 N          11.5162   80.3378   25.6294 N.am    1  UNL1       -0.2766
     30 H          11.8316   79.3952   25.3083 H       1  UNL1        0.1553
     31 C           9.6815   78.8002   29.3393 C.3     1  UNL1        0.0345
     32 C           9.1368   78.6398   27.9520 C.ar    1  UNL1        0.0202
     33 C           9.5021   79.3257   26.7867 C.ar    1  UNL1        0.1946
     34 O           8.8086   78.8698   25.7582 O.2     1  UNL1       -0.4492
     35 C           7.9972   77.9401   26.1997 C.ar    1  UNL1        0.1452
     36 C           7.0795   77.1993   25.4630 C.ar    1  UNL1        0.0375
     37 C           6.2997   76.2486   26.1448 C.ar    1  UNL1        0.0031
     38 C           6.4479   76.0532   27.5448 C.ar    1  UNL1        0.0002
     39 C           7.3956   76.8275   28.2565 C.ar    1  UNL1        0.0028
     40 C           8.1520   77.7609   27.5473 C.ar    1  UNL1        0.0337
     41 C           5.6181   75.0470   28.2547 C.ar    1  UNL1        0.0000
     42 C           4.8870   75.4041   29.4038 C.ar    1  UNL1        0.0000
     43 C           4.1074   74.4542   30.0708 C.ar    1  UNL1        0.0000
     44 C           4.0475   73.1407   29.5999 C.ar    1  UNL1        0.0000
     45 C           4.7678   72.7740   28.4610 C.ar    1  UNL1        0.0000
     46 C           5.5499   73.7194   27.7905 C.ar    1  UNL1        0.0000
@<TRIPOS>BOND
     1    31    32    1
     2    32    33   ar
     3    33    27    1
     4    27    28    2
     5    27    29   am
     6    29     1    1
     7     1     2   ar
     8     2     3   ar
     9     3     4   ar
    10     4     7    1
    11     7     8    1
    12     8     9    1
    13     9    10    1
    14    10    15    1
    15    15    16    1
    16    16    17    1
    17    17    18   ar
    18    18    19   ar
    19    19    20   ar
    20    20    21   ar
    21    21    23    1
    22    23    24    2
    23    23    25    1
    24    21    22   ar
    25    10    11    1
    26    11    12    1
    27    11    13    1
    28     4     5   ar
    29     5     6   ar
    30    33    34   ar
    31    34    35   ar
    32    35    36   ar
    33    36    37   ar
    34    37    38   ar
    35    38    41    1
    36    41    42   ar
    37    42    43   ar
    38    43    44   ar
    39    44    45   ar
    40    45    46   ar
    41    38    39   ar
    42    39    40   ar
    43    40    32   ar
    44     6     1   ar
    45    40    35   ar
    46    13     7    1
    47    46    41   ar
    48    22    17   ar
    49    29    30    1
    50    25    26    1
    51    12    14    1
@<TRIPOS>MOLECULE
*****
 46 51 0 0 0
SMALL
GASTEIGER

@<TRIPOS>ATOM
      1 C          11.9708   80.7381   24.9395 C.ar    1  UNL1        0.0702
      2 C          13.3705   80.6698   25.0062 C.ar    1  UNL1        0.0191
      3 C          14.1424   81.8015   24.7384 C.ar    1  UNL1        0.0356
      4 C          13.5111   83.0160   24.4126 C.ar    1  UNL1        0.1318
      5 N          12.1492   83.0564   24.3741 N.ar    1  UNL1       -0.2279
      6 C          11.3778   81.9678   24.6309 C.ar    1  UNL1        0.1149
      7 N          14.2749   84.2152   24.1397 N.pl3   1  UNL1       -0.2924
      8 C          14.0146   85.4598   24.8848 C.3     1  UNL1        0.0923
      9 C          14.6907   86.6724   24.2278 C.3     1  UNL1        0.0261
     10 C          14.4689   86.6443   22.7037 C.3     1  UNL1        0.0568
     11 C          15.0320   85.3360   22.0613 C.3     1  UNL1        0.0672
     12 S          13.8964   84.7146   20.7670 S.3     1  UNL1       -0.1670
     13 C          15.3091   84.2246   23.0933 C.3     1  UNL1        0.1027
     14 H          12.8447   84.4592   21.6682 H       1  UNL1        0.1023
     15 C          15.0831   87.9028   22.0572 C.3     1  UNL1        0.2062
     16 O          14.0688   88.8220   21.6483 O.3     1  UNL1       -0.4754
     17 C          13.3150   88.7350   20.4662 C.ar    1  UNL1        0.1388
     18 C          11.9078   88.7465   20.4575 C.ar    1  UNL1        0.0369
     19 C          11.2132   88.6531   19.2504 C.ar    1  UNL1        0.0033
     20 C          11.9075   88.5460   18.0433 C.ar    1  UNL1        0.0066
     21 C          13.3131   88.5283   18.0310 C.ar    1  UNL1        0.0785
     22 C          14.0048   88.6359   19.2516 C.ar    1  UNL1        0.0433
     23 C          14.0683   88.4207   16.7588 C.2     1  UNL1        0.3381
     24 O          14.0852   87.3276   16.1325 O.2     1  UNL1       -0.2451
     25 O          14.7560   89.5068   16.2183 O.3     1  UNL1       -0.4771
     26 H          14.7012   90.4375   16.6108 H       1  UNL1        0.2954
     27 C          11.6225   78.4055   25.8674 C.2     1  UNL1        0.2839
     28 O          12.8370   78.0836   25.7663 O.2     1  UNL1       -0.2665
     29 N          11.1420   79.6005   25.2339 N.am    1  UNL1       -0.2766
     30 H          10.1626   79.5987   24.8709 H       1  UNL1        0.1553
     31 C           8.4394   78.0691   25.4033 C.3     1  UNL1        0.0345
     32 C           9.3269   77.3401   26.3665 C.ar    1  UNL1        0.0202
     33 C          10.7039   77.4934   26.5714 C.ar    1  UNL1        0.1946
     34 O          11.1096   76.6860   27.5358 O.2     1  UNL1       -0.4492
     35 C          10.0721   76.0014   27.9513 C.ar    1  UNL1        0.1452
     36 C          10.0431   75.0310   28.9468 C.ar    1  UNL1        0.0375
     37 C           8.8123   74.4136   29.2308 C.ar    1  UNL1        0.0031
     38 C           7.6352   74.7733   28.5198 C.ar    1  UNL1        0.0002
     39 C           7.7088   75.7679   27.5150 C.ar    1  UNL1        0.0028
     40 C           8.9465   76.3591   27.2605 C.ar    1  UNL1        0.0337
     41 C           6.3409   74.1137   28.8274 C.ar    1  UNL1        0.0000
     42 C           5.5808   74.5138   29.9429 C.ar    1  UNL1        0.0000
     43 C           4.3629   73.8900   30.2307 C.ar    1  UNL1        0.0000
     44 C           3.8901   72.8632   29.4106 C.ar    1  UNL1        0.0000
     45 C           4.6347   72.4574   28.3009 C.ar    1  UNL1        0.0000
     46 C           5.8537   73.0769   28.0088 C.ar    1  UNL1        0.0000
@<TRIPOS>BOND
     1    31    32    1
     2    32    33   ar
     3    33    27    1
     4    27    28    2
     5    27    29   am
     6    29     1    1
     7     1     2   ar
     8     2     3   ar
     9     3     4   ar
    10     4     7    1
    11     7     8    1
    12     8     9    1
    13     9    10    1
    14    10    15    1
    15    15    16    1
    16    16    17    1
    17    17    18   ar
    18    18    19   ar
    19    19    20   ar
    20    20    21   ar
    21    21    23    1
    22    23    24    2
    23    23    25    1
    24    21    22   ar
    25    10    11    1
    26    11    12    1
    27    11    13    1
    28     4     5   ar
    29     5     6   ar
    30    33    34   ar
    31    34    35   ar
    32    35    36   ar
    33    36    37   ar
    34    37    38   ar
    35    38    41    1
    36    41    42   ar
    37    42    43   ar
    38    43    44   ar
    39    44    45   ar
    40    45    46   ar
    41    38    39   ar
    42    39    40   ar
    43    40    32   ar
    44     6     1   ar
    45    40    35   ar
    46    13     7    1
    47    46    41   ar
    48    22    17   ar
    49    29    30    1
    50    25    26    1
    51    12    14    1
@<TRIPOS>MOLECULE
*****
 46 51 0 0 0
SMALL
GASTEIGER

@<TRIPOS>ATOM
      1 C          12.1958   81.0096   25.2779 C.ar    1  UNL1        0.0702
      2 C          13.3757   81.5514   25.8095 C.ar    1  UNL1        0.0191
      3 C          13.9395   82.6965   25.2445 C.ar    1  UNL1        0.0356
      4 C          13.3134   83.3136   24.1459 C.ar    1  UNL1        0.1318
      5 N          12.1580   82.7752   23.6633 N.ar    1  UNL1       -0.2279
      6 C          11.5913   81.6616   24.1971 C.ar    1  UNL1        0.1149
      7 N          13.8593   84.5090   23.5385 N.pl3   1  UNL1       -0.2924
      8 C          15.0360   84.4345   22.6543 C.3     1  UNL1        0.0923
      9 C          15.6397   85.8213   22.3867 C.3     1  UNL1        0.0261
     10 C          15.7302   86.6243   23.6980 C.3     1  UNL1        0.0568
     11 C          14.3292   86.7984   24.3675 C.3     1  UNL1        0.0672
     12 S          14.4563   86.6098   26.1839 S.3     1  UNL1       -0.1670
     13 C          13.2674   85.8278   23.8127 C.3     1  UNL1        0.1027
     14 H          14.8550   85.2606   26.1186 H       1  UNL1        0.1023
     15 C          16.4070   87.9857   23.4381 C.3     1  UNL1        0.2062
     16 O          15.4680   88.9459   22.9509 O.3     1  UNL1       -0.4754
     17 C          14.9775   89.0157   21.6365 C.ar    1  UNL1        0.1388
     18 C          15.7607   89.4559   20.5535 C.ar    1  UNL1        0.0369
     19 C          15.2161   89.5072   19.2693 C.ar    1  UNL1        0.0033
     20 C          13.8913   89.1245   19.0490 C.ar    1  UNL1        0.0066
     21 C          13.0909   88.6861   20.1183 C.ar    1  UNL1        0.0785
     22 C          13.6523   88.6255   21.4071 C.ar    1  UNL1        0.0433
     23 C          11.6833   88.2702   19.9033 C.2     1  UNL1        0.3381
     24 O          10.9168   88.9926   19.2120 O.2     1  UNL1       -0.2451
     25 O          11.1781   87.0840   20.4349 O.3     1  UNL1       -0.4771
     26 H          11.7606   86.4076   20.9107 H       1  UNL1        0.2954
     27 C          10.4103   79.8965   26.6910 C.2     1  UNL1        0.2839
     28 O          10.1616   80.9351   27.3604 O.2     1  UNL1       -0.2665
     29 N          11.5718   79.8468   25.8491 N.am    1  UNL1       -0.2766
     30 H          12.0509   78.9257   25.7349 H       1  UNL1        0.1553
     31 C           8.4855   79.2080   29.1973 C.3     1  UNL1        0.0345
     32 C           8.6970   78.4246   27.9368 C.ar    1  UNL1        0.0202
     33 C           9.5375   78.7209   26.8563 C.ar    1  UNL1        0.1946
     34 O           9.4640   77.7612   25.9507 O.2     1  UNL1       -0.4492
     35 C           8.6031   76.8697   26.3773 C.ar    1  UNL1        0.1452
     36 C           8.2110   75.6991   25.7373 C.ar    1  UNL1        0.0375
     37 C           7.2622   74.8829   26.3778 C.ar    1  UNL1        0.0031
     38 C           6.7225   75.2465   27.6415 C.ar    1  UNL1        0.0002
     39 C           7.1508   76.4462   28.2592 C.ar    1  UNL1        0.0028
     40 C           8.0937   77.2309   27.5947 C.ar    1  UNL1        0.0337
     41 C           5.7200   74.3773   28.3082 C.ar    1  UNL1        0.0000
     42 C           4.9938   74.8447   29.4202 C.ar    1  UNL1        0.0000
     43 C           4.0512   74.0236   30.0466 C.ar    1  UNL1        0.0000
     44 C           3.8222   72.7304   29.5717 C.ar    1  UNL1        0.0000
     45 C           4.5359   72.2550   28.4693 C.ar    1  UNL1        0.0000
     46 C           5.4804   73.0714   27.8395 C.ar    1  UNL1        0.0000
@<TRIPOS>BOND
     1    31    32    1
     2    32    33   ar
     3    33    27    1
     4    27    28    2
     5    27    29   am
     6    29     1    1
     7     1     2   ar
     8     2     3   ar
     9     3     4   ar
    10     4     7    1
    11     7     8    1
    12     8     9    1
    13     9    10    1
    14    10    15    1
    15    15    16    1
    16    16    17    1
    17    17    18   ar
    18    18    19   ar
    19    19    20   ar
    20    20    21   ar
    21    21    23    1
    22    23    24    2
    23    23    25    1
    24    21    22   ar
    25    10    11    1
    26    11    12    1
    27    11    13    1
    28     4     5   ar
    29     5     6   ar
    30    33    34   ar
    31    34    35   ar
    32    35    36   ar
    33    36    37   ar
    34    37    38   ar
    35    38    41    1
    36    41    42   ar
    37    42    43   ar
    38    43    44   ar
    39    44    45   ar
    40    45    46   ar
    41    38    39   ar
    42    39    40   ar
    43    40    32   ar
    44     6     1   ar
    45    40    35   ar
    46    13     7    1
    47    46    41   ar
    48    22    17   ar
    49    29    30    1
    50    25    26    1
    51    12    14    1
@<TRIPOS>MOLECULE
*****
 46 51 0 0 0
SMALL
GASTEIGER

@<TRIPOS>ATOM
      1 C          11.7637   80.6578   24.7981 C.ar    1  UNL1        0.0702
      2 C          13.1557   80.6109   24.9670 C.ar    1  UNL1        0.0191
      3 C          13.9013   81.7909   24.9838 C.ar    1  UNL1        0.0356
      4 C          13.2501   83.0302   24.8426 C.ar    1  UNL1        0.1318
      5 N          11.8948   83.0451   24.6991 N.ar    1  UNL1       -0.2279
      6 C          11.1489   81.9096   24.6798 C.ar    1  UNL1        0.1149
      7 N          13.9853   84.2770   24.8664 N.pl3   1  UNL1       -0.2924
      8 C          14.1835   85.0106   26.1292 C.3     1  UNL1        0.0923
      9 C          14.6915   86.4398   25.8874 C.3     1  UNL1        0.0261
     10 C          13.8956   87.1015   24.7467 C.3     1  UNL1        0.0568
     11 C          14.0065   86.2889   23.4167 C.3     1  UNL1        0.0672
     12 S          12.3934   86.2465   22.5523 S.3     1  UNL1       -0.1670
     13 C          14.5272   84.8528   23.6256 C.3     1  UNL1        0.1027
     14 H          11.7502   85.5193   23.5725 H       1  UNL1        0.1023
     15 C          14.3565   88.5614   24.5587 C.3     1  UNL1        0.2062
     16 O          13.3636   89.4807   25.0171 O.3     1  UNL1       -0.4754
     17 C          12.7226   89.4361   26.2661 C.ar    1  UNL1        0.1388
     18 C          11.3227   89.4684   26.4055 C.ar    1  UNL1        0.0369
     19 C          10.7431   89.4250   27.6746 C.ar    1  UNL1        0.0033
     20 C          11.5460   89.3512   28.8148 C.ar    1  UNL1        0.0066
     21 C          12.9466   89.3224   28.6971 C.ar    1  UNL1        0.0785
     22 C          13.5215   89.3535   27.4132 C.ar    1  UNL1        0.0433
     23 C          13.8161   89.2384   29.8961 C.2     1  UNL1        0.3381
     24 O          13.3122   88.9521   31.0147 O.2     1  UNL1       -0.2451
     25 O          15.1920   89.4535   29.8226 O.3     1  UNL1       -0.4771
     26 H          15.6777   89.5850   28.9451 H       1  UNL1        0.2954
     27 C          11.1583   78.3716   25.7092 C.2     1  UNL1        0.2839
     28 O          12.2968   78.1673   26.2100 O.2     1  UNL1       -0.2665
     29 N          10.9597   79.4657   24.8015 N.am    1  UNL1       -0.2766
     30 H          10.2630   79.3404   24.0334 H       1  UNL1        0.1553
     31 C           9.7345   77.8435   28.5648 C.3     1  UNL1        0.0345
     32 C           9.4480   77.1979   27.2426 C.ar    1  UNL1        0.0202
     33 C          10.0716   77.4225   26.0088 C.ar    1  UNL1        0.1946
     34 O           9.5514   76.6291   25.0888 O.2     1  UNL1       -0.4492
     35 C           8.6080   75.9182   25.6566 C.ar    1  UNL1        0.1452
     36 C           7.7935   74.9628   25.0587 C.ar    1  UNL1        0.0375
     37 C           6.8350   74.3181   25.8601 C.ar    1  UNL1        0.0031
     38 C           6.7055   74.6357   27.2394 C.ar    1  UNL1        0.0002
     39 C           7.5565   75.6134   27.8087 C.ar    1  UNL1        0.0028
     40 C           8.4960   76.2322   26.9836 C.ar    1  UNL1        0.0337
     41 C           5.6887   73.9491   28.0760 C.ar    1  UNL1        0.0000
     42 C           5.0611   74.6258   29.1392 C.ar    1  UNL1        0.0000
     43 C           4.1048   73.9764   29.9259 C.ar    1  UNL1        0.0000
     44 C           3.7639   72.6482   29.6612 C.ar    1  UNL1        0.0000
     45 C           4.3791   71.9660   28.6092 C.ar    1  UNL1        0.0000
     46 C           5.3368   72.6101   27.8198 C.ar    1  UNL1        0.0000
@<TRIPOS>BOND
     1    31    32    1
     2    32    33   ar
     3    33    27    1
     4    27    28    2
     5    27    29   am
     6    29     1    1
     7     1     2   ar
     8     2     3   ar
     9     3     4   ar
    10     4     7    1
    11     7     8    1
    12     8     9    1
    13     9    10    1
    14    10    15    1
    15    15    16    1
    16    16    17    1
    17    17    18   ar
    18    18    19   ar
    19    19    20   ar
    20    20    21   ar
    21    21    23    1
    22    23    24    2
    23    23    25    1
    24    21    22   ar
    25    10    11    1
    26    11    12    1
    27    11    13    1
    28     4     5   ar
    29     5     6   ar
    30    33    34   ar
    31    34    35   ar
    32    35    36   ar
    33    36    37   ar
    34    37    38   ar
    35    38    41    1
    36    41    42   ar
    37    42    43   ar
    38    43    44   ar
    39    44    45   ar
    40    45    46   ar
    41    38    39   ar
    42    39    40   ar
    43    40    32   ar
    44     6     1   ar
    45    40    35   ar
    46    13     7    1
    47    46    41   ar
    48    22    17   ar
    49    29    30    1
    50    25    26    1
    51    12    14    1
@<TRIPOS>MOLECULE
*****
 46 51 0 0 0
SMALL
GASTEIGER

@<TRIPOS>ATOM
      1 C          12.2857   81.2758   24.8511 C.ar    1  UNL1        0.0702
      2 C          13.3836   81.3820   25.7181 C.ar    1  UNL1        0.0191
      3 C          14.0632   82.5946   25.8454 C.ar    1  UNL1        0.0356
      4 C          13.6357   83.7151   25.1094 C.ar    1  UNL1        0.1318
      5 N          12.5545   83.5863   24.2896 N.ar    1  UNL1       -0.2279
      6 C          11.8779   82.4163   24.1499 C.ar    1  UNL1        0.1149
      7 N          14.3058   84.9934   25.2218 N.pl3   1  UNL1       -0.2924
      8 C          14.3281   85.7221   26.5027 C.3     1  UNL1        0.0923
      9 C          14.7939   87.1751   26.3267 C.3     1  UNL1        0.0261
     10 C          14.1007   87.8121   25.1076 C.3     1  UNL1        0.0568
     11 C          14.3964   87.0190   23.7942 C.3     1  UNL1        0.0672
     12 S          12.8934   86.9131   22.7545 S.3     1  UNL1       -0.1670
     13 C          14.9558   85.6057   24.0525 C.3     1  UNL1        0.1027
     14 H          12.1744   86.1472   23.6925 H       1  UNL1        0.1023
     15 C          14.5123   89.2931   24.9799 C.3     1  UNL1        0.2062
     16 O          15.8350   89.5072   25.4757 O.3     1  UNL1       -0.4754
     17 C          17.0136   89.4447   24.7141 C.ar    1  UNL1        0.1388
     18 C          18.2945   89.3995   25.2952 C.ar    1  UNL1        0.0369
     19 C          19.4301   89.3419   24.4856 C.ar    1  UNL1        0.0033
     20 C          19.3053   89.3305   23.0948 C.ar    1  UNL1        0.0066
     21 C          18.0349   89.3796   22.4947 C.ar    1  UNL1        0.0785
     22 C          16.8953   89.4244   23.3190 C.ar    1  UNL1        0.0433
     23 C          17.8816   89.3627   21.0194 C.2     1  UNL1        0.3381
     24 O          16.7363   89.2305   20.5114 O.2     1  UNL1       -0.2451
     25 O          18.9748   89.5055   20.1653 O.3     1  UNL1       -0.4771
     26 H          19.9052   89.7180   20.5006 H       1  UNL1        0.2954
     27 C          10.4166   79.7042   25.5295 C.2     1  UNL1        0.2839
     28 O          10.3043   80.1888   26.6876 O.2     1  UNL1       -0.2665
     29 N          11.5453   80.0509   24.7132 N.am    1  UNL1       -0.2766
     30 H          11.9125   79.3256   24.0573 H       1  UNL1        0.1553
     31 C           9.3290   79.2544   22.5169 C.3     1  UNL1        0.0345
     32 C           8.9519   78.5192   23.7676 C.ar    1  UNL1        0.0202
     33 C           9.4183   78.7214   25.0726 C.ar    1  UNL1        0.1946
     34 O           8.8157   77.8872   25.9019 O.2     1  UNL1       -0.4492
     35 C           7.9997   77.1400   25.1994 C.ar    1  UNL1        0.1452
     36 C           7.1728   76.1231   25.6640 C.ar    1  UNL1        0.0375
     37 C           6.3760   75.4409   24.7279 C.ar    1  UNL1        0.0031
     38 C           6.4169   75.7833   23.3490 C.ar    1  UNL1        0.0002
     39 C           7.2717   76.8265   22.9186 C.ar    1  UNL1        0.0028
     40 C           8.0475   77.4816   23.8753 C.ar    1  UNL1        0.0337
     41 C           5.5718   75.0550   22.3689 C.ar    1  UNL1        0.0000
     42 C           4.2220   75.4101   22.1844 C.ar    1  UNL1        0.0000
     43 C           3.4283   74.7218   21.2616 C.ar    1  UNL1        0.0000
     44 C           3.9709   73.6747   20.5137 C.ar    1  UNL1        0.0000
     45 C           5.3087   73.3129   20.6873 C.ar    1  UNL1        0.0000
     46 C           6.1067   73.9971   21.6093 C.ar    1  UNL1        0.0000
@<TRIPOS>BOND
     1    31    32    1
     2    32    33   ar
     3    33    27    1
     4    27    28    2
     5    27    29   am
     6    29     1    1
     7     1     2   ar
     8     2     3   ar
     9     3     4   ar
    10     4     7    1
    11     7     8    1
    12     8     9    1
    13     9    10    1
    14    10    15    1
    15    15    16    1
    16    16    17    1
    17    17    18   ar
    18    18    19   ar
    19    19    20   ar
    20    20    21   ar
    21    21    23    1
    22    23    24    2
    23    23    25    1
    24    21    22   ar
    25    10    11    1
    26    11    12    1
    27    11    13    1
    28     4     5   ar
    29     5     6   ar
    30    33    34   ar
    31    34    35   ar
    32    35    36   ar
    33    36    37   ar
    34    37    38   ar
    35    38    41    1
    36    41    42   ar
    37    42    43   ar
    38    43    44   ar
    39    44    45   ar
    40    45    46   ar
    41    38    39   ar
    42    39    40   ar
    43    40    32   ar
    44     6     1   ar
    45    40    35   ar
    46    13     7    1
    47    46    41   ar
    48    22    17   ar
    49    29    30    1
    50    25    26    1
    51    12    14    1
@<TRIPOS>MOLECULE
*****
 46 51 0 0 0
SMALL
GASTEIGER

@<TRIPOS>ATOM
      1 C           9.9241   79.1556   24.7232 C.ar    1  UNL1        0.0702
      2 C           9.2495   78.3283   25.6337 C.ar    1  UNL1        0.0191
      3 C           8.5765   77.1912   25.1839 C.ar    1  UNL1        0.0356
      4 C           8.5868   76.8700   23.8140 C.ar    1  UNL1        0.1318
      5 N           9.2666   77.6822   22.9562 N.ar    1  UNL1       -0.2279
      6 C           9.9284   78.7939   23.3712 C.ar    1  UNL1        0.1149
      7 N           7.9113   75.6935   23.3087 N.pl3   1  UNL1       -0.2924
      8 C           8.4486   74.9550   22.1519 C.3     1  UNL1        0.0923
      9 C           7.4274   73.9576   21.5849 C.3     1  UNL1        0.0261
     10 C           6.0398   74.6182   21.4807 C.3     1  UNL1        0.0568
     11 C           5.5368   75.1296   22.8689 C.3     1  UNL1        0.0672
     12 S           4.7065   76.7517   22.6946 S.3     1  UNL1       -0.1670
     13 C           6.6586   75.2255   23.9223 C.3     1  UNL1        0.1027
     14 H           5.8720   77.4175   22.2685 H       1  UNL1        0.1023
     15 C           5.0352   73.6389   20.8399 C.3     1  UNL1        0.2062
     16 O           4.7743   73.9826   19.4779 O.3     1  UNL1       -0.4754
     17 C           4.1968   75.1836   19.0340 C.ar    1  UNL1        0.1388
     18 C           2.8438   75.2860   18.6610 C.ar    1  UNL1        0.0369
     19 C           2.3274   76.5069   18.2238 C.ar    1  UNL1        0.0033
     20 C           3.1479   77.6346   18.1513 C.ar    1  UNL1        0.0066
     21 C           4.5032   77.5521   18.5152 C.ar    1  UNL1        0.0785
     22 C           5.0118   76.3203   18.9669 C.ar    1  UNL1        0.0433
     23 C           5.3892   78.7401   18.4502 C.2     1  UNL1        0.3381
     24 O           6.5301   78.6988   18.9831 O.2     1  UNL1       -0.2451
     25 O           5.0026   79.9104   17.7977 O.3     1  UNL1       -0.4771
     26 H           4.1475   79.9793   17.2617 H       1  UNL1        0.2954
     27 C          12.0530   80.5164   24.9225 C.2     1  UNL1        0.2839
     28 O          12.8127   79.5209   24.7786 O.2     1  UNL1       -0.2665
     29 N          10.6497   80.3206   25.1523 N.am    1  UNL1       -0.2766
     30 H          10.1546   81.0127   25.7579 H       1  UNL1        0.1553
     31 C          12.9718   82.2459   27.4964 C.3     1  UNL1        0.0345
     32 C          13.0527   82.6127   26.0451 C.ar    1  UNL1        0.0202
     33 C          12.6464   81.8651   24.9326 C.ar    1  UNL1        0.1946
     34 O          12.8574   82.5537   23.8245 O.2     1  UNL1       -0.4492
     35 C          13.3997   83.6990   24.1588 C.ar    1  UNL1        0.1452
     36 C          13.7953   84.7270   23.3101 C.ar    1  UNL1        0.0375
     37 C          14.3642   85.8764   23.8862 C.ar    1  UNL1        0.0031
     38 C          14.5283   85.9809   25.2942 C.ar    1  UNL1        0.0002
     39 C          14.1101   84.9115   26.1223 C.ar    1  UNL1        0.0028
     40 C          13.5496   83.7870   25.5160 C.ar    1  UNL1        0.0337
     41 C          15.1316   87.1992   25.8917 C.ar    1  UNL1        0.0000
     42 C          14.8854   87.5340   27.2369 C.ar    1  UNL1        0.0000
     43 C          15.4539   88.6824   27.7964 C.ar    1  UNL1        0.0000
     44 C          16.2731   89.5074   27.0226 C.ar    1  UNL1        0.0000
     45 C          16.5253   89.1860   25.6871 C.ar    1  UNL1        0.0000
     46 C          15.9586   88.0394   25.1220 C.ar    1  UNL1        0.0000
@<TRIPOS>BOND
     1    31    32    1
     2    32    33   ar
     3    33    27    1
     4    27    28    2
     5    27    29   am
     6    29     1    1
     7     1     2   ar
     8     2     3   ar
     9     3     4   ar
    10     4     7    1
    11     7     8    1
    12     8     9    1
    13     9    10    1
    14    10    15    1
    15    15    16    1
    16    16    17    1
    17    17    18   ar
    18    18    19   ar
    19    19    20   ar
    20    20    21   ar
    21    21    23    1
    22    23    24    2
    23    23    25    1
    24    21    22   ar
    25    10    11    1
    26    11    12    1
    27    11    13    1
    28     4     5   ar
    29     5     6   ar
    30    33    34   ar
    31    34    35   ar
    32    35    36   ar
    33    36    37   ar
    34    37    38   ar
    35    38    41    1
    36    41    42   ar
    37    42    43   ar
    38    43    44   ar
    39    44    45   ar
    40    45    46   ar
    41    38    39   ar
    42    39    40   ar
    43    40    32   ar
    44     6     1   ar
    45    40    35   ar
    46    13     7    1
    47    46    41   ar
    48    22    17   ar
    49    29    30    1
    50    25    26    1
    51    12    14    1
