@<TRIPOS>MOLECULE
*****
 45 50 0 0 0
SMALL
GASTEIGER

@<TRIPOS>ATOM
      1 C          59.1328   84.2394    9.7234 C.ar    1  UNL1        0.0702
      2 C          58.4096   84.1988   10.9258 C.ar    1  UNL1        0.0191
      3 C          58.2644   82.9946   11.6161 C.ar    1  UNL1        0.0356
      4 C          58.8292   81.8226   11.0904 C.ar    1  UNL1        0.1318
      5 N          59.5167   81.8843    9.9160 N.ar    1  UNL1       -0.2279
      6 C          59.6694   83.0453    9.2262 C.ar    1  UNL1        0.1149
      7 N          58.7195   80.5681   11.7883 N.pl3   1  UNL1       -0.2932
      8 C          58.6173   80.5564   13.2582 C.3     1  UNL1        0.0923
      9 C          58.7726   79.1375   13.8313 C.3     1  UNL1        0.0252
     10 C          59.7271   78.2852   12.9756 C.3     1  UNL1        0.0472
     11 C          59.1392   78.1145   11.5553 C.3     1  UNL1        0.0252
     12 C          58.3895   79.3557   11.0266 C.3     1  UNL1        0.0923
     13 C          61.1621   78.8650   12.9920 C.3     1  UNL1        0.2054
     14 O          61.5169   79.4301   11.7276 O.3     1  UNL1       -0.4755
     15 C          62.4453   80.4644   11.5090 C.ar    1  UNL1        0.1388
     16 C          62.9396   80.8007   10.2322 C.ar    1  UNL1        0.0369
     17 C          63.8612   81.8390   10.0865 C.ar    1  UNL1        0.0033
     18 C          64.3007   82.5528   11.2026 C.ar    1  UNL1        0.0066
     19 C          63.8231   82.2310   12.4844 C.ar    1  UNL1        0.0785
     20 C          62.8961   81.1830   12.6239 C.ar    1  UNL1        0.0433
     21 C          64.2872   82.9811   13.6725 C.2     1  UNL1        0.3381
     22 O          63.4781   83.6753   14.3459 O.2     1  UNL1       -0.2451
     23 O          65.6241   82.9273   14.0588 O.3     1  UNL1       -0.4771
     24 H          65.9521   83.4370   14.8706 H       1  UNL1        0.2954
     25 C          58.3043   85.9623    8.0537 C.2     1  UNL1        0.2839
     26 O          57.1364   85.4880    8.0479 O.2     1  UNL1       -0.2665
     27 N          59.2861   85.4559    8.9724 N.am    1  UNL1       -0.2766
     28 H          60.1230   86.0495    9.1724 H       1  UNL1        0.1553
     29 C          61.1317   86.4613    6.6292 C.3     1  UNL1        0.0345
     30 C          59.8879   87.2910    6.5202 C.ar    1  UNL1        0.0202
     31 C          58.6547   87.0690    7.1433 C.ar    1  UNL1        0.1946
     32 O          57.7999   88.0179    6.8050 O.2     1  UNL1       -0.4492
     33 C          58.4148   88.8435    5.9939 C.ar    1  UNL1        0.1452
     34 C          57.8924   89.9850    5.3961 C.ar    1  UNL1        0.0375
     35 C          58.7336   90.7337    4.5550 C.ar    1  UNL1        0.0031
     36 C          60.0774   90.3328    4.3246 C.ar    1  UNL1        0.0002
     37 C          60.5700   89.1635    4.9525 C.ar    1  UNL1        0.0028
     38 C          59.7071   88.4444    5.7810 C.ar    1  UNL1        0.0337
     39 C          60.9568   91.1318    3.4340 C.ar    1  UNL1        0.0000
     40 C          60.4332   92.2009    2.6828 C.ar    1  UNL1        0.0004
     41 C          61.2634   92.9523    1.8457 C.ar    1  UNL1        0.0058
     42 C          62.6234   92.6463    1.7475 C.ar    1  UNL1        0.0301
     43 I          63.8727   93.7816    0.4832 I       1  UNL1       -0.0425
     44 C          63.1544   91.5870    2.4883 C.ar    1  UNL1        0.0058
     45 C          62.3283   90.8333    3.3274 C.ar    1  UNL1        0.0004
@<TRIPOS>BOND
     1    29    30    1
     2    30    31   ar
     3    31    25    1
     4    25    26    2
     5    25    27   am
     6    27     1    1
     7     1     2   ar
     8     2     3   ar
     9     3     4   ar
    10     4     7    1
    11     7     8    1
    12     8     9    1
    13     9    10    1
    14    10    13    1
    15    13    14    1
    16    14    15    1
    17    15    16   ar
    18    16    17   ar
    19    17    18   ar
    20    18    19   ar
    21    19    21    1
    22    21    22    2
    23    21    23    1
    24    19    20   ar
    25    10    11    1
    26    11    12    1
    27     4     5   ar
    28     5     6   ar
    29    31    32   ar
    30    32    33   ar
    31    33    34   ar
    32    34    35   ar
    33    35    36   ar
    34    36    39    1
    35    39    40   ar
    36    40    41   ar
    37    41    42   ar
    38    42    43    1
    39    42    44   ar
    40    44    45   ar
    41    36    37   ar
    42    37    38   ar
    43    38    30   ar
    44     6     1   ar
    45    38    33   ar
    46    12     7    1
    47    45    39   ar
    48    20    15   ar
    49    27    28    1
    50    23    24    1
@<TRIPOS>MOLECULE
*****
 45 50 0 0 0
SMALL
GASTEIGER

@<TRIPOS>ATOM
      1 C          59.5540   84.9030   10.3018 C.ar    1  UNL1        0.0702
      2 C          58.3841   84.3362   10.8312 C.ar    1  UNL1        0.0191
      3 C          58.4619   83.2240   11.6707 C.ar    1  UNL1        0.0356
      4 C          59.7147   82.6653   11.9657 C.ar    1  UNL1        0.1318
      5 N          60.8354   83.2254   11.4309 N.ar    1  UNL1       -0.2279
      6 C          60.7834   84.3074   10.6101 C.ar    1  UNL1        0.1149
      7 N          59.8335   81.5331   12.8471 N.pl3   1  UNL1       -0.2932
      8 C          61.1187   81.2574   13.5130 C.3     1  UNL1        0.0923
      9 C          61.1254   79.8789   14.1954 C.3     1  UNL1        0.0252
     10 C          60.2596   78.8648   13.4260 C.3     1  UNL1        0.0472
     11 C          58.7867   79.3368   13.4222 C.3     1  UNL1        0.0252
     12 C          58.6120   80.8668   13.3193 C.3     1  UNL1        0.0923
     13 C          60.8332   78.5968   12.0137 C.3     1  UNL1        0.2054
     14 O          59.7945   78.4275   11.0461 O.3     1  UNL1       -0.4755
     15 C          59.3253   79.4042   10.1488 C.ar    1  UNL1        0.1388
     16 C          57.9664   79.5420    9.7992 C.ar    1  UNL1        0.0369
     17 C          57.5690   80.5336    8.9006 C.ar    1  UNL1        0.0033
     18 C          58.5126   81.3965    8.3408 C.ar    1  UNL1        0.0066
     19 C          59.8725   81.2735    8.6732 C.ar    1  UNL1        0.0785
     20 C          60.2658   80.2716    9.5780 C.ar    1  UNL1        0.0433
     21 C          60.8789   82.1825    8.0811 C.2     1  UNL1        0.3381
     22 O          60.6266   82.8073    7.0153 O.2     1  UNL1       -0.2451
     23 O          62.1159   82.3568    8.6964 O.3     1  UNL1       -0.4771
     24 H          62.8119   82.9767    8.2993 H       1  UNL1        0.2954
     25 C          58.6376   86.1376    8.2822 C.2     1  UNL1        0.2839
     26 O          57.6731   85.3368    8.1510 O.2     1  UNL1       -0.2665
     27 N          59.5137   86.0352    9.4164 N.am    1  UNL1       -0.2766
     28 H          60.0949   86.8680    9.6641 H       1  UNL1        0.1553
     29 C          61.3134   86.7322    6.6212 C.3     1  UNL1        0.0345
     30 C          60.0118   87.4736    6.5641 C.ar    1  UNL1        0.0202
     31 C          58.8451   87.2100    7.2906 C.ar    1  UNL1        0.1946
     32 O          57.9057   88.0816    6.9691 O.2     1  UNL1       -0.4492
     33 C          58.4026   88.8965    6.0709 C.ar    1  UNL1        0.1452
     34 C          57.7619   89.9662    5.4555 C.ar    1  UNL1        0.0375
     35 C          58.4871   90.7171    4.5142 C.ar    1  UNL1        0.0031
     36 C          59.8345   90.3896    4.2031 C.ar    1  UNL1        0.0002
     37 C          60.4495   89.2922    4.8523 C.ar    1  UNL1        0.0028
     38 C          59.6999   88.5686    5.7811 C.ar    1  UNL1        0.0337
     39 C          60.5906   91.1902    3.2070 C.ar    1  UNL1        0.0000
     40 C          61.9777   91.0111    3.0489 C.ar    1  UNL1        0.0004
     41 C          62.6872   91.7656    2.1096 C.ar    1  UNL1        0.0058
     42 C          62.0227   92.7066    1.3186 C.ar    1  UNL1        0.0301
     43 I          63.0962   93.8432   -0.0969 I       1  UNL1       -0.0425
     44 C          60.6457   92.8932    1.4669 C.ar    1  UNL1        0.0058
     45 C          59.9318   92.1406    2.4042 C.ar    1  UNL1        0.0004
@<TRIPOS>BOND
     1    29    30    1
     2    30    31   ar
     3    31    25    1
     4    25    26    2
     5    25    27   am
     6    27     1    1
     7     1     2   ar
     8     2     3   ar
     9     3     4   ar
    10     4     7    1
    11     7     8    1
    12     8     9    1
    13     9    10    1
    14    10    13    1
    15    13    14    1
    16    14    15    1
    17    15    16   ar
    18    16    17   ar
    19    17    18   ar
    20    18    19   ar
    21    19    21    1
    22    21    22    2
    23    21    23    1
    24    19    20   ar
    25    10    11    1
    26    11    12    1
    27     4     5   ar
    28     5     6   ar
    29    31    32   ar
    30    32    33   ar
    31    33    34   ar
    32    34    35   ar
    33    35    36   ar
    34    36    39    1
    35    39    40   ar
    36    40    41   ar
    37    41    42   ar
    38    42    43    1
    39    42    44   ar
    40    44    45   ar
    41    36    37   ar
    42    37    38   ar
    43    38    30   ar
    44     6     1   ar
    45    38    33   ar
    46    12     7    1
    47    45    39   ar
    48    20    15   ar
    49    27    28    1
    50    23    24    1
@<TRIPOS>MOLECULE
*****
 45 50 0 0 0
SMALL
GASTEIGER

@<TRIPOS>ATOM
      1 C          59.7397   84.3674    9.4937 C.ar    1  UNL1        0.0702
      2 C          58.9199   84.2426   10.6263 C.ar    1  UNL1        0.0191
      3 C          58.8545   83.0298   11.3138 C.ar    1  UNL1        0.0356
      4 C          59.5980   81.9322   10.8543 C.ar    1  UNL1        0.1318
      5 N          60.3775   82.0739    9.7462 N.ar    1  UNL1       -0.2279
      6 C          60.4555   83.2445    9.0602 C.ar    1  UNL1        0.1149
      7 N          59.5728   80.6737   11.5532 N.pl3   1  UNL1       -0.2932
      8 C          58.6216   80.4719   12.6604 C.3     1  UNL1        0.0923
      9 C          58.9203   79.1820   13.4432 C.3     1  UNL1        0.0252
     10 C          60.4282   78.8735   13.4673 C.3     1  UNL1        0.0472
     11 C          60.9314   78.6288   12.0255 C.3     1  UNL1        0.0252
     12 C          60.2538   79.5152   10.9590 C.3     1  UNL1        0.0923
     13 C          61.2123   79.9723   14.2245 C.3     1  UNL1        0.2054
     14 O          62.0798   80.6983   13.3503 O.3     1  UNL1       -0.4755
     15 C          62.0871   82.0912   13.1527 C.ar    1  UNL1        0.1388
     16 C          62.7964   82.7190   12.1084 C.ar    1  UNL1        0.0369
     17 C          62.7611   84.1077   11.9705 C.ar    1  UNL1        0.0033
     18 C          62.0239   84.8861   12.8644 C.ar    1  UNL1        0.0066
     19 C          61.3130   84.2803   13.9144 C.ar    1  UNL1        0.0785
     20 C          61.3541   82.8811   14.0481 C.ar    1  UNL1        0.0433
     21 C          60.5322   85.0994   14.8678 C.2     1  UNL1        0.3381
     22 O          59.8721   86.0947   14.4634 O.2     1  UNL1       -0.2451
     23 O          60.5190   84.7782   16.2227 O.3     1  UNL1       -0.4771
     24 H          59.9878   85.3324   16.8838 H       1  UNL1        0.2954
     25 C          58.7148   86.1651    8.0238 C.2     1  UNL1        0.2839
     26 O          57.5425   85.7443    8.2176 O.2     1  UNL1       -0.2665
     27 N          59.8173   85.5933    8.7462 N.am    1  UNL1       -0.2766
     28 H          60.7042   86.1436    8.8041 H       1  UNL1        0.1553
     29 C          61.2243   86.5228    6.0624 C.3     1  UNL1        0.0345
     30 C          60.0473   87.4366    6.2258 C.ar    1  UNL1        0.0202
     31 C          58.9528   87.2762    7.0830 C.ar    1  UNL1        0.1946
     32 O          58.1179   88.2908    6.9448 O.2     1  UNL1       -0.4492
     33 C          58.6140   89.1007    6.0416 C.ar    1  UNL1        0.1452
     34 C          58.0651   90.2940    5.5855 C.ar    1  UNL1        0.0375
     35 C          58.7706   91.0131    4.6052 C.ar    1  UNL1        0.0031
     36 C          60.0076   90.5315    4.0977 C.ar    1  UNL1        0.0002
     37 C          60.5314   89.3115    4.5889 C.ar    1  UNL1        0.0028
     38 C          59.8043   88.6238    5.5617 C.ar    1  UNL1        0.0337
     39 C          60.7441   91.2999    3.0623 C.ar    1  UNL1        0.0000
     40 C          62.1351   91.1465    2.9113 C.ar    1  UNL1        0.0004
     41 C          62.8260   91.8705    1.9350 C.ar    1  UNL1        0.0058
     42 C          62.1390   92.7552    1.0995 C.ar    1  UNL1        0.0301
     43 I          63.1846   93.8460   -0.3718 I       1  UNL1       -0.0425
     44 C          60.7579   92.9160    1.2403 C.ar    1  UNL1        0.0058
     45 C          60.0625   92.1936    2.2146 C.ar    1  UNL1        0.0004
@<TRIPOS>BOND
     1    29    30    1
     2    30    31   ar
     3    31    25    1
     4    25    26    2
     5    25    27   am
     6    27     1    1
     7     1     2   ar
     8     2     3   ar
     9     3     4   ar
    10     4     7    1
    11     7     8    1
    12     8     9    1
    13     9    10    1
    14    10    13    1
    15    13    14    1
    16    14    15    1
    17    15    16   ar
    18    16    17   ar
    19    17    18   ar
    20    18    19   ar
    21    19    21    1
    22    21    22    2
    23    21    23    1
    24    19    20   ar
    25    10    11    1
    26    11    12    1
    27     4     5   ar
    28     5     6   ar
    29    31    32   ar
    30    32    33   ar
    31    33    34   ar
    32    34    35   ar
    33    35    36   ar
    34    36    39    1
    35    39    40   ar
    36    40    41   ar
    37    41    42   ar
    38    42    43    1
    39    42    44   ar
    40    44    45   ar
    41    36    37   ar
    42    37    38   ar
    43    38    30   ar
    44     6     1   ar
    45    38    33   ar
    46    12     7    1
    47    45    39   ar
    48    20    15   ar
    49    27    28    1
    50    23    24    1
@<TRIPOS>MOLECULE
*****
 45 50 0 0 0
SMALL
GASTEIGER

@<TRIPOS>ATOM
      1 C          61.0457   84.0727   13.0780 C.ar    1  UNL1        0.0702
      2 C          59.8162   84.0989   12.4014 C.ar    1  UNL1        0.0191
      3 C          59.1152   82.9135   12.1753 C.ar    1  UNL1        0.0356
      4 C          59.6569   81.6947   12.6113 C.ar    1  UNL1        0.1318
      5 N          60.8571   81.6928   13.2554 N.ar    1  UNL1       -0.2279
      6 C          61.5577   82.8345   13.4852 C.ar    1  UNL1        0.1149
      7 N          58.9494   80.4560   12.4162 N.pl3   1  UNL1       -0.2932
      8 C          59.0423   79.3937   13.4331 C.3     1  UNL1        0.0923
      9 C          58.4437   78.0683   12.9322 C.3     1  UNL1        0.0252
     10 C          58.6392   77.8992   11.4147 C.3     1  UNL1        0.0472
     11 C          57.8855   79.0230   10.6655 C.3     1  UNL1        0.0252
     12 C          57.9036   80.3876   11.3863 C.3     1  UNL1        0.0923
     13 C          60.1405   77.8041   11.0509 C.3     1  UNL1        0.2054
     14 O          60.4407   78.5299    9.8563 O.3     1  UNL1       -0.4755
     15 C          61.0024   79.8177    9.7835 C.ar    1  UNL1        0.1388
     16 C          60.4592   80.8533    8.9959 C.ar    1  UNL1        0.0369
     17 C          61.0685   82.1089    8.9688 C.ar    1  UNL1        0.0033
     18 C          62.2197   82.3500    9.7205 C.ar    1  UNL1        0.0066
     19 C          62.7792   81.3302   10.5090 C.ar    1  UNL1        0.0785
     20 C          62.1610   80.0674   10.5305 C.ar    1  UNL1        0.0433
     21 C          64.0014   81.5774   11.3057 C.2     1  UNL1        0.3381
     22 O          64.1147   81.0987   12.4668 O.2     1  UNL1       -0.2451
     23 O          65.0396   82.3422   10.7799 O.3     1  UNL1       -0.4771
     24 H          65.8805   82.5174   11.3170 H       1  UNL1        0.2954
     25 C          61.8054   86.4073   12.4335 C.2     1  UNL1        0.2839
     26 O          60.9302   86.5119   11.5325 O.2     1  UNL1       -0.2665
     27 N          61.8078   85.2695   13.3110 N.am    1  UNL1       -0.2766
     28 H          62.3256   85.3488   14.2156 H       1  UNL1        0.1553
     29 C          63.8558   86.7269   14.8761 C.3     1  UNL1        0.0345
     30 C          63.7028   87.6191   13.6812 C.ar    1  UNL1        0.0202
     31 C          62.8065   87.4754   12.6161 C.ar    1  UNL1        0.1946
     32 O          62.9696   88.4614   11.7519 O.2     1  UNL1       -0.4492
     33 C          63.9260   89.2368   12.2010 C.ar    1  UNL1        0.1452
     34 C          64.4238   90.3922   11.6090 C.ar    1  UNL1        0.0375
     35 C          65.4589   91.0781   12.2677 C.ar    1  UNL1        0.0031
     36 C          65.9786   90.6019   13.5016 C.ar    1  UNL1        0.0002
     37 C          65.4438   89.4209   14.0703 C.ar    1  UNL1        0.0028
     38 C          64.4170   88.7654   13.3890 C.ar    1  UNL1        0.0337
     39 C          67.0722   91.3351   14.1883 C.ar    1  UNL1        0.0000
     40 C          66.7989   92.5046   14.9224 C.ar    1  UNL1        0.0004
     41 C          67.8302   93.1926   15.5688 C.ar    1  UNL1        0.0058
     42 C          69.1442   92.7235   15.4901 C.ar    1  UNL1        0.0301
     43 I          70.6974   93.7644   16.4660 I       1  UNL1       -0.0425
     44 C          69.4275   91.5637   14.7639 C.ar    1  UNL1        0.0058
     45 C          68.3995   90.8718   14.1165 C.ar    1  UNL1        0.0004
@<TRIPOS>BOND
     1    29    30    1
     2    30    31   ar
     3    31    25    1
     4    25    26    2
     5    25    27   am
     6    27     1    1
     7     1     2   ar
     8     2     3   ar
     9     3     4   ar
    10     4     7    1
    11     7     8    1
    12     8     9    1
    13     9    10    1
    14    10    13    1
    15    13    14    1
    16    14    15    1
    17    15    16   ar
    18    16    17   ar
    19    17    18   ar
    20    18    19   ar
    21    19    21    1
    22    21    22    2
    23    21    23    1
    24    19    20   ar
    25    10    11    1
    26    11    12    1
    27     4     5   ar
    28     5     6   ar
    29    31    32   ar
    30    32    33   ar
    31    33    34   ar
    32    34    35   ar
    33    35    36   ar
    34    36    39    1
    35    39    40   ar
    36    40    41   ar
    37    41    42   ar
    38    42    43    1
    39    42    44   ar
    40    44    45   ar
    41    36    37   ar
    42    37    38   ar
    43    38    30   ar
    44     6     1   ar
    45    38    33   ar
    46    12     7    1
    47    45    39   ar
    48    20    15   ar
    49    27    28    1
    50    23    24    1
@<TRIPOS>MOLECULE
*****
 45 50 0 0 0
SMALL
GASTEIGER

@<TRIPOS>ATOM
      1 C          60.0700   85.7226   10.4273 C.ar    1  UNL1        0.0702
      2 C          59.0724   84.8056   10.7937 C.ar    1  UNL1        0.0191
      3 C          59.3483   83.8058   11.7275 C.ar    1  UNL1        0.0356
      4 C          60.6337   83.7118   12.2822 C.ar    1  UNL1        0.1318
      5 N          61.5889   84.6057   11.9027 N.ar    1  UNL1       -0.2279
      6 C          61.3433   85.5863   10.9942 C.ar    1  UNL1        0.1149
      7 N          60.9460   82.7081   13.2661 N.pl3   1  UNL1       -0.2932
      8 C          61.8020   83.0526   14.4149 C.3     1  UNL1        0.0923
      9 C          62.2328   81.8034   15.2022 C.3     1  UNL1        0.0252
     10 C          62.3919   80.5820   14.2789 C.3     1  UNL1        0.0472
     11 C          61.0287   80.2368   13.6349 C.3     1  UNL1        0.0252
     12 C          60.1614   81.4660   13.2902 C.3     1  UNL1        0.0923
     13 C          63.5299   80.8004   13.2528 C.3     1  UNL1        0.2054
     14 O          63.1021   80.5072   11.9206 O.3     1  UNL1       -0.4755
     15 C          63.0061   81.4225   10.8565 C.ar    1  UNL1        0.1388
     16 C          64.0357   82.3248   10.5193 C.ar    1  UNL1        0.0369
     17 C          63.8740   83.2079    9.4504 C.ar    1  UNL1        0.0033
     18 C          62.6928   83.2054    8.7067 C.ar    1  UNL1        0.0066
     19 C          61.6529   82.3167    9.0288 C.ar    1  UNL1        0.0785
     20 C          61.8221   81.4308   10.1076 C.ar    1  UNL1        0.0433
     21 C          60.3965   82.3108    8.2471 C.2     1  UNL1        0.3381
     22 O          59.6931   81.2666    8.1764 O.2     1  UNL1       -0.2451
     23 O          59.9784   83.4601    7.5812 O.3     1  UNL1       -0.4771
     24 H          59.1200   83.4667    7.0433 H       1  UNL1        0.2954
     25 C          59.0660   86.5613    8.2521 C.2     1  UNL1        0.2839
     26 O          58.3478   85.5346    8.1141 O.2     1  UNL1       -0.2665
     27 N          59.8310   86.7529    9.4532 N.am    1  UNL1       -0.2766
     28 H          60.1609   87.7195    9.6758 H       1  UNL1        0.1553
     29 C          61.3742   87.0352    6.0795 C.3     1  UNL1        0.0345
     30 C          60.0967   87.8016    6.2460 C.ar    1  UNL1        0.0202
     31 C          59.0907   87.5908    7.1958 C.ar    1  UNL1        0.1946
     32 O          58.1187   88.4696    7.0274 O.2     1  UNL1       -0.4492
     33 C          58.4418   89.2392    6.0169 C.ar    1  UNL1        0.1452
     34 C          57.7081   90.2983    5.4943 C.ar    1  UNL1        0.0375
     35 C          58.2458   90.9974    4.3998 C.ar    1  UNL1        0.0031
     36 C          59.5020   90.6296    3.8464 C.ar    1  UNL1        0.0002
     37 C          60.2168   89.5444    4.4083 C.ar    1  UNL1        0.0028
     38 C          59.6530   88.8728    5.4941 C.ar    1  UNL1        0.0337
     39 C          60.0600   91.3756    2.6901 C.ar    1  UNL1        0.0000
     40 C          61.4134   91.7621    2.6735 C.ar    1  UNL1        0.0004
     41 C          61.9367   92.4636    1.5831 C.ar    1  UNL1        0.0058
     42 C          61.1173   92.7881    0.4986 C.ar    1  UNL1        0.0301
     43 I          61.9099   93.8469   -1.1442 I       1  UNL1       -0.0425
     44 C          59.7721   92.4098    0.5041 C.ar    1  UNL1        0.0058
     45 C          59.2445   91.7074    1.5918 C.ar    1  UNL1        0.0004
@<TRIPOS>BOND
     1    29    30    1
     2    30    31   ar
     3    31    25    1
     4    25    26    2
     5    25    27   am
     6    27     1    1
     7     1     2   ar
     8     2     3   ar
     9     3     4   ar
    10     4     7    1
    11     7     8    1
    12     8     9    1
    13     9    10    1
    14    10    13    1
    15    13    14    1
    16    14    15    1
    17    15    16   ar
    18    16    17   ar
    19    17    18   ar
    20    18    19   ar
    21    19    21    1
    22    21    22    2
    23    21    23    1
    24    19    20   ar
    25    10    11    1
    26    11    12    1
    27     4     5   ar
    28     5     6   ar
    29    31    32   ar
    30    32    33   ar
    31    33    34   ar
    32    34    35   ar
    33    35    36   ar
    34    36    39    1
    35    39    40   ar
    36    40    41   ar
    37    41    42   ar
    38    42    43    1
    39    42    44   ar
    40    44    45   ar
    41    36    37   ar
    42    37    38   ar
    43    38    30   ar
    44     6     1   ar
    45    38    33   ar
    46    12     7    1
    47    45    39   ar
    48    20    15   ar
    49    27    28    1
    50    23    24    1
