@<TRIPOS>MOLECULE
*****
 34 39 0 0 0
SMALL
GASTEIGER

@<TRIPOS>ATOM
      1 C          46.5407   11.4754  -27.8789 C.ar    1  UNL1        0.1095
      2 N          46.8852   10.2380  -28.3181 N.ar    1  UNL1       -0.1677
      3 N          46.8742   10.2535  -29.6459 N.ar    1  UNL1       -0.2319
      4 C          47.1159    9.0858  -30.4825 C.3     1  UNL1        0.1554
      5 C          46.5022   11.4767  -30.0530 C.ar    1  UNL1        0.1654
      6 N          46.3071   11.8897  -31.3284 N.ar    1  UNL1       -0.2050
      7 C          45.9165   13.1821  -31.5329 C.ar    1  UNL1        0.2014
      8 N          45.7575   14.0362  -30.4732 N.ar    1  UNL1       -0.2089
      9 C          45.9536   13.6263  -29.1838 C.ar    1  UNL1        0.1379
     10 C          46.3058   12.2900  -28.9798 C.ar    1  UNL1        0.0865
     11 C          47.2673   11.8785  -25.4561 C.ar    1  UNL1        0.0809
     12 C          46.3190   11.7856  -26.4592 C.ar    1  UNL1        0.0577
     13 C          45.1021   11.9102  -25.8156 C.ar    1  UNL1        0.1231
     14 N          45.3122   12.0967  -24.4978 N.ar    1  UNL1       -0.1676
     15 N          46.6200   12.0895  -24.2879 N.ar    1  UNL1       -0.2488
     16 C          47.2131   12.2813  -22.9684 C.3     1  UNL1        0.1537
     17 C          53.0144   11.6872  -26.1589 C.3     1  UNL1        0.0310
     18 C          51.5236   11.7441  -26.0049 C.ar    1  UNL1       -0.0218
     19 C          50.7415   10.6099  -26.2697 C.ar    1  UNL1       -0.0042
     20 C          49.3554   10.6516  -26.0928 C.ar    1  UNL1        0.0012
     21 C          48.7349   11.8228  -25.6324 C.ar    1  UNL1        0.0174
     22 C          49.5200   12.9533  -25.3554 C.ar    1  UNL1        0.0012
     23 C          50.9057   12.9116  -25.5329 C.ar    1  UNL1       -0.0042
     24 N          45.9144   14.5814  -28.1172 N.pl3   1  UNL1       -0.2917
     25 C          45.2055   15.8428  -28.2418 C.3     1  UNL1        0.0937
     26 C          45.6339   16.6830  -27.0445 C.3     1  UNL1        0.0391
     27 C          46.8946   16.0119  -26.4746 C.3     1  UNL1        0.0790
     28 C          46.9102   14.5881  -27.0568 C.3     1  UNL1        0.1081
     29 N          48.1204   16.8094  -26.7560 N.3     1  UNL1       -0.2723
     30 C          49.3676   16.2750  -26.1588 C.3     1  UNL1        0.0721
     31 C          50.5786   17.0424  -26.6986 C.3     1  UNL1        0.0174
     32 C          50.4360   18.5399  -26.4135 C.3     1  UNL1        0.0029
     33 C          49.1028   19.0675  -26.9505 C.3     1  UNL1        0.0174
     34 C          47.9357   18.2347  -26.4097 C.3     1  UNL1        0.0721
@<TRIPOS>BOND
     1    17    18    1
     2    18    19   ar
     3    19    20   ar
     4    20    21   ar
     5    21    11    1
     6    11    12   ar
     7    12     1    1
     8     1     2   ar
     9     2     3   ar
    10     3     4    1
    11     3     5   ar
    12     5     6   ar
    13     6     7   ar
    14     7     8   ar
    15     8     9   ar
    16     9    24    1
    17    24    25    1
    18    25    26    1
    19    26    27    1
    20    27    29    1
    21    29    30    1
    22    30    31    1
    23    31    32    1
    24    32    33    1
    25    33    34    1
    26    27    28    1
    27     9    10   ar
    28    12    13   ar
    29    13    14   ar
    30    14    15   ar
    31    15    16    1
    32    21    22   ar
    33    22    23   ar
    34    23    18   ar
    35    15    11   ar
    36    10     1   ar
    37    10     5   ar
    38    28    24    1
    39    34    29    1
@<TRIPOS>MOLECULE
*****
 34 39 0 0 0
SMALL
GASTEIGER

@<TRIPOS>ATOM
      1 C          47.5974   11.5191  -27.3351 C.ar    1  UNL1        0.1095
      2 N          47.5813   10.5386  -28.2738 N.ar    1  UNL1       -0.1677
      3 N          46.8866   10.9774  -29.3169 N.ar    1  UNL1       -0.2319
      4 C          46.5820   10.1775  -30.4955 C.3     1  UNL1        0.1554
      5 C          46.4407   12.2124  -29.0407 C.ar    1  UNL1        0.1654
      6 N          45.6426   12.9857  -29.8155 N.ar    1  UNL1       -0.2050
      7 C          45.2902   14.2186  -29.3458 C.ar    1  UNL1        0.2014
      8 N          45.7597   14.6624  -28.1373 N.ar    1  UNL1       -0.2089
      9 C          46.5661   13.8876  -27.3510 C.ar    1  UNL1        0.1379
     10 C          46.8825   12.6090  -27.8162 C.ar    1  UNL1        0.0865
     11 C          49.3971   10.7975  -25.6613 C.ar    1  UNL1        0.0809
     12 C          48.1631   11.3289  -25.9916 C.ar    1  UNL1        0.0577
     13 C          47.5175   11.5156  -24.7837 C.ar    1  UNL1        0.1231
     14 N          48.3344   11.1415  -23.7796 N.ar    1  UNL1       -0.1676
     15 N          49.4715   10.7210  -24.3134 N.ar    1  UNL1       -0.2488
     16 C          50.5984   10.2525  -23.5134 C.3     1  UNL1        0.1537
     17 C          53.6191    9.4071  -29.3763 C.3     1  UNL1        0.0310
     18 C          52.5117    9.7804  -28.4361 C.ar    1  UNL1       -0.0218
     19 C          51.4000    8.9386  -28.2832 C.ar    1  UNL1       -0.0042
     20 C          50.3841    9.2682  -27.3811 C.ar    1  UNL1        0.0012
     21 C          50.4747   10.4353  -26.6077 C.ar    1  UNL1        0.0174
     22 C          51.5940   11.2704  -26.7522 C.ar    1  UNL1        0.0012
     23 C          52.6093   10.9411  -27.6545 C.ar    1  UNL1       -0.0042
     24 N          47.1482   14.4385  -26.1639 N.pl3   1  UNL1       -0.2917
     25 C          46.3338   14.9498  -25.0756 C.3     1  UNL1        0.0937
     26 C          47.2900   15.6973  -24.1536 C.3     1  UNL1        0.0391
     27 C          48.5786   15.9258  -24.9610 C.3     1  UNL1        0.0790
     28 C          48.5131   14.9413  -26.1411 C.3     1  UNL1        0.1081
     29 N          48.7389   17.3534  -25.3537 N.3     1  UNL1       -0.2723
     30 C          47.5607   18.2132  -25.0890 C.3     1  UNL1        0.0721
     31 C          47.9216   19.6838  -25.3211 C.3     1  UNL1        0.0174
     32 C          48.4382   19.8913  -26.7473 C.3     1  UNL1        0.0029
     33 C          49.5953   18.9346  -27.0472 C.3     1  UNL1        0.0174
     34 C          49.1876   17.4865  -26.7561 C.3     1  UNL1        0.0721
@<TRIPOS>BOND
     1    17    18    1
     2    18    19   ar
     3    19    20   ar
     4    20    21   ar
     5    21    11    1
     6    11    12   ar
     7    12     1    1
     8     1     2   ar
     9     2     3   ar
    10     3     4    1
    11     3     5   ar
    12     5     6   ar
    13     6     7   ar
    14     7     8   ar
    15     8     9   ar
    16     9    24    1
    17    24    25    1
    18    25    26    1
    19    26    27    1
    20    27    29    1
    21    29    30    1
    22    30    31    1
    23    31    32    1
    24    32    33    1
    25    33    34    1
    26    27    28    1
    27     9    10   ar
    28    12    13   ar
    29    13    14   ar
    30    14    15   ar
    31    15    16    1
    32    21    22   ar
    33    22    23   ar
    34    23    18   ar
    35    15    11   ar
    36    10     1   ar
    37    10     5   ar
    38    28    24    1
    39    34    29    1
@<TRIPOS>MOLECULE
*****
 34 39 0 0 0
SMALL
GASTEIGER

@<TRIPOS>ATOM
      1 C          47.7955   12.2885  -24.0748 C.ar    1  UNL1        0.1095
      2 N          46.5866   12.6418  -23.5685 N.ar    1  UNL1       -0.1677
      3 N          45.6806   12.5050  -24.5296 N.ar    1  UNL1       -0.2319
      4 C          44.2757   12.8638  -24.3907 C.3     1  UNL1        0.1554
      5 C          46.3038   12.0948  -25.6449 C.ar    1  UNL1        0.1654
      6 N          45.7496   11.8960  -26.8650 N.ar    1  UNL1       -0.2050
      7 C          46.5634   11.4839  -27.8812 C.ar    1  UNL1        0.2014
      8 N          47.8951   11.2531  -27.6552 N.ar    1  UNL1       -0.2089
      9 C          48.4606   11.4506  -26.4263 C.ar    1  UNL1        0.1379
     10 C          47.6316   11.9188  -25.4041 C.ar    1  UNL1        0.0865
     11 C          49.9021   13.5382  -23.3257 C.ar    1  UNL1        0.0809
     12 C          49.0514   12.4472  -23.3274 C.ar    1  UNL1        0.0577
     13 C          49.7040   11.4818  -22.5839 C.ar    1  UNL1        0.1231
     14 N          50.8733   11.9794  -22.1361 N.ar    1  UNL1       -0.1676
     15 N          50.9823   13.2242  -22.5755 N.ar    1  UNL1       -0.2488
     16 C          52.1247   14.0779  -22.2662 C.3     1  UNL1        0.1537
     17 C          48.8892   18.6478  -25.8607 C.3     1  UNL1        0.0310
     18 C          49.1319   17.3126  -25.2221 C.ar    1  UNL1       -0.0218
     19 C          50.0932   16.4392  -25.7524 C.ar    1  UNL1       -0.0042
     20 C          50.3450   15.2093  -25.1373 C.ar    1  UNL1        0.0012
     21 C          49.6508   14.8438  -23.9740 C.ar    1  UNL1        0.0174
     22 C          48.6982   15.7242  -23.4368 C.ar    1  UNL1        0.0012
     23 C          48.4462   16.9535  -24.0522 C.ar    1  UNL1       -0.0042
     24 N          49.8208   11.0656  -26.1961 N.pl3   1  UNL1       -0.2917
     25 C          50.9255   11.9832  -26.4121 C.3     1  UNL1        0.0937
     26 C          52.1911   11.1365  -26.3457 C.3     1  UNL1        0.0391
     27 C          51.7398    9.6732  -26.4851 C.3     1  UNL1        0.0790
     28 C          50.2313    9.6700  -26.1842 C.3     1  UNL1        0.1081
     29 N          52.1077    9.1054  -27.8118 N.3     1  UNL1       -0.2723
     30 C          52.9906    9.9626  -28.6384 C.3     1  UNL1        0.0721
     31 C          53.4775    9.1854  -29.8655 C.3     1  UNL1        0.0174
     32 C          52.2886    8.6769  -30.6854 C.3     1  UNL1        0.0029
     33 C          51.3308    7.8700  -29.8048 C.3     1  UNL1        0.0174
     34 C          50.9139    8.6832  -28.5748 C.3     1  UNL1        0.0721
@<TRIPOS>BOND
     1    17    18    1
     2    18    19   ar
     3    19    20   ar
     4    20    21   ar
     5    21    11    1
     6    11    12   ar
     7    12     1    1
     8     1     2   ar
     9     2     3   ar
    10     3     4    1
    11     3     5   ar
    12     5     6   ar
    13     6     7   ar
    14     7     8   ar
    15     8     9   ar
    16     9    24    1
    17    24    25    1
    18    25    26    1
    19    26    27    1
    20    27    29    1
    21    29    30    1
    22    30    31    1
    23    31    32    1
    24    32    33    1
    25    33    34    1
    26    27    28    1
    27     9    10   ar
    28    12    13   ar
    29    13    14   ar
    30    14    15   ar
    31    15    16    1
    32    21    22   ar
    33    22    23   ar
    34    23    18   ar
    35    15    11   ar
    36    10     1   ar
    37    10     5   ar
    38    28    24    1
    39    34    29    1
@<TRIPOS>MOLECULE
*****
 34 39 0 0 0
SMALL
GASTEIGER

@<TRIPOS>ATOM
      1 C          50.5268   12.2488  -24.4366 C.ar    1  UNL1        0.1095
      2 N          51.1452   11.8685  -25.5836 N.ar    1  UNL1       -0.1677
      3 N          52.4559   11.9808  -25.4026 N.ar    1  UNL1       -0.2319
      4 C          53.4514   11.7370  -26.4376 C.3     1  UNL1        0.1554
      5 C          52.6746   12.4517  -24.1654 C.ar    1  UNL1        0.1654
      6 N          53.8695   12.7660  -23.6096 N.ar    1  UNL1       -0.2050
      7 C          53.8775   13.2440  -22.3304 C.ar    1  UNL1        0.2014
      8 N          52.7076   13.3708  -21.6283 N.ar    1  UNL1       -0.2089
      9 C          51.4986   13.0546  -22.1827 C.ar    1  UNL1        0.1379
     10 C          51.4941   12.6124  -23.5077 C.ar    1  UNL1        0.0865
     11 C          48.2978   13.5047  -24.5602 C.ar    1  UNL1        0.0809
     12 C          49.0671   12.3797  -24.3221 C.ar    1  UNL1        0.0577
     13 C          48.1851   11.4414  -23.8194 C.ar    1  UNL1        0.1231
     14 N          46.9457   11.9688  -23.7849 N.ar    1  UNL1       -0.1676
     15 N          47.0167   13.2090  -24.2446 N.ar    1  UNL1       -0.2488
     16 C          45.8513   14.0791  -24.3642 C.3     1  UNL1        0.1537
     17 C          50.1758   18.5133  -26.7844 C.3     1  UNL1        0.0310
     18 C          49.7157   17.2048  -26.2138 C.ar    1  UNL1       -0.0218
     19 C          49.9100   16.9188  -24.8542 C.ar    1  UNL1       -0.0042
     20 C          49.4501   15.7143  -24.3137 C.ar    1  UNL1        0.0012
     21 C          48.7749   14.7872  -25.1220 C.ar    1  UNL1        0.0174
     22 C          48.5697   15.0801  -26.4796 C.ar    1  UNL1        0.0012
     23 C          49.0300   16.2841  -27.0199 C.ar    1  UNL1       -0.0042
     24 N          50.3169   13.0674  -21.3735 N.pl3   1  UNL1       -0.2917
     25 C          49.6094   14.2981  -21.0672 C.3     1  UNL1        0.0937
     26 C          48.6094   13.9440  -19.9728 C.3     1  UNL1        0.0391
     27 C          49.0542   12.5865  -19.4038 C.3     1  UNL1        0.0790
     28 C          50.0072   11.9857  -20.4513 C.3     1  UNL1        0.1081
     29 N          49.6390   12.7232  -18.0410 N.3     1  UNL1       -0.2723
     30 C          51.0679   12.3442  -17.9303 C.3     1  UNL1        0.0721
     31 C          51.6099   12.7375  -16.5525 C.3     1  UNL1        0.0174
     32 C          50.7842   12.0804  -15.4431 C.3     1  UNL1        0.0029
     33 C          49.2966   12.3985  -15.6163 C.3     1  UNL1        0.0174
     34 C          48.8249   12.0228  -17.0250 C.3     1  UNL1        0.0721
@<TRIPOS>BOND
     1    17    18    1
     2    18    19   ar
     3    19    20   ar
     4    20    21   ar
     5    21    11    1
     6    11    12   ar
     7    12     1    1
     8     1     2   ar
     9     2     3   ar
    10     3     4    1
    11     3     5   ar
    12     5     6   ar
    13     6     7   ar
    14     7     8   ar
    15     8     9   ar
    16     9    24    1
    17    24    25    1
    18    25    26    1
    19    26    27    1
    20    27    29    1
    21    29    30    1
    22    30    31    1
    23    31    32    1
    24    32    33    1
    25    33    34    1
    26    27    28    1
    27     9    10   ar
    28    12    13   ar
    29    13    14   ar
    30    14    15   ar
    31    15    16    1
    32    21    22   ar
    33    22    23   ar
    34    23    18   ar
    35    15    11   ar
    36    10     1   ar
    37    10     5   ar
    38    28    24    1
    39    34    29    1
@<TRIPOS>MOLECULE
*****
 34 39 0 0 0
SMALL
GASTEIGER

@<TRIPOS>ATOM
      1 C          46.8049   12.6061  -22.3446 C.ar    1  UNL1        0.1095
      2 N          46.2390   12.1013  -21.2187 N.ar    1  UNL1       -0.1677
      3 N          47.0170   12.4151  -20.1894 N.ar    1  UNL1       -0.2319
      4 C          46.7813   11.9799  -18.8194 C.3     1  UNL1        0.1554
      5 C          48.0810   13.0893  -20.6517 C.ar    1  UNL1        0.1654
      6 N          49.1407   13.5354  -19.9352 N.ar    1  UNL1       -0.2050
      7 C          50.1336   14.1966  -20.5998 C.ar    1  UNL1        0.2014
      8 N          50.0368   14.4224  -21.9480 N.ar    1  UNL1       -0.2089
      9 C          48.9699   13.9760  -22.6768 C.ar    1  UNL1        0.1379
     10 C          47.9820   13.2583  -21.9984 C.ar    1  UNL1        0.0865
     11 C          46.9468   11.7366  -24.7497 C.ar    1  UNL1        0.0809
     12 C          46.2838   12.3326  -23.6917 C.ar    1  UNL1        0.0577
     13 C          45.0708   12.7421  -24.2129 C.ar    1  UNL1        0.1231
     14 N          44.9998   12.3843  -25.5100 N.ar    1  UNL1       -0.1676
     15 N          46.1284   11.7670  -25.8256 N.ar    1  UNL1       -0.2488
     16 C          46.3922   11.2262  -27.1551 C.3     1  UNL1        0.1537
     17 C          52.1992    9.2979  -24.5933 C.3     1  UNL1        0.0310
     18 C          50.8287    9.9049  -24.6456 C.ar    1  UNL1       -0.0218
     19 C          49.9335    9.7230  -23.5809 C.ar    1  UNL1       -0.0042
     20 C          48.6687   10.3176  -23.6130 C.ar    1  UNL1        0.0012
     21 C          48.2886   11.1158  -24.7025 C.ar    1  UNL1        0.0174
     22 C          49.1901   11.3077  -25.7616 C.ar    1  UNL1        0.0012
     23 C          50.4544   10.7127  -25.7296 C.ar    1  UNL1       -0.0042
     24 N          48.8375   14.3520  -24.0525 N.pl3   1  UNL1       -0.2917
     25 C          49.9817   14.4150  -24.9447 C.3     1  UNL1        0.0937
     26 C          49.4908   15.1183  -26.2047 C.3     1  UNL1        0.0391
     27 C          48.1614   15.7950  -25.8318 C.3     1  UNL1        0.0790
     28 C          47.6961   15.1158  -24.5324 C.3     1  UNL1        0.1081
     29 N          48.3008   17.2749  -25.7412 N.3     1  UNL1       -0.2723
     30 C          47.1791   17.9709  -25.0667 C.3     1  UNL1        0.0721
     31 C          47.5376   19.4422  -24.8352 C.3     1  UNL1        0.0174
     32 C          47.8844   20.1253  -26.1609 C.3     1  UNL1        0.0029
     33 C          48.9791   19.3493  -26.8982 C.3     1  UNL1        0.0174
     34 C          48.5815   17.8785  -27.0613 C.3     1  UNL1        0.0721
@<TRIPOS>BOND
     1    17    18    1
     2    18    19   ar
     3    19    20   ar
     4    20    21   ar
     5    21    11    1
     6    11    12   ar
     7    12     1    1
     8     1     2   ar
     9     2     3   ar
    10     3     4    1
    11     3     5   ar
    12     5     6   ar
    13     6     7   ar
    14     7     8   ar
    15     8     9   ar
    16     9    24    1
    17    24    25    1
    18    25    26    1
    19    26    27    1
    20    27    29    1
    21    29    30    1
    22    30    31    1
    23    31    32    1
    24    32    33    1
    25    33    34    1
    26    27    28    1
    27     9    10   ar
    28    12    13   ar
    29    13    14   ar
    30    14    15   ar
    31    15    16    1
    32    21    22   ar
    33    22    23   ar
    34    23    18   ar
    35    15    11   ar
    36    10     1   ar
    37    10     5   ar
    38    28    24    1
    39    34    29    1
@<TRIPOS>MOLECULE
*****
 34 39 0 0 0
SMALL
GASTEIGER

@<TRIPOS>ATOM
      1 C          47.9862   12.3946  -25.9940 C.ar    1  UNL1        0.1095
      2 N          47.3175   11.9402  -27.0844 N.ar    1  UNL1       -0.1677
      3 N          46.8942   12.9914  -27.7766 N.ar    1  UNL1       -0.2319
      4 C          46.0686   12.9077  -28.9737 C.3     1  UNL1        0.1554
      5 C          47.2634   14.1049  -27.1254 C.ar    1  UNL1        0.1654
      6 N          46.9742   15.3843  -27.4646 N.ar    1  UNL1       -0.2050
      7 C          47.4383   16.3837  -26.6581 C.ar    1  UNL1        0.2014
      8 N          48.1982   16.0912  -25.5559 N.ar    1  UNL1       -0.2089
      9 C          48.4946   14.8026  -25.2085 C.ar    1  UNL1        0.1379
     10 C          47.9756   13.7839  -26.0111 C.ar    1  UNL1        0.0865
     11 C          49.5123   10.5912  -25.0043 C.ar    1  UNL1        0.0809
     12 C          48.4769   11.5059  -24.9307 C.ar    1  UNL1        0.0577
     13 C          47.9110   11.3084  -23.6852 C.ar    1  UNL1        0.1231
     14 N          48.5908   10.3438  -23.0350 N.ar    1  UNL1       -0.1676
     15 N          49.5634    9.9232  -23.8298 N.ar    1  UNL1       -0.2488
     16 C          50.5141    8.8868  -23.4406 C.3     1  UNL1        0.1537
     17 C          53.1579    9.8699  -29.4482 C.3     1  UNL1        0.0310
     18 C          52.2299   10.0379  -28.2820 C.ar    1  UNL1       -0.0218
     19 C          52.4925   11.0081  -27.3033 C.ar    1  UNL1       -0.0042
     20 C          51.6097   11.1893  -26.2346 C.ar    1  UNL1        0.0012
     21 C          50.4438   10.4145  -26.1396 C.ar    1  UNL1        0.0174
     22 C          50.1754    9.4527  -27.1266 C.ar    1  UNL1        0.0012
     23 C          51.0584    9.2713  -28.1947 C.ar    1  UNL1       -0.0042
     24 N          49.4052   14.5444  -24.1335 N.pl3   1  UNL1       -0.2917
     25 C          50.5410   13.6525  -24.2868 C.3     1  UNL1        0.0937
     26 C          51.0789   13.4154  -22.8806 C.3     1  UNL1        0.0391
     27 C          49.9760   13.8751  -21.9128 C.3     1  UNL1        0.0790
     28 C          49.0325   14.7612  -22.7440 C.3     1  UNL1        0.1081
     29 N          49.3125   12.7222  -21.2431 N.3     1  UNL1       -0.2723
     30 C          48.0454   13.0461  -20.5451 C.3     1  UNL1        0.0721
     31 C          47.3497   11.7575  -20.0955 C.3     1  UNL1        0.0174
     32 C          48.2738   10.9349  -19.1935 C.3     1  UNL1        0.0029
     33 C          49.6173   10.6828  -19.8831 C.3     1  UNL1        0.0174
     34 C          50.2422   12.0029  -20.3466 C.3     1  UNL1        0.0721
@<TRIPOS>BOND
     1    17    18    1
     2    18    19   ar
     3    19    20   ar
     4    20    21   ar
     5    21    11    1
     6    11    12   ar
     7    12     1    1
     8     1     2   ar
     9     2     3   ar
    10     3     4    1
    11     3     5   ar
    12     5     6   ar
    13     6     7   ar
    14     7     8   ar
    15     8     9   ar
    16     9    24    1
    17    24    25    1
    18    25    26    1
    19    26    27    1
    20    27    29    1
    21    29    30    1
    22    30    31    1
    23    31    32    1
    24    32    33    1
    25    33    34    1
    26    27    28    1
    27     9    10   ar
    28    12    13   ar
    29    13    14   ar
    30    14    15   ar
    31    15    16    1
    32    21    22   ar
    33    22    23   ar
    34    23    18   ar
    35    15    11   ar
    36    10     1   ar
    37    10     5   ar
    38    28    24    1
    39    34    29    1
@<TRIPOS>MOLECULE
*****
 34 39 0 0 0
SMALL
GASTEIGER

@<TRIPOS>ATOM
      1 C          48.0237   11.8377  -23.2488 C.ar    1  UNL1        0.1095
      2 N          47.1965   12.2003  -24.2621 N.ar    1  UNL1       -0.1677
      3 N          45.9956   12.4402  -23.7489 N.ar    1  UNL1       -0.2319
      4 C          44.8188   12.7800  -24.5372 C.3     1  UNL1        0.1554
      5 C          46.0447   12.2092  -22.4280 C.ar    1  UNL1        0.1654
      6 N          45.0176   12.2773  -21.5474 N.ar    1  UNL1       -0.2050
      7 C          45.2747   11.9932  -20.2367 C.ar    1  UNL1        0.2014
      8 N          46.5447   11.6778  -19.8299 N.ar    1  UNL1       -0.2089
      9 C          47.5859   11.6083  -20.7131 C.ar    1  UNL1        0.1379
     10 C          47.3053   11.8527  -22.0595 C.ar    1  UNL1        0.0865
     11 C          50.4549   12.0719  -24.0202 C.ar    1  UNL1        0.0809
     12 C          49.3988   11.3676  -23.4700 C.ar    1  UNL1        0.0577
     13 C          49.8753   10.0812  -23.2994 C.ar    1  UNL1        0.1231
     14 N          51.1603   10.0253  -23.7008 N.ar    1  UNL1       -0.1676
     15 N          51.5090   11.2314  -24.1228 N.ar    1  UNL1       -0.2488
     16 C          52.8459   11.5432  -24.6179 C.3     1  UNL1        0.1537
     17 C          50.4807   17.6892  -25.4363 C.3     1  UNL1        0.0310
     18 C          50.5029   16.2343  -25.0728 C.ar    1  UNL1       -0.0218
     19 C          50.6840   15.8415  -23.7382 C.ar    1  UNL1       -0.0042
     20 C          50.6697   14.4868  -23.3933 C.ar    1  UNL1        0.0012
     21 C          50.4574   13.5078  -24.3757 C.ar    1  UNL1        0.0174
     22 C          50.2635   13.9027  -25.7089 C.ar    1  UNL1        0.0012
     23 C          50.2783   15.2571  -26.0537 C.ar    1  UNL1       -0.0042
     24 N          48.9201   11.4138  -20.2299 N.pl3   1  UNL1       -0.2917
     25 C          49.4373   10.0942  -19.9132 C.3     1  UNL1        0.0937
     26 C          50.7487   10.3261  -19.1719 C.3     1  UNL1        0.0391
     27 C          50.7446   11.8012  -18.7378 C.3     1  UNL1        0.0790
     28 C          49.6720   12.4883  -19.6002 C.3     1  UNL1        0.1081
     29 N          50.5435   11.9446  -17.2692 N.3     1  UNL1       -0.2723
     30 C          49.2142   12.4616  -16.8652 C.3     1  UNL1        0.0721
     31 C          49.0478   12.3516  -15.3463 C.3     1  UNL1        0.0174
     32 C          50.1681   13.1079  -14.6273 C.3     1  UNL1        0.0029
     33 C          51.5396   12.6352  -15.1168 C.3     1  UNL1        0.0174
     34 C          51.6294   12.7290  -16.6436 C.3     1  UNL1        0.0721
@<TRIPOS>BOND
     1    17    18    1
     2    18    19   ar
     3    19    20   ar
     4    20    21   ar
     5    21    11    1
     6    11    12   ar
     7    12     1    1
     8     1     2   ar
     9     2     3   ar
    10     3     4    1
    11     3     5   ar
    12     5     6   ar
    13     6     7   ar
    14     7     8   ar
    15     8     9   ar
    16     9    24    1
    17    24    25    1
    18    25    26    1
    19    26    27    1
    20    27    29    1
    21    29    30    1
    22    30    31    1
    23    31    32    1
    24    32    33    1
    25    33    34    1
    26    27    28    1
    27     9    10   ar
    28    12    13   ar
    29    13    14   ar
    30    14    15   ar
    31    15    16    1
    32    21    22   ar
    33    22    23   ar
    34    23    18   ar
    35    15    11   ar
    36    10     1   ar
    37    10     5   ar
    38    28    24    1
    39    34    29    1
@<TRIPOS>MOLECULE
*****
 34 39 0 0 0
SMALL
GASTEIGER

@<TRIPOS>ATOM
      1 C          49.0993   11.1980  -25.2252 C.ar    1  UNL1        0.1095
      2 N          49.3058   10.5631  -26.4071 N.ar    1  UNL1       -0.1677
      3 N          50.6136   10.5286  -26.6341 N.ar    1  UNL1       -0.2319
      4 C          51.2230    9.9952  -27.8449 C.3     1  UNL1        0.1554
      5 C          51.2362   11.1561  -25.6246 C.ar    1  UNL1        0.1654
      6 N          52.5646   11.3938  -25.5050 N.ar    1  UNL1       -0.2050
      7 C          53.0007   12.0627  -24.3971 C.ar    1  UNL1        0.2014
      8 N          52.1150   12.4520  -23.4267 N.ar    1  UNL1       -0.2089
      9 C          50.7735   12.2144  -23.5406 C.ar    1  UNL1        0.1379
     10 C          50.3296   11.5729  -24.6994 C.ar    1  UNL1        0.0865
     11 C          46.6593   11.9413  -25.4593 C.ar    1  UNL1        0.0809
     12 C          47.7594   11.5367  -24.7242 C.ar    1  UNL1        0.0577
     13 C          47.3704   11.6518  -23.4028 C.ar    1  UNL1        0.1231
     14 N          46.0929   12.0767  -23.3500 N.ar    1  UNL1       -0.1676
     15 N          45.6644   12.2377  -24.5930 N.ar    1  UNL1       -0.2488
     16 C          44.3105   12.6767  -24.9152 C.3     1  UNL1        0.1537
     17 C          46.2516   12.1231  -31.2351 C.3     1  UNL1        0.0310
     18 C          46.3284   12.0719  -29.7381 C.ar    1  UNL1       -0.0218
     19 C          46.4944   10.8441  -29.0801 C.ar    1  UNL1       -0.0042
     20 C          46.6014   10.7990  -27.6869 C.ar    1  UNL1        0.0012
     21 C          46.5607   11.9826  -26.9346 C.ar    1  UNL1        0.0174
     22 C          46.4075   13.2119  -27.5951 C.ar    1  UNL1        0.0012
     23 C          46.3000   13.2569  -28.9879 C.ar    1  UNL1       -0.0042
     24 N          49.9004   12.5106  -22.4445 N.pl3   1  UNL1       -0.2917
     25 C          49.6926   13.8687  -21.9738 C.3     1  UNL1        0.0937
     26 C          48.9522   13.7426  -20.6476 C.3     1  UNL1        0.0391
     27 C          49.1079   12.2788  -20.2032 C.3     1  UNL1        0.0790
     28 C          49.5353   11.5029  -21.4609 C.3     1  UNL1        0.1081
     29 N          50.0394   12.1478  -19.0486 N.3     1  UNL1       -0.2723
     30 C          49.4542   12.4847  -17.7289 C.3     1  UNL1        0.0721
     31 C          50.4266   12.0988  -16.6098 C.3     1  UNL1        0.0174
     32 C          51.7738   12.8000  -16.8036 C.3     1  UNL1        0.0029
     33 C          52.3296   12.5247  -18.2034 C.3     1  UNL1        0.0174
     34 C          51.2975   12.8903  -19.2754 C.3     1  UNL1        0.0721
@<TRIPOS>BOND
     1    17    18    1
     2    18    19   ar
     3    19    20   ar
     4    20    21   ar
     5    21    11    1
     6    11    12   ar
     7    12     1    1
     8     1     2   ar
     9     2     3   ar
    10     3     4    1
    11     3     5   ar
    12     5     6   ar
    13     6     7   ar
    14     7     8   ar
    15     8     9   ar
    16     9    24    1
    17    24    25    1
    18    25    26    1
    19    26    27    1
    20    27    29    1
    21    29    30    1
    22    30    31    1
    23    31    32    1
    24    32    33    1
    25    33    34    1
    26    27    28    1
    27     9    10   ar
    28    12    13   ar
    29    13    14   ar
    30    14    15   ar
    31    15    16    1
    32    21    22   ar
    33    22    23   ar
    34    23    18   ar
    35    15    11   ar
    36    10     1   ar
    37    10     5   ar
    38    28    24    1
    39    34    29    1
@<TRIPOS>MOLECULE
*****
 34 39 0 0 0
SMALL
GASTEIGER

@<TRIPOS>ATOM
      1 C          49.3836   11.0794  -23.3711 C.ar    1  UNL1        0.1095
      2 N          49.9697    9.8659  -23.2074 N.ar    1  UNL1       -0.1677
      3 N          51.0356    9.8124  -23.9975 N.ar    1  UNL1       -0.2319
      4 C          51.8806    8.6368  -24.1577 C.3     1  UNL1        0.1554
      5 C          51.1174   10.9657  -24.6784 C.ar    1  UNL1        0.1654
      6 N          52.0235   11.2895  -25.6321 N.ar    1  UNL1       -0.2050
      7 C          51.9291   12.5198  -26.2171 C.ar    1  UNL1        0.2014
      8 N          50.9597   13.4045  -25.8229 N.ar    1  UNL1       -0.2089
      9 C          50.0429   13.0846  -24.8605 C.ar    1  UNL1        0.1379
     10 C          50.1160   11.8065  -24.3014 C.ar    1  UNL1        0.0865
     11 C          47.8632   11.7799  -21.4325 C.ar    1  UNL1        0.0809
     12 C          48.0990   11.4356  -22.7516 C.ar    1  UNL1        0.0577
     13 C          46.8471   11.3632  -23.3331 C.ar    1  UNL1        0.1231
     14 N          45.9111   11.6759  -22.4158 N.ar    1  UNL1       -0.1676
     15 N          46.5297   11.9388  -21.2744 N.ar    1  UNL1       -0.2488
     16 C          45.8220   12.3317  -20.0603 C.3     1  UNL1        0.1537
     17 C          51.8986   12.6530  -17.3690 C.3     1  UNL1        0.0310
     18 C          50.8731   12.4117  -18.4365 C.ar    1  UNL1       -0.0218
     19 C          50.0669   11.2644  -18.3962 C.ar    1  UNL1       -0.0042
     20 C          49.0869   11.0560  -19.3712 C.ar    1  UNL1        0.0012
     21 C          48.8888   12.0004  -20.3897 C.ar    1  UNL1        0.0174
     22 C          49.6876   13.1545  -20.4216 C.ar    1  UNL1        0.0012
     23 C          50.6677   13.3625  -19.4472 C.ar    1  UNL1       -0.0042
     24 N          49.1362   14.0829  -24.3782 N.pl3   1  UNL1       -0.2917
     25 C          47.8027   14.2406  -24.9314 C.3     1  UNL1        0.0937
     26 C          47.2731   15.5576  -24.3763 C.3     1  UNL1        0.0391
     27 C          48.4920   16.3153  -23.8245 C.3     1  UNL1        0.0790
     28 C          49.6026   15.2628  -23.6663 C.3     1  UNL1        0.1081
     29 N          48.8567   17.4758  -24.6836 N.3     1  UNL1       -0.2723
     30 C          47.7089   18.2045  -25.2745 C.3     1  UNL1        0.0721
     31 C          48.1943   19.4949  -25.9425 C.3     1  UNL1        0.0174
     32 C          49.2491   19.1840  -27.0078 C.3     1  UNL1        0.0029
     33 C          50.3877   18.3505  -26.4136 C.3     1  UNL1        0.0174
     34 C          49.8366   17.0979  -25.7241 C.3     1  UNL1        0.0721
@<TRIPOS>BOND
     1    17    18    1
     2    18    19   ar
     3    19    20   ar
     4    20    21   ar
     5    21    11    1
     6    11    12   ar
     7    12     1    1
     8     1     2   ar
     9     2     3   ar
    10     3     4    1
    11     3     5   ar
    12     5     6   ar
    13     6     7   ar
    14     7     8   ar
    15     8     9   ar
    16     9    24    1
    17    24    25    1
    18    25    26    1
    19    26    27    1
    20    27    29    1
    21    29    30    1
    22    30    31    1
    23    31    32    1
    24    32    33    1
    25    33    34    1
    26    27    28    1
    27     9    10   ar
    28    12    13   ar
    29    13    14   ar
    30    14    15   ar
    31    15    16    1
    32    21    22   ar
    33    22    23   ar
    34    23    18   ar
    35    15    11   ar
    36    10     1   ar
    37    10     5   ar
    38    28    24    1
    39    34    29    1
