@<TRIPOS>MOLECULE
*****
 39 43 0 0 0
SMALL
GASTEIGER

@<TRIPOS>ATOM
      1 C         -22.0256   -9.8755  -13.1948 C.2     1  UNL1        0.2507
      2 O         -21.7661  -10.2012  -14.3851 O.2     1  UNL1       -0.2698
      3 N         -23.2576   -9.1928  -12.8876 N.am    1  UNL1       -0.2680
      4 C         -23.9905   -9.5209  -11.6602 C.3     1  UNL1        0.1412
      5 C         -23.7813   -8.4274  -10.6151 C.3     1  UNL1        0.2268
      6 O         -23.6342   -7.1442  -11.2203 O.3     1  UNL1       -0.4739
      7 C         -24.5526   -6.6377  -12.1422 C.ar    1  UNL1        0.1362
      8 C         -25.2739   -5.4927  -11.7930 C.ar    1  UNL1        0.0366
      9 C         -26.2245   -4.9590  -12.6623 C.ar    1  UNL1        0.0031
     10 C         -26.4593   -5.5546  -13.9111 C.ar    1  UNL1       -0.0000
     11 C         -25.7151   -6.6906  -14.2746 C.ar    1  UNL1        0.0004
     12 C         -24.7622   -7.2475  -13.4031 C.ar    1  UNL1        0.0317
     13 C         -23.9092   -8.3892  -13.9319 C.3     1  UNL1        0.1236
     14 C         -27.4656   -4.9813  -14.8401 C.ar    1  UNL1        0.0015
     15 C         -28.8526   -5.2299  -14.6403 C.ar    1  UNL1        0.0016
     16 C         -29.8155   -4.6911  -15.5141 C.ar    1  UNL1        0.0206
     17 C         -29.3648   -3.9111  -16.5736 C.ar    1  UNL1        0.0985
     18 N         -30.1016   -3.3009  -17.5192 N.ar    1  UNL1       -0.2241
     19 C         -29.1613   -2.6865  -18.2846 C.ar    1  UNL1        0.1750
     20 N         -27.8937   -2.8921  -17.8527 N.ar    1  UNL1       -0.3349
     21 C         -28.0413   -3.6680  -16.7725 C.ar    1  UNL1        0.0757
     22 C         -27.0553   -4.1804  -15.9340 C.ar    1  UNL1        0.0185
     23 H         -27.0082   -2.5278  -18.2692 H       1  UNL1        0.1675
     24 C         -20.6930  -11.5563  -11.8685 C.ar    1  UNL1        0.0505
     25 C         -19.7181  -11.8084  -10.8835 C.ar    1  UNL1        0.0359
     26 C         -19.1288  -10.7632  -10.1539 C.ar    1  UNL1        0.1404
     27 C         -19.5286   -9.4341  -10.4114 C.ar    1  UNL1        0.1508
     28 O         -18.9962   -8.3441   -9.7191 O.3     1  UNL1       -0.5042
     29 C         -20.4880   -9.1773  -11.3925 C.ar    1  UNL1        0.0437
     30 C         -21.0583  -10.2179  -12.1349 C.ar    1  UNL1        0.0697
     31 H         -18.2993   -8.4291   -8.9921 H       1  UNL1        0.2922
     32 S         -17.9087  -11.1308   -8.9215 S.O2    1  UNL1        0.0134
     33 C         -17.8009  -12.8710   -8.5499 C.3     1  UNL1        0.1817
     34 O         -16.5618  -10.6762   -9.4094 O.2     1  UNL1       -0.1685
     35 O         -18.2546  -10.4046   -7.6519 O.2     1  UNL1       -0.1685
     36 N         -21.3423  -12.6426  -12.5682 N.pl3   1  UNL1       -0.3325
     37 H         -22.3203  -12.9049  -12.3122 H       1  UNL1        0.1468
     38 C         -21.7680  -13.7487  -14.7177 C.3     1  UNL1        0.0229
     39 C         -20.7327  -13.4183  -13.6485 C.3     1  UNL1        0.0871
@<TRIPOS>BOND
     1    38    39    1
     2    39    36    1
     3    36    24    1
     4    24    25   ar
     5    25    26   ar
     6    26    32    1
     7    32    33    1
     8    32    34    2
     9    32    35    2
    10    26    27   ar
    11    27    28    1
    12    27    29   ar
    13    29    30   ar
    14    30     1    1
    15     1     2    2
    16     1     3   am
    17     3     4    1
    18     4     5    1
    19     5     6    1
    20     6     7    1
    21     7     8   ar
    22     8     9   ar
    23     9    10   ar
    24    10    14    1
    25    14    15   ar
    26    15    16   ar
    27    16    17   ar
    28    17    18   ar
    29    18    19   ar
    30    19    20   ar
    31    20    21   ar
    32    21    22   ar
    33    10    11   ar
    34    11    12   ar
    35    12    13    1
    36    30    24   ar
    37    13     3    1
    38    12     7   ar
    39    22    14   ar
    40    21    17   ar
    41    36    37    1
    42    28    31    1
    43    20    23    1
@<TRIPOS>MOLECULE
*****
 39 43 0 0 0
SMALL
GASTEIGER

@<TRIPOS>ATOM
      1 C         -22.1489   -8.1202   -9.4579 C.2     1  UNL1        0.2507
      2 O         -22.9715   -8.0010   -8.5096 O.2     1  UNL1       -0.2698
      3 N         -22.3862   -7.4398  -10.7065 N.am    1  UNL1       -0.2680
      4 C         -21.2655   -6.8399  -11.4383 C.3     1  UNL1        0.1412
      5 C         -20.8912   -7.7129  -12.6338 C.3     1  UNL1        0.2268
      6 O         -22.0326   -8.3694  -13.1823 O.3     1  UNL1       -0.4739
      7 C         -23.1935   -7.6828  -13.5439 C.ar    1  UNL1        0.1362
      8 C         -23.5605   -7.6728  -14.8923 C.ar    1  UNL1        0.0366
      9 C         -24.6942   -6.9799  -15.3152 C.ar    1  UNL1        0.0031
     10 C         -25.4954   -6.2953  -14.3886 C.ar    1  UNL1       -0.0000
     11 C         -25.1422   -6.3272  -13.0282 C.ar    1  UNL1        0.0004
     12 C         -23.9948   -7.0111  -12.5886 C.ar    1  UNL1        0.0317
     13 C         -23.7663   -7.1082  -11.0889 C.3     1  UNL1        0.1236
     14 C         -26.7073   -5.5645  -14.8378 C.ar    1  UNL1        0.0015
     15 C         -26.5870   -4.4129  -15.6654 C.ar    1  UNL1        0.0016
     16 C         -27.7287   -3.7126  -16.0979 C.ar    1  UNL1        0.0206
     17 C         -28.9716   -4.1846  -15.6898 C.ar    1  UNL1        0.0985
     18 N         -30.1824   -3.6778  -15.9838 N.ar    1  UNL1       -0.2241
     19 C         -31.0282   -4.5221  -15.3362 C.ar    1  UNL1        0.1750
     20 N         -30.3939   -5.5137  -14.6655 N.ar    1  UNL1       -0.3349
     21 C         -29.0964   -5.2843  -14.8990 C.ar    1  UNL1        0.0757
     22 C         -27.9953   -6.0068  -14.4482 C.ar    1  UNL1        0.0185
     23 H         -30.8219   -6.2787  -14.0981 H       1  UNL1        0.1675
     24 C         -20.6661  -10.0621  -10.0828 C.ar    1  UNL1        0.0505
     25 C         -19.4689  -10.7746   -9.8754 C.ar    1  UNL1        0.0359
     26 C         -18.5713  -10.4151   -8.8570 C.ar    1  UNL1        0.1404
     27 C         -18.8816   -9.3202   -8.0218 C.ar    1  UNL1        0.1508
     28 O         -18.0445   -8.9104   -6.9816 O.3     1  UNL1       -0.5042
     29 C         -20.0626   -8.6048   -8.2281 C.ar    1  UNL1        0.0437
     30 C         -20.9457   -8.9499   -9.2578 C.ar    1  UNL1        0.0697
     31 H         -17.1710   -9.3650   -6.7541 H       1  UNL1        0.2922
     32 S         -17.0788  -11.3448   -8.6325 S.O2    1  UNL1        0.0134
     33 C         -17.2658  -13.0679   -9.0497 C.3     1  UNL1        0.1817
     34 O         -16.0023  -10.7694   -9.5094 O.2     1  UNL1       -0.1685
     35 O         -16.6544  -11.2580   -7.1933 O.2     1  UNL1       -0.1685
     36 N         -21.6156  -10.4796  -11.0904 N.pl3   1  UNL1       -0.3325
     37 H         -22.5072   -9.9480  -11.2057 H       1  UNL1        0.1468
     38 C         -22.6053  -11.7384  -12.9508 C.3     1  UNL1        0.0229
     39 C         -21.4200  -11.6079  -12.0009 C.3     1  UNL1        0.0871
@<TRIPOS>BOND
     1    38    39    1
     2    39    36    1
     3    36    24    1
     4    24    25   ar
     5    25    26   ar
     6    26    32    1
     7    32    33    1
     8    32    34    2
     9    32    35    2
    10    26    27   ar
    11    27    28    1
    12    27    29   ar
    13    29    30   ar
    14    30     1    1
    15     1     2    2
    16     1     3   am
    17     3     4    1
    18     4     5    1
    19     5     6    1
    20     6     7    1
    21     7     8   ar
    22     8     9   ar
    23     9    10   ar
    24    10    14    1
    25    14    15   ar
    26    15    16   ar
    27    16    17   ar
    28    17    18   ar
    29    18    19   ar
    30    19    20   ar
    31    20    21   ar
    32    21    22   ar
    33    10    11   ar
    34    11    12   ar
    35    12    13    1
    36    30    24   ar
    37    13     3    1
    38    12     7   ar
    39    22    14   ar
    40    21    17   ar
    41    36    37    1
    42    28    31    1
    43    20    23    1
@<TRIPOS>MOLECULE
*****
 39 43 0 0 0
SMALL
GASTEIGER

@<TRIPOS>ATOM
      1 C         -22.0489   -9.5268  -13.3179 C.2     1  UNL1        0.2507
      2 O         -21.7517   -9.7838  -14.5161 O.2     1  UNL1       -0.2698
      3 N         -23.3339   -8.9548  -13.0017 N.am    1  UNL1       -0.2680
      4 C         -24.0521   -9.3874  -11.7982 C.3     1  UNL1        0.1412
      5 C         -23.9406   -8.3233  -10.7088 C.3     1  UNL1        0.2268
      6 O         -23.8880   -7.0095  -11.2618 O.3     1  UNL1       -0.4739
      7 C         -24.8333   -6.5400  -12.1761 C.ar    1  UNL1        0.1362
      8 C         -25.6458   -5.4694  -11.7929 C.ar    1  UNL1        0.0366
      9 C         -26.6259   -4.9774  -12.6541 C.ar    1  UNL1        0.0031
     10 C         -26.7997   -5.5394  -13.9281 C.ar    1  UNL1       -0.0000
     11 C         -25.9648   -6.5987  -14.3249 C.ar    1  UNL1        0.0004
     12 C         -24.9807   -7.1138  -13.4624 C.ar    1  UNL1        0.0317
     13 C         -24.0351   -8.1636  -14.0230 C.3     1  UNL1        0.1236
     14 C         -27.8377   -5.0099  -14.8482 C.ar    1  UNL1        0.0015
     15 C         -29.2000   -5.3905  -14.6908 C.ar    1  UNL1        0.0016
     16 C         -30.1926   -4.8944  -15.5565 C.ar    1  UNL1        0.0206
     17 C         -29.7960   -4.0233  -16.5654 C.ar    1  UNL1        0.0985
     18 N         -30.5686   -3.4322  -17.4944 N.ar    1  UNL1       -0.2241
     19 C         -29.6745   -2.6978  -18.2077 C.ar    1  UNL1        0.1750
     20 N         -28.4010   -2.8124  -17.7599 N.ar    1  UNL1       -0.3349
     21 C         -28.4964   -3.6537  -16.7236 C.ar    1  UNL1        0.0757
     22 C         -27.4827   -4.1197  -15.8913 C.ar    1  UNL1        0.0185
     23 H         -27.5449   -2.3498  -18.1385 H       1  UNL1        0.1675
     24 C         -20.4654   -8.8159  -11.4883 C.ar    1  UNL1        0.0505
     25 C         -19.5846   -9.1832  -10.4523 C.ar    1  UNL1        0.0359
     26 C         -19.2823  -10.5297  -10.1927 C.ar    1  UNL1        0.1404
     27 C         -19.8705  -11.5331  -10.9926 C.ar    1  UNL1        0.1508
     28 O         -19.6095  -12.8920  -10.8023 O.3     1  UNL1       -0.5042
     29 C         -20.7511  -11.1757  -12.0153 C.ar    1  UNL1        0.0437
     30 C         -21.0693   -9.8345  -12.2587 C.ar    1  UNL1        0.0697
     31 H         -18.9866  -13.2478  -10.0904 H       1  UNL1        0.2922
     32 S         -18.1646  -10.9422   -8.8800 S.O2    1  UNL1        0.0134
     33 C         -18.4636  -10.0036   -7.3941 C.3     1  UNL1        0.1817
     34 O         -18.3127  -12.4000   -8.5455 O.2     1  UNL1       -0.1685
     35 O         -16.7558  -10.6698   -9.3268 O.2     1  UNL1       -0.1685
     36 N         -20.7194   -7.4249  -11.7912 N.pl3   1  UNL1       -0.3325
     37 H         -20.8513   -7.1328  -12.7852 H       1  UNL1        0.1468
     38 C         -21.3482   -5.0798  -11.4302 C.3     1  UNL1        0.0229
     39 C         -20.8269   -6.3622  -10.7914 C.3     1  UNL1        0.0871
@<TRIPOS>BOND
     1    38    39    1
     2    39    36    1
     3    36    24    1
     4    24    25   ar
     5    25    26   ar
     6    26    32    1
     7    32    33    1
     8    32    34    2
     9    32    35    2
    10    26    27   ar
    11    27    28    1
    12    27    29   ar
    13    29    30   ar
    14    30     1    1
    15     1     2    2
    16     1     3   am
    17     3     4    1
    18     4     5    1
    19     5     6    1
    20     6     7    1
    21     7     8   ar
    22     8     9   ar
    23     9    10   ar
    24    10    14    1
    25    14    15   ar
    26    15    16   ar
    27    16    17   ar
    28    17    18   ar
    29    18    19   ar
    30    19    20   ar
    31    20    21   ar
    32    21    22   ar
    33    10    11   ar
    34    11    12   ar
    35    12    13    1
    36    30    24   ar
    37    13     3    1
    38    12     7   ar
    39    22    14   ar
    40    21    17   ar
    41    36    37    1
    42    28    31    1
    43    20    23    1
@<TRIPOS>MOLECULE
*****
 39 43 0 0 0
SMALL
GASTEIGER

@<TRIPOS>ATOM
      1 C         -21.7823   -8.9099   -9.9688 C.2     1  UNL1        0.2507
      2 O         -22.5888   -8.8448   -9.0016 O.2     1  UNL1       -0.2698
      3 N         -22.0064   -8.1112  -11.1478 N.am    1  UNL1       -0.2680
      4 C         -20.8710   -7.4915  -11.8394 C.3     1  UNL1        0.1412
      5 C         -20.5451   -8.2672  -13.1137 C.3     1  UNL1        0.2268
      6 O         -21.7178   -8.8271  -13.7018 O.3     1  UNL1       -0.4739
      7 C         -22.8545   -8.0664  -13.9833 C.ar    1  UNL1        0.1362
      8 C         -23.2359   -7.9209  -15.3199 C.ar    1  UNL1        0.0366
      9 C         -24.3458   -7.1495  -15.6623 C.ar    1  UNL1        0.0031
     10 C         -25.1088   -6.5208  -14.6665 C.ar    1  UNL1       -0.0000
     11 C         -24.7419   -6.6886  -13.3197 C.ar    1  UNL1        0.0004
     12 C         -23.6176   -7.4530  -12.9601 C.ar    1  UNL1        0.0317
     13 C         -23.3764   -7.6935  -11.4787 C.3     1  UNL1        0.1236
     14 C         -26.2956   -5.7062  -15.0306 C.ar    1  UNL1        0.0015
     15 C         -27.4917   -5.7959  -14.2647 C.ar    1  UNL1        0.0016
     16 C         -28.6226   -5.0281  -14.5999 C.ar    1  UNL1        0.0206
     17 C         -28.5290   -4.1830  -15.7004 C.ar    1  UNL1        0.0985
     18 N         -29.4759   -3.3650  -16.1939 N.ar    1  UNL1       -0.2241
     19 C         -28.8514   -2.7845  -17.2525 C.ar    1  UNL1        0.1750
     20 N         -27.5761   -3.2074  -17.4263 N.ar    1  UNL1       -0.3349
     21 C         -27.3900   -4.0905  -16.4384 C.ar    1  UNL1        0.0757
     22 C         -26.2487   -4.8309  -16.1432 C.ar    1  UNL1        0.0185
     23 H         -26.8977   -2.9106  -18.1626 H       1  UNL1        0.1675
     24 C         -19.5238   -9.4961   -9.0119 C.ar    1  UNL1        0.0505
     25 C         -18.4650  -10.4195   -8.9112 C.ar    1  UNL1        0.0359
     26 C         -18.4620  -11.6121   -9.6527 C.ar    1  UNL1        0.1404
     27 C         -19.5413  -11.8849  -10.5206 C.ar    1  UNL1        0.1508
     28 O         -19.6032  -13.0436  -11.2981 O.3     1  UNL1       -0.5042
     29 C         -20.5979  -10.9776  -10.6180 C.ar    1  UNL1        0.0437
     30 C         -20.6109   -9.8000   -9.8615 C.ar    1  UNL1        0.0697
     31 H         -18.8875  -13.7571  -11.2970 H       1  UNL1        0.2922
     32 S         -17.1047  -12.7415   -9.4951 S.O2    1  UNL1        0.0134
     33 C         -15.5291  -11.9179   -9.3638 C.3     1  UNL1        0.1817
     34 O         -17.2971  -13.5748   -8.2592 O.2     1  UNL1       -0.1685
     35 O         -17.0633  -13.6355  -10.7025 O.2     1  UNL1       -0.1685
     36 N         -19.4871   -8.2405   -8.2954 N.pl3   1  UNL1       -0.3325
     37 H         -19.2811   -7.3592   -8.8166 H       1  UNL1        0.1468
     38 C         -18.4275   -7.8913   -6.1091 C.3     1  UNL1        0.0229
     39 C         -19.7378   -8.0935   -6.8616 C.3     1  UNL1        0.0871
@<TRIPOS>BOND
     1    38    39    1
     2    39    36    1
     3    36    24    1
     4    24    25   ar
     5    25    26   ar
     6    26    32    1
     7    32    33    1
     8    32    34    2
     9    32    35    2
    10    26    27   ar
    11    27    28    1
    12    27    29   ar
    13    29    30   ar
    14    30     1    1
    15     1     2    2
    16     1     3   am
    17     3     4    1
    18     4     5    1
    19     5     6    1
    20     6     7    1
    21     7     8   ar
    22     8     9   ar
    23     9    10   ar
    24    10    14    1
    25    14    15   ar
    26    15    16   ar
    27    16    17   ar
    28    17    18   ar
    29    18    19   ar
    30    19    20   ar
    31    20    21   ar
    32    21    22   ar
    33    10    11   ar
    34    11    12   ar
    35    12    13    1
    36    30    24   ar
    37    13     3    1
    38    12     7   ar
    39    22    14   ar
    40    21    17   ar
    41    36    37    1
    42    28    31    1
    43    20    23    1
@<TRIPOS>MOLECULE
*****
 39 43 0 0 0
SMALL
GASTEIGER

@<TRIPOS>ATOM
      1 C         -20.6714   -8.1282  -10.6790 C.2     1  UNL1        0.2507
      2 O         -20.0646   -7.4202  -11.5280 O.2     1  UNL1       -0.2698
      3 N         -22.0447   -8.5041  -10.9050 N.am    1  UNL1       -0.2680
      4 C         -22.5071   -9.8462  -10.5355 C.3     1  UNL1        0.1412
      5 C         -23.3257   -9.7840   -9.2481 C.3     1  UNL1        0.2268
      6 O         -24.0488   -8.5589   -9.1444 O.3     1  UNL1       -0.4739
      7 C         -24.8797   -8.0876  -10.1630 C.ar    1  UNL1        0.1362
      8 C         -26.2478   -7.9772   -9.8995 C.ar    1  UNL1        0.0366
      9 C         -27.1288   -7.5393  -10.8876 C.ar    1  UNL1        0.0031
     10 C         -26.6517   -7.1853  -12.1589 C.ar    1  UNL1       -0.0000
     11 C         -25.2722   -7.2704  -12.4167 C.ar    1  UNL1        0.0004
     12 C         -24.3734   -7.7223  -11.4341 C.ar    1  UNL1        0.0317
     13 C         -22.8890   -7.6513  -11.7540 C.3     1  UNL1        0.1236
     14 C         -27.5887   -6.7111  -13.2084 C.ar    1  UNL1        0.0015
     15 C         -28.7080   -7.5053  -13.5852 C.ar    1  UNL1        0.0016
     16 C         -29.6033   -7.0657  -14.5782 C.ar    1  UNL1        0.0206
     17 C         -29.3560   -5.8337  -15.1741 C.ar    1  UNL1        0.0985
     18 N         -30.0750   -5.2233  -16.1332 N.ar    1  UNL1       -0.2241
     19 C         -29.3913   -4.0655  -16.3321 C.ar    1  UNL1        0.1750
     20 N         -28.2961   -3.9421  -15.5442 N.ar    1  UNL1       -0.3349
     21 C         -28.2890   -5.0677  -14.8206 C.ar    1  UNL1        0.0757
     22 C         -27.3787   -5.4630  -13.8444 C.ar    1  UNL1        0.0185
     23 H         -27.6165   -3.1500  -15.5117 H       1  UNL1        0.1675
     24 C         -19.2241   -9.7822   -9.4422 C.ar    1  UNL1        0.0505
     25 C         -18.5064  -10.1138   -8.2765 C.ar    1  UNL1        0.0359
     26 C         -18.5199   -9.2790   -7.1474 C.ar    1  UNL1        0.1404
     27 C         -19.2743   -8.0865   -7.1828 C.ar    1  UNL1        0.1508
     28 O         -19.3452   -7.2122   -6.0959 O.3     1  UNL1       -0.5042
     29 C         -19.9807   -7.7480   -8.3385 C.ar    1  UNL1        0.0437
     30 C         -19.9485   -8.5696   -9.4713 C.ar    1  UNL1        0.0697
     31 H         -18.8707   -7.3713   -5.2178 H       1  UNL1        0.2922
     32 S         -17.6036   -9.7412   -5.7019 S.O2    1  UNL1        0.0134
     33 C         -18.6504  -10.1291   -4.3120 C.3     1  UNL1        0.1817
     34 O         -16.7738  -10.9556   -6.0109 O.2     1  UNL1       -0.1685
     35 O         -16.7033   -8.6055   -5.3037 O.2     1  UNL1       -0.1685
     36 N         -19.2583  -10.6794  -10.5758 N.pl3   1  UNL1       -0.3325
     37 H         -19.2458  -10.2842  -11.5425 H       1  UNL1        0.1468
     38 C         -20.1733  -12.7239  -11.5796 C.3     1  UNL1        0.0229
     39 C         -19.2935  -12.1388  -10.4805 C.3     1  UNL1        0.0871
@<TRIPOS>BOND
     1    38    39    1
     2    39    36    1
     3    36    24    1
     4    24    25   ar
     5    25    26   ar
     6    26    32    1
     7    32    33    1
     8    32    34    2
     9    32    35    2
    10    26    27   ar
    11    27    28    1
    12    27    29   ar
    13    29    30   ar
    14    30     1    1
    15     1     2    2
    16     1     3   am
    17     3     4    1
    18     4     5    1
    19     5     6    1
    20     6     7    1
    21     7     8   ar
    22     8     9   ar
    23     9    10   ar
    24    10    14    1
    25    14    15   ar
    26    15    16   ar
    27    16    17   ar
    28    17    18   ar
    29    18    19   ar
    30    19    20   ar
    31    20    21   ar
    32    21    22   ar
    33    10    11   ar
    34    11    12   ar
    35    12    13    1
    36    30    24   ar
    37    13     3    1
    38    12     7   ar
    39    22    14   ar
    40    21    17   ar
    41    36    37    1
    42    28    31    1
    43    20    23    1
@<TRIPOS>MOLECULE
*****
 39 43 0 0 0
SMALL
GASTEIGER

@<TRIPOS>ATOM
      1 C         -20.7200   -6.9936   -9.1740 C.2     1  UNL1        0.2507
      2 O         -21.2157   -5.8342   -9.1545 O.2     1  UNL1       -0.2698
      3 N         -20.5667   -7.6898  -10.4271 N.am    1  UNL1       -0.2680
      4 C         -19.3734   -8.5076  -10.6695 C.3     1  UNL1        0.1412
      5 C         -19.7156   -9.9895  -10.5342 C.3     1  UNL1        0.2268
      6 O         -21.0518  -10.2601  -10.9534 O.3     1  UNL1       -0.4739
      7 C         -21.5480   -9.8527  -12.1936 C.ar    1  UNL1        0.1362
      8 C         -21.9227  -10.8391  -13.1099 C.ar    1  UNL1        0.0366
      9 C         -22.3981  -10.4913  -14.3738 C.ar    1  UNL1        0.0031
     10 C         -22.5245   -9.1423  -14.7390 C.ar    1  UNL1       -0.0000
     11 C         -22.1733   -8.1489  -13.8082 C.ar    1  UNL1        0.0004
     12 C         -21.6803   -8.4846  -12.5346 C.ar    1  UNL1        0.0317
     13 C         -21.4569   -7.3511  -11.5467 C.3     1  UNL1        0.1236
     14 C         -23.0386   -8.7719  -16.0817 C.ar    1  UNL1        0.0015
     15 C         -23.0838   -9.7378  -17.1260 C.ar    1  UNL1        0.0016
     16 C         -23.5698   -9.3983  -18.4025 C.ar    1  UNL1        0.0206
     17 C         -24.0022   -8.0921  -18.6049 C.ar    1  UNL1        0.0985
     18 N         -24.5018   -7.5550  -19.7325 N.ar    1  UNL1       -0.2241
     19 C         -24.7572   -6.2708  -19.3676 C.ar    1  UNL1        0.1750
     20 N         -24.4390   -6.0014  -18.0785 N.ar    1  UNL1       -0.3349
     21 C         -23.9630   -7.1621  -17.6129 C.ar    1  UNL1        0.0757
     22 C         -23.4904   -7.4538  -16.3365 C.ar    1  UNL1        0.0185
     23 H         -24.5424   -5.0958  -17.5692 H       1  UNL1        0.1675
     24 C         -21.1673   -8.4068   -7.1337 C.ar    1  UNL1        0.0505
     25 C         -20.6758   -9.0125   -5.9609 C.ar    1  UNL1        0.0359
     26 C         -19.3516   -8.8164   -5.5365 C.ar    1  UNL1        0.1404
     27 C         -18.5000   -7.9894   -6.3004 C.ar    1  UNL1        0.1508
     28 O         -17.1753   -7.7382   -5.9362 O.3     1  UNL1       -0.5042
     29 C         -18.9789   -7.3933   -7.4685 C.ar    1  UNL1        0.0437
     30 C         -20.2922   -7.6076   -7.9028 C.ar    1  UNL1        0.0697
     31 H         -16.7398   -8.1226   -5.1092 H       1  UNL1        0.2922
     32 S         -18.7801   -9.5972   -4.0512 S.O2    1  UNL1        0.0134
     33 C         -17.9044   -8.4795   -2.9731 C.3     1  UNL1        0.1817
     34 O         -19.9590  -10.1427   -3.2953 O.2     1  UNL1       -0.1685
     35 O         -17.8498  -10.7215   -4.4106 O.2     1  UNL1       -0.1685
     36 N         -22.5502   -8.5605   -7.5275 N.pl3   1  UNL1       -0.3325
     37 H         -23.2574   -7.8670   -7.1962 H       1  UNL1        0.1468
     38 C         -24.1186   -9.0883   -9.3404 C.3     1  UNL1        0.0229
     39 C         -23.0554   -9.6284   -8.3905 C.3     1  UNL1        0.0871
@<TRIPOS>BOND
     1    38    39    1
     2    39    36    1
     3    36    24    1
     4    24    25   ar
     5    25    26   ar
     6    26    32    1
     7    32    33    1
     8    32    34    2
     9    32    35    2
    10    26    27   ar
    11    27    28    1
    12    27    29   ar
    13    29    30   ar
    14    30     1    1
    15     1     2    2
    16     1     3   am
    17     3     4    1
    18     4     5    1
    19     5     6    1
    20     6     7    1
    21     7     8   ar
    22     8     9   ar
    23     9    10   ar
    24    10    14    1
    25    14    15   ar
    26    15    16   ar
    27    16    17   ar
    28    17    18   ar
    29    18    19   ar
    30    19    20   ar
    31    20    21   ar
    32    21    22   ar
    33    10    11   ar
    34    11    12   ar
    35    12    13    1
    36    30    24   ar
    37    13     3    1
    38    12     7   ar
    39    22    14   ar
    40    21    17   ar
    41    36    37    1
    42    28    31    1
    43    20    23    1
@<TRIPOS>MOLECULE
*****
 39 43 0 0 0
SMALL
GASTEIGER

@<TRIPOS>ATOM
      1 C         -21.0823   -8.0395  -12.0683 C.2     1  UNL1        0.2507
      2 O         -20.2863   -7.8830  -13.0338 O.2     1  UNL1       -0.2698
      3 N         -22.5017   -7.8950  -12.2751 N.am    1  UNL1       -0.2680
      4 C         -23.4368   -8.7956  -11.5925 C.3     1  UNL1        0.1412
      5 C         -24.1040   -8.0731  -10.4244 C.3     1  UNL1        0.2268
      6 O         -24.2813   -6.6846  -10.6982 O.3     1  UNL1       -0.4739
      7 C         -24.9066   -6.2206  -11.8575 C.ar    1  UNL1        0.1362
      8 C         -26.1070   -5.5178  -11.7227 C.ar    1  UNL1        0.0366
      9 C         -26.7899   -5.0554  -12.8471 C.ar    1  UNL1        0.0031
     10 C         -26.2719   -5.2739  -14.1328 C.ar    1  UNL1       -0.0000
     11 C         -25.0507   -5.9572  -14.2681 C.ar    1  UNL1        0.0004
     12 C         -24.3572   -6.4405  -13.1441 C.ar    1  UNL1        0.0317
     13 C         -22.9812   -7.0442  -13.3738 C.3     1  UNL1        0.1236
     14 C         -26.9948   -4.7743  -15.3295 C.ar    1  UNL1        0.0015
     15 C         -26.2890   -4.5050  -16.5357 C.ar    1  UNL1        0.0016
     16 C         -26.9639   -4.0319  -17.6766 C.ar    1  UNL1        0.0206
     17 C         -28.3379   -3.8386  -17.5829 C.ar    1  UNL1        0.0985
     18 N         -29.1753   -3.4004  -18.5401 N.ar    1  UNL1       -0.2241
     19 C         -30.3809   -3.4070  -17.9123 C.ar    1  UNL1        0.1750
     20 N         -30.3183   -3.8261  -16.6255 N.ar    1  UNL1       -0.3349
     21 C         -29.0211   -4.0932  -16.4345 C.ar    1  UNL1        0.0757
     22 C         -28.3945   -4.5617  -15.2831 C.ar    1  UNL1        0.0185
     23 H         -31.1031   -3.9180  -15.9430 H       1  UNL1        0.1675
     24 C         -19.9443   -9.6414  -10.4876 C.ar    1  UNL1        0.0505
     25 C         -19.3875   -9.8823   -9.2164 C.ar    1  UNL1        0.0359
     26 C         -19.4327   -8.9117   -8.2026 C.ar    1  UNL1        0.1404
     27 C         -20.0553   -7.6722   -8.4645 C.ar    1  UNL1        0.1508
     28 O         -20.1490   -6.6629   -7.5036 O.3     1  UNL1       -0.5042
     29 C         -20.6012   -7.4243   -9.7253 C.ar    1  UNL1        0.0437
     30 C         -20.5357   -8.3839  -10.7422 C.ar    1  UNL1        0.0697
     31 H         -19.7859   -6.7490   -6.5644 H       1  UNL1        0.2922
     32 S         -18.7214   -9.2630   -6.6173 S.O2    1  UNL1        0.0134
     33 C         -17.6972  -10.7222   -6.6249 C.3     1  UNL1        0.1817
     34 O         -17.8698   -8.1007   -6.1899 O.2     1  UNL1       -0.1685
     35 O         -19.8232   -9.4732   -5.6170 O.2     1  UNL1       -0.1685
     36 N         -19.9521  -10.6701  -11.5039 N.pl3   1  UNL1       -0.3325
     37 H         -19.2884  -10.6014  -12.3074 H       1  UNL1        0.1468
     38 C         -21.5311  -11.9954  -12.8363 C.3     1  UNL1        0.0229
     39 C         -20.8261  -11.8433  -11.4931 C.3     1  UNL1        0.0871
@<TRIPOS>BOND
     1    38    39    1
     2    39    36    1
     3    36    24    1
     4    24    25   ar
     5    25    26   ar
     6    26    32    1
     7    32    33    1
     8    32    34    2
     9    32    35    2
    10    26    27   ar
    11    27    28    1
    12    27    29   ar
    13    29    30   ar
    14    30     1    1
    15     1     2    2
    16     1     3   am
    17     3     4    1
    18     4     5    1
    19     5     6    1
    20     6     7    1
    21     7     8   ar
    22     8     9   ar
    23     9    10   ar
    24    10    14    1
    25    14    15   ar
    26    15    16   ar
    27    16    17   ar
    28    17    18   ar
    29    18    19   ar
    30    19    20   ar
    31    20    21   ar
    32    21    22   ar
    33    10    11   ar
    34    11    12   ar
    35    12    13    1
    36    30    24   ar
    37    13     3    1
    38    12     7   ar
    39    22    14   ar
    40    21    17   ar
    41    36    37    1
    42    28    31    1
    43    20    23    1
@<TRIPOS>MOLECULE
*****
 39 43 0 0 0
SMALL
GASTEIGER

@<TRIPOS>ATOM
      1 C         -22.3499   -9.1917  -11.3006 C.2     1  UNL1        0.2507
      2 O         -23.4169   -9.2012  -10.6286 O.2     1  UNL1       -0.2698
      3 N         -22.2174   -8.3034  -12.4283 N.am    1  UNL1       -0.2680
      4 C         -20.9385   -7.6330  -12.6863 C.3     1  UNL1        0.1412
      5 C         -20.2173   -8.3075  -13.8510 C.3     1  UNL1        0.2268
      6 O         -21.1378   -8.8187  -14.8132 O.3     1  UNL1       -0.4739
      7 C         -22.1493   -8.0373  -15.3755 C.ar    1  UNL1        0.1362
      8 C         -22.1026   -7.7879  -16.7498 C.ar    1  UNL1        0.0366
      9 C         -23.0701   -6.9910  -17.3607 C.ar    1  UNL1        0.0031
     10 C         -24.1176   -6.4408  -16.6062 C.ar    1  UNL1       -0.0000
     11 C         -24.1807   -6.7133  -15.2284 C.ar    1  UNL1        0.0004
     12 C         -23.2051   -7.5046  -14.5962 C.ar    1  UNL1        0.0317
     13 C         -23.4275   -7.8598  -13.1351 C.3     1  UNL1        0.1236
     14 C         -25.1524   -5.5992  -17.2583 C.ar    1  UNL1        0.0015
     15 C         -25.2454   -5.5443  -18.6774 C.ar    1  UNL1        0.0016
     16 C         -26.2227   -4.7506  -19.3064 C.ar    1  UNL1        0.0206
     17 C         -27.0898   -4.0264  -18.4954 C.ar    1  UNL1        0.0985
     18 N         -28.0905   -3.2134  -18.8785 N.ar    1  UNL1       -0.2241
     19 C         -28.5986   -2.7814  -17.6941 C.ar    1  UNL1        0.1750
     20 N         -27.9587   -3.2899  -16.6136 N.ar    1  UNL1       -0.3349
     21 C         -27.0087   -4.0727  -17.1383 C.ar    1  UNL1        0.0757
     22 C         -26.0584   -4.8434  -16.4744 C.ar    1  UNL1        0.0185
     23 H         -28.1624   -3.1101  -15.6054 H       1  UNL1        0.1675
     24 C         -21.1126  -11.3842  -11.4490 C.ar    1  UNL1        0.0505
     25 C         -20.0034  -12.1655  -11.0704 C.ar    1  UNL1        0.0359
     26 C         -19.0551  -11.6910  -10.1497 C.ar    1  UNL1        0.1404
     27 C         -19.2235  -10.4063   -9.5895 C.ar    1  UNL1        0.1508
     28 O         -18.3290   -9.8712   -8.6598 O.3     1  UNL1       -0.5042
     29 C         -20.3161   -9.6238   -9.9675 C.ar    1  UNL1        0.0437
     30 C         -21.2485  -10.0886  -10.9023 C.ar    1  UNL1        0.0697
     31 H         -17.5111  -10.3609   -8.3242 H       1  UNL1        0.2922
     32 S         -17.6777  -12.7129   -9.7014 S.O2    1  UNL1        0.0134
     33 C         -17.2544  -13.8988  -10.9634 C.3     1  UNL1        0.1817
     34 O         -16.4759  -11.8433   -9.4601 O.2     1  UNL1       -0.1685
     35 O         -18.0113  -13.4686   -8.4459 O.2     1  UNL1       -0.1685
     36 N         -22.1191  -11.9062  -12.3466 N.pl3   1  UNL1       -0.3325
     37 H         -22.9885  -12.3289  -11.9512 H       1  UNL1        0.1468
     38 C         -21.4591  -13.1902  -14.3318 C.3     1  UNL1        0.0229
     39 C         -22.0275  -11.8767  -13.8064 C.3     1  UNL1        0.0871
@<TRIPOS>BOND
     1    38    39    1
     2    39    36    1
     3    36    24    1
     4    24    25   ar
     5    25    26   ar
     6    26    32    1
     7    32    33    1
     8    32    34    2
     9    32    35    2
    10    26    27   ar
    11    27    28    1
    12    27    29   ar
    13    29    30   ar
    14    30     1    1
    15     1     2    2
    16     1     3   am
    17     3     4    1
    18     4     5    1
    19     5     6    1
    20     6     7    1
    21     7     8   ar
    22     8     9   ar
    23     9    10   ar
    24    10    14    1
    25    14    15   ar
    26    15    16   ar
    27    16    17   ar
    28    17    18   ar
    29    18    19   ar
    30    19    20   ar
    31    20    21   ar
    32    21    22   ar
    33    10    11   ar
    34    11    12   ar
    35    12    13    1
    36    30    24   ar
    37    13     3    1
    38    12     7   ar
    39    22    14   ar
    40    21    17   ar
    41    36    37    1
    42    28    31    1
    43    20    23    1
@<TRIPOS>MOLECULE
*****
 39 43 0 0 0
SMALL
GASTEIGER

@<TRIPOS>ATOM
      1 C         -26.0520   -7.8993  -11.3138 C.2     1  UNL1        0.2507
      2 O         -26.5716   -8.1111  -10.1844 O.2     1  UNL1       -0.2698
      3 N         -24.7580   -8.4528  -11.6259 N.am    1  UNL1       -0.2680
      4 C         -24.4907   -8.9783  -12.9690 C.3     1  UNL1        0.1412
      5 C         -23.6334   -7.9917  -13.7583 C.3     1  UNL1        0.2268
      6 O         -22.7323   -7.2832  -12.9094 O.3     1  UNL1       -0.4739
      7 C         -21.8714   -7.9297  -12.0201 C.ar    1  UNL1        0.1362
      8 C         -20.4949   -7.8060  -12.2276 C.ar    1  UNL1        0.0366
      9 C         -19.5886   -8.4527  -11.3881 C.ar    1  UNL1        0.0031
     10 C         -20.0457   -9.2248  -10.3092 C.ar    1  UNL1       -0.0000
     11 C         -21.4295   -9.3280  -10.0834 C.ar    1  UNL1        0.0004
     12 C         -22.3557   -8.6919  -10.9291 C.ar    1  UNL1        0.0317
     13 C         -23.8217   -8.7437  -10.5307 C.3     1  UNL1        0.1236
     14 C         -19.0805   -9.9066   -9.4103 C.ar    1  UNL1        0.0015
     15 C         -18.9792   -9.5262   -8.0427 C.ar    1  UNL1        0.0016
     16 C         -18.0684  -10.1659   -7.1812 C.ar    1  UNL1        0.0206
     17 C         -17.2759  -11.1779   -7.7120 C.ar    1  UNL1        0.0985
     18 N         -16.3497  -11.9180   -7.0765 N.ar    1  UNL1       -0.2241
     19 C         -15.8960  -12.7416   -8.0581 C.ar    1  UNL1        0.1750
     20 N         -16.4985  -12.5397   -9.2547 N.ar    1  UNL1       -0.3349
     21 C         -17.3657  -11.5485   -9.0177 C.ar    1  UNL1        0.0757
     22 C         -18.2516  -10.9434   -9.9047 C.ar    1  UNL1        0.0185
     23 H         -16.3238  -13.0431  -10.1527 H       1  UNL1        0.1675
     24 C         -26.4958   -5.7324  -12.5251 C.ar    1  UNL1        0.0505
     25 C         -27.2044   -5.0390  -13.5257 C.ar    1  UNL1        0.0359
     26 C         -28.2098   -5.6673  -14.2782 C.ar    1  UNL1        0.1404
     27 C         -28.5183   -7.0203  -14.0197 C.ar    1  UNL1        0.1508
     28 O         -29.5124   -7.7089  -14.7185 O.3     1  UNL1       -0.5042
     29 C         -27.8135   -7.7153  -13.0351 C.ar    1  UNL1        0.0437
     30 C         -26.7960   -7.0946  -12.3011 C.ar    1  UNL1        0.0697
     31 H         -30.0760   -7.2917  -15.4464 H       1  UNL1        0.2922
     32 S         -29.0766   -4.7517  -15.5244 S.O2    1  UNL1        0.0134
     33 C         -27.9830   -3.9064  -16.6503 C.3     1  UNL1        0.1817
     34 O         -29.9294   -5.6946  -16.3261 O.2     1  UNL1       -0.1685
     35 O         -29.9501   -3.7227  -14.8635 O.2     1  UNL1       -0.1685
     36 N         -25.5086   -5.0597  -11.7103 N.pl3   1  UNL1       -0.3325
     37 H         -25.7142   -4.8770  -10.7028 H       1  UNL1        0.1468
     38 C         -23.1523   -4.7629  -11.0900 C.3     1  UNL1        0.0229
     39 C         -24.1994   -4.6145  -12.1881 C.3     1  UNL1        0.0871
@<TRIPOS>BOND
     1    38    39    1
     2    39    36    1
     3    36    24    1
     4    24    25   ar
     5    25    26   ar
     6    26    32    1
     7    32    33    1
     8    32    34    2
     9    32    35    2
    10    26    27   ar
    11    27    28    1
    12    27    29   ar
    13    29    30   ar
    14    30     1    1
    15     1     2    2
    16     1     3   am
    17     3     4    1
    18     4     5    1
    19     5     6    1
    20     6     7    1
    21     7     8   ar
    22     8     9   ar
    23     9    10   ar
    24    10    14    1
    25    14    15   ar
    26    15    16   ar
    27    16    17   ar
    28    17    18   ar
    29    18    19   ar
    30    19    20   ar
    31    20    21   ar
    32    21    22   ar
    33    10    11   ar
    34    11    12   ar
    35    12    13    1
    36    30    24   ar
    37    13     3    1
    38    12     7   ar
    39    22    14   ar
    40    21    17   ar
    41    36    37    1
    42    28    31    1
    43    20    23    1
