@<TRIPOS>MOLECULE
*****
 41 45 0 0 0
SMALL
GASTEIGER

@<TRIPOS>ATOM
      1 C          -2.7630  -16.1095   22.2690 C.3     1  UNL1        0.1333
      2 N          -3.7212  -16.9002   21.4956 N.ar    1  UNL1       -0.2950
      3 C          -3.4996  -17.6390   20.3733 C.ar    1  UNL1        0.2019
      4 N          -4.5887  -18.3290   19.9515 N.ar    1  UNL1       -0.2129
      5 C          -5.5364  -17.9722   20.8385 C.ar    1  UNL1        0.1086
      6 C          -6.8714  -18.3829   20.8605 C.ar    1  UNL1        0.0482
      7 S          -7.4633  -19.5535   19.6304 S.3     1  UNL1       -0.1397
      8 C          -7.7063  -17.8806   21.8946 C.ar    1  UNL1        0.0975
      9 C          -7.1683  -16.9768   22.8505 C.ar    1  UNL1        0.1787
     10 C          -5.8211  -16.5694   22.7761 C.ar    1  UNL1        0.1897
     11 C          -5.0239  -17.1085   21.7647 C.ar    1  UNL1        0.1178
     12 O          -5.3349  -15.6347   23.6954 O.3     1  UNL1       -0.4669
     13 C          -6.2234  -14.8852   24.5262 C.3     1  UNL1        0.2527
     14 C          -7.3857  -15.7696   24.9912 C.3     1  UNL1        0.2526
     15 O          -7.9645  -16.4495   23.8752 O.3     1  UNL1       -0.4682
     16 H          -7.1282  -20.6544   20.4406 H       1  UNL1        0.1072
     17 C          -9.1240  -18.2860   21.9840 C.2     1  UNL1        0.2531
     18 O          -9.4331  -19.4917   21.7825 O.2     1  UNL1       -0.2697
     19 N         -10.1414  -17.3100   22.2666 N.am    1  UNL1       -0.2803
     20 H          -9.8753  -16.2995   22.2625 H       1  UNL1        0.1552
     21 C         -11.5254  -17.6322   22.4814 C.ar    1  UNL1        0.0506
     22 C         -12.4030  -17.6434   21.3896 C.ar    1  UNL1        0.0170
     23 C         -13.7575  -17.9240   21.5749 C.ar    1  UNL1        0.0309
     24 C         -14.2538  -18.1865   22.8540 C.ar    1  UNL1        0.1441
     25 F         -15.5783  -18.4409   23.0080 F       1  UNL1       -0.2042
     26 C         -13.3927  -18.1702   23.9671 C.ar    1  UNL1        0.1000
     27 C         -12.0303  -17.8708   23.7726 C.ar    1  UNL1        0.0208
     28 C         -13.9488  -18.4134   25.3502 C.3     1  UNL1        0.4207
     29 F         -15.2003  -19.0032   25.3018 F       1  UNL1       -0.1658
     30 F         -13.0927  -19.2459   26.0474 F       1  UNL1       -0.1658
     31 F         -14.0623  -17.2123   26.0275 F       1  UNL1       -0.1658
     32 N          -2.2452  -17.7095   19.6816 N.pl3   1  UNL1       -0.2814
     33 H          -2.1646  -17.1900   18.7790 H       1  UNL1        0.1551
     34 C          -1.0590  -18.3090   20.2313 C.ar    1  UNL1        0.0889
     35 C           0.2030  -17.6993   20.0712 C.ar    1  UNL1        0.1543
     36 F           0.3349  -16.5428   19.3740 F       1  UNL1       -0.2028
     37 C           1.3470  -18.2991   20.6056 C.ar    1  UNL1        0.0310
     38 C           1.2499  -19.5109   21.2910 C.ar    1  UNL1        0.0033
     39 C           0.0086  -20.1319   21.4402 C.ar    1  UNL1        0.0128
     40 C          -1.1443  -19.5414   20.9100 C.ar    1  UNL1        0.0733
     41 CL         -2.6905  -20.3459   21.1465 Cl      1  UNL1       -0.0809
@<TRIPOS>BOND
     1     1     2    1
     2     2     3   ar
     3     3    32    1
     4    32    34    1
     5    34    35   ar
     6    35    36    1
     7    35    37   ar
     8    37    38   ar
     9    38    39   ar
    10    39    40   ar
    11    40    41    1
    12     3     4   ar
    13     4     5   ar
    14     5     6   ar
    15     6     7    1
    16     6     8   ar
    17     8    17    1
    18    17    18    2
    19    17    19   am
    20    19    21    1
    21    21    22   ar
    22    22    23   ar
    23    23    24   ar
    24    24    25    1
    25    24    26   ar
    26    26    28    1
    27    28    29    1
    28    28    30    1
    29    28    31    1
    30    26    27   ar
    31     8     9   ar
    32     9    10   ar
    33    10    11   ar
    34    10    12    1
    35    12    13    1
    36    13    14    1
    37    14    15    1
    38    11     2   ar
    39    40    34   ar
    40    11     5   ar
    41    27    21   ar
    42    15     9    1
    43    32    33    1
    44     7    16    1
    45    19    20    1
@<TRIPOS>MOLECULE
*****
 41 45 0 0 0
SMALL
GASTEIGER

@<TRIPOS>ATOM
      1 C          -9.0365  -10.0067   32.8934 C.3     1  UNL1        0.1333
      2 N          -9.2088  -11.1239   31.9640 N.ar    1  UNL1       -0.2950
      3 C         -10.2528  -11.9930   31.8682 C.ar    1  UNL1        0.2019
      4 N         -10.1432  -12.8641   30.8341 N.ar    1  UNL1       -0.2129
      5 C          -8.9580  -12.5370   30.2859 C.ar    1  UNL1        0.1086
      6 C          -8.3396  -13.1389   29.1874 C.ar    1  UNL1        0.0482
      7 S          -9.1707  -14.4777   28.3209 S.3     1  UNL1       -0.1397
      8 C          -7.0792  -12.6319   28.7715 C.ar    1  UNL1        0.0975
      9 C          -6.4887  -11.5546   29.4861 C.ar    1  UNL1        0.1787
     10 C          -7.1366  -10.9930   30.6049 C.ar    1  UNL1        0.1897
     11 C          -8.3880  -11.4970   30.9641 C.ar    1  UNL1        0.1178
     12 O          -6.5051   -9.9730   31.3232 O.3     1  UNL1       -0.4669
     13 C          -5.1221   -9.6758   31.1227 C.3     1  UNL1        0.2527
     14 C          -4.7650   -9.7958   29.6368 C.3     1  UNL1        0.2526
     15 O          -5.2407  -11.0382   29.1147 O.3     1  UNL1       -0.4682
     16 H          -9.8150  -13.5823   27.4471 H       1  UNL1        0.1072
     17 C          -6.3781  -13.2136   27.6086 C.2     1  UNL1        0.2531
     18 O          -5.3387  -12.6493   27.1713 O.2     1  UNL1       -0.2697
     19 N          -6.8939  -14.3913   26.9650 N.am    1  UNL1       -0.2803
     20 H          -7.8404  -14.7356   27.2435 H       1  UNL1        0.1552
     21 C          -6.2195  -15.0864   25.9030 C.ar    1  UNL1        0.0506
     22 C          -5.0962  -15.8681   26.2018 C.ar    1  UNL1        0.0170
     23 C          -4.4054  -16.5295   25.1854 C.ar    1  UNL1        0.0309
     24 C          -4.8217  -16.4099   23.8574 C.ar    1  UNL1        0.1441
     25 F          -4.1223  -17.0510   22.8866 F       1  UNL1       -0.2042
     26 C          -5.9412  -15.6212   23.5324 C.ar    1  UNL1        0.1000
     27 C          -6.6228  -14.9450   24.5628 C.ar    1  UNL1        0.0208
     28 C          -6.3561  -15.4651   22.0885 C.3     1  UNL1        0.4207
     29 F          -6.5242  -16.6918   21.4692 F       1  UNL1       -0.1658
     30 F          -7.5502  -14.7705   22.0283 F       1  UNL1       -0.1658
     31 F          -5.3877  -14.7599   21.3963 F       1  UNL1       -0.1658
     32 N         -11.3803  -12.0092   32.7543 N.pl3   1  UNL1       -0.2814
     33 H         -11.7773  -11.0873   33.0434 H       1  UNL1        0.1551
     34 C         -12.0871  -13.2038   33.1310 C.ar    1  UNL1        0.0889
     35 C         -13.2425  -13.6138   32.4331 C.ar    1  UNL1        0.1543
     36 F         -13.7316  -12.8792   31.4026 F       1  UNL1       -0.2028
     37 C         -13.9218  -14.7737   32.8169 C.ar    1  UNL1        0.0310
     38 C         -13.4681  -15.5277   33.9001 C.ar    1  UNL1        0.0033
     39 C         -12.3359  -15.1218   34.6087 C.ar    1  UNL1        0.0128
     40 C         -11.6469  -13.9624   34.2344 C.ar    1  UNL1        0.0733
     41 CL        -10.2095  -13.5049   35.1390 Cl      1  UNL1       -0.0809
@<TRIPOS>BOND
     1     1     2    1
     2     2     3   ar
     3     3    32    1
     4    32    34    1
     5    34    35   ar
     6    35    36    1
     7    35    37   ar
     8    37    38   ar
     9    38    39   ar
    10    39    40   ar
    11    40    41    1
    12     3     4   ar
    13     4     5   ar
    14     5     6   ar
    15     6     7    1
    16     6     8   ar
    17     8    17    1
    18    17    18    2
    19    17    19   am
    20    19    21    1
    21    21    22   ar
    22    22    23   ar
    23    23    24   ar
    24    24    25    1
    25    24    26   ar
    26    26    28    1
    27    28    29    1
    28    28    30    1
    29    28    31    1
    30    26    27   ar
    31     8     9   ar
    32     9    10   ar
    33    10    11   ar
    34    10    12    1
    35    12    13    1
    36    13    14    1
    37    14    15    1
    38    11     2   ar
    39    40    34   ar
    40    11     5   ar
    41    27    21   ar
    42    15     9    1
    43    32    33    1
    44     7    16    1
    45    19    20    1
@<TRIPOS>MOLECULE
*****
 41 45 0 0 0
SMALL
GASTEIGER

@<TRIPOS>ATOM
      1 C          -7.5792  -18.5817   21.2249 C.3     1  UNL1        0.1333
      2 N          -6.9703  -17.6580   22.1826 N.ar    1  UNL1       -0.2950
      3 C          -5.8196  -16.9412   22.0542 C.ar    1  UNL1        0.2019
      4 N          -5.5802  -16.1042   23.0945 N.ar    1  UNL1       -0.2129
      5 C          -6.6173  -16.3408   23.9195 C.ar    1  UNL1        0.1086
      6 C          -6.8595  -15.7531   25.1634 C.ar    1  UNL1        0.0482
      7 S          -5.7351  -14.4966   25.7884 S.3     1  UNL1       -0.1397
      8 C          -8.0241  -16.1512   25.8733 C.ar    1  UNL1        0.0975
      9 C          -8.8847  -17.1324   25.3105 C.ar    1  UNL1        0.1787
     10 C          -8.5888  -17.7178   24.0629 C.ar    1  UNL1        0.1897
     11 C          -7.4525  -17.2785   23.3811 C.ar    1  UNL1        0.1178
     12 O          -9.4223  -18.7221   23.5611 O.3     1  UNL1       -0.4669
     13 C         -10.3979  -19.3552   24.3911 C.3     1  UNL1        0.2527
     14 C         -11.0431  -18.3274   25.3276 C.3     1  UNL1        0.2526
     15 O         -10.0337  -17.5604   25.9876 O.3     1  UNL1       -0.4682
     16 H          -6.4667  -13.4623   25.1755 H       1  UNL1        0.1072
     17 C          -8.3466  -15.5583   27.1873 C.2     1  UNL1        0.2531
     18 O          -8.4175  -16.3070   28.1994 O.2     1  UNL1       -0.2697
     19 N          -8.6072  -14.1490   27.3032 N.am    1  UNL1       -0.2803
     20 H          -8.7052  -13.5881   26.4270 H       1  UNL1        0.1552
     21 C          -8.8177  -13.4717   28.5532 C.ar    1  UNL1        0.0506
     22 C         -10.0586  -13.5859   29.1931 C.ar    1  UNL1        0.0170
     23 C         -10.2992  -12.9145   30.3927 C.ar    1  UNL1        0.0309
     24 C          -9.3072  -12.1129   30.9624 C.ar    1  UNL1        0.1441
     25 F          -9.5731  -11.4585   32.1216 F       1  UNL1       -0.2042
     26 C          -8.0565  -11.9748   30.3319 C.ar    1  UNL1        0.1000
     27 C          -7.8281  -12.6436   29.1136 C.ar    1  UNL1        0.0208
     28 C          -7.0071  -11.0716   30.9352 C.3     1  UNL1        0.4207
     29 F          -6.8297  -11.3241   32.2848 F       1  UNL1       -0.1658
     30 F          -5.8033  -11.2710   30.2847 F       1  UNL1       -0.1658
     31 F          -7.3864   -9.7492   30.7885 F       1  UNL1       -0.1658
     32 N          -4.9262  -17.0323   20.9359 N.pl3   1  UNL1       -0.2814
     33 H          -5.2257  -16.5791   20.0438 H       1  UNL1        0.1551
     34 C          -3.5911  -17.5609   21.0172 C.ar    1  UNL1        0.0889
     35 C          -2.5213  -16.7627   21.4737 C.ar    1  UNL1        0.1543
     36 F          -2.7191  -15.4675   21.8261 F       1  UNL1       -0.2028
     37 C          -1.2283  -17.2899   21.5396 C.ar    1  UNL1        0.0310
     38 C          -0.9851  -18.6057   21.1434 C.ar    1  UNL1        0.0033
     39 C          -2.0332  -19.3991   20.6735 C.ar    1  UNL1        0.0128
     40 C          -3.3323  -18.8830   20.6028 C.ar    1  UNL1        0.0733
     41 CL         -4.6263  -19.9280   20.0307 Cl      1  UNL1       -0.0809
@<TRIPOS>BOND
     1     1     2    1
     2     2     3   ar
     3     3    32    1
     4    32    34    1
     5    34    35   ar
     6    35    36    1
     7    35    37   ar
     8    37    38   ar
     9    38    39   ar
    10    39    40   ar
    11    40    41    1
    12     3     4   ar
    13     4     5   ar
    14     5     6   ar
    15     6     7    1
    16     6     8   ar
    17     8    17    1
    18    17    18    2
    19    17    19   am
    20    19    21    1
    21    21    22   ar
    22    22    23   ar
    23    23    24   ar
    24    24    25    1
    25    24    26   ar
    26    26    28    1
    27    28    29    1
    28    28    30    1
    29    28    31    1
    30    26    27   ar
    31     8     9   ar
    32     9    10   ar
    33    10    11   ar
    34    10    12    1
    35    12    13    1
    36    13    14    1
    37    14    15    1
    38    11     2   ar
    39    40    34   ar
    40    11     5   ar
    41    27    21   ar
    42    15     9    1
    43    32    33    1
    44     7    16    1
    45    19    20    1
@<TRIPOS>MOLECULE
*****
 41 45 0 0 0
SMALL
GASTEIGER

@<TRIPOS>ATOM
      1 C          -8.6479  -10.2303   31.3495 C.3     1  UNL1        0.1333
      2 N          -8.8963  -11.5150   30.6941 N.ar    1  UNL1       -0.2950
      3 C          -9.9541  -12.3574   30.8546 C.ar    1  UNL1        0.2019
      4 N          -9.9258  -13.4314   30.0263 N.ar    1  UNL1       -0.2129
      5 C          -8.7775  -13.2591   29.3450 C.ar    1  UNL1        0.1086
      6 C          -8.2431  -14.0967   28.3632 C.ar    1  UNL1        0.0482
      7 S          -9.1468  -15.5676   27.8594 S.3     1  UNL1       -0.1397
      8 C          -7.0086  -13.7226   27.7675 C.ar    1  UNL1        0.0975
      9 C          -6.3583  -12.5333   28.1950 C.ar    1  UNL1        0.1787
     10 C          -6.9212  -11.7299   29.2070 C.ar    1  UNL1        0.1897
     11 C          -8.1505  -12.1135   29.7463 C.ar    1  UNL1        0.1178
     12 O          -6.2304  -10.5969   29.6477 O.3     1  UNL1       -0.4669
     13 C          -4.8612  -10.3848   29.2989 C.3     1  UNL1        0.2527
     14 C          -4.6087  -10.8277   27.8533 C.3     1  UNL1        0.2526
     15 O          -5.1332  -12.1401   27.6413 O.3     1  UNL1       -0.4682
     16 H          -9.8397  -14.8625   26.8577 H       1  UNL1        0.1072
     17 C          -6.3959  -14.5564   26.7132 C.2     1  UNL1        0.2531
     18 O          -5.5895  -15.4685   27.0412 O.2     1  UNL1       -0.2697
     19 N          -6.6926  -14.3087   25.3283 N.am    1  UNL1       -0.2803
     20 H          -7.2284  -13.4462   25.0815 H       1  UNL1        0.1552
     21 C          -6.2317  -15.1371   24.2480 C.ar    1  UNL1        0.0506
     22 C          -6.9106  -15.1048   23.0231 C.ar    1  UNL1        0.0170
     23 C          -6.5019  -15.9210   21.9674 C.ar    1  UNL1        0.0309
     24 C          -5.4171  -16.7867   22.1254 C.ar    1  UNL1        0.1441
     25 F          -5.0505  -17.5810   21.0875 F       1  UNL1       -0.2042
     26 C          -4.7267  -16.8438   23.3506 C.ar    1  UNL1        0.1000
     27 C          -5.1559  -16.0278   24.4153 C.ar    1  UNL1        0.0208
     28 C          -3.5824  -17.8145   23.5231 C.3     1  UNL1        0.4207
     29 F          -2.4451  -17.3875   22.8592 F       1  UNL1       -0.1658
     30 F          -3.2894  -17.9415   24.8684 F       1  UNL1       -0.1658
     31 F          -3.9384  -19.0529   23.0193 F       1  UNL1       -0.1658
     32 N         -11.0181  -12.1556   31.7949 N.pl3   1  UNL1       -0.2814
     33 H         -11.6076  -11.3014   31.6770 H       1  UNL1        0.1551
     34 C         -11.4172  -13.1292   32.7753 C.ar    1  UNL1        0.0889
     35 C         -12.5164  -13.9827   32.5445 C.ar    1  UNL1        0.1543
     36 F         -13.2412  -13.8920   31.4011 F       1  UNL1       -0.2028
     37 C         -12.8957  -14.9187   33.5111 C.ar    1  UNL1        0.0310
     38 C         -12.1965  -15.0072   34.7156 C.ar    1  UNL1        0.0033
     39 C         -11.1181  -14.1556   34.9619 C.ar    1  UNL1        0.0128
     40 C         -10.7285  -13.2144   34.0021 C.ar    1  UNL1        0.0733
     41 CL         -9.3466  -12.1814   34.3444 Cl      1  UNL1       -0.0809
@<TRIPOS>BOND
     1     1     2    1
     2     2     3   ar
     3     3    32    1
     4    32    34    1
     5    34    35   ar
     6    35    36    1
     7    35    37   ar
     8    37    38   ar
     9    38    39   ar
    10    39    40   ar
    11    40    41    1
    12     3     4   ar
    13     4     5   ar
    14     5     6   ar
    15     6     7    1
    16     6     8   ar
    17     8    17    1
    18    17    18    2
    19    17    19   am
    20    19    21    1
    21    21    22   ar
    22    22    23   ar
    23    23    24   ar
    24    24    25    1
    25    24    26   ar
    26    26    28    1
    27    28    29    1
    28    28    30    1
    29    28    31    1
    30    26    27   ar
    31     8     9   ar
    32     9    10   ar
    33    10    11   ar
    34    10    12    1
    35    12    13    1
    36    13    14    1
    37    14    15    1
    38    11     2   ar
    39    40    34   ar
    40    11     5   ar
    41    27    21   ar
    42    15     9    1
    43    32    33    1
    44     7    16    1
    45    19    20    1
@<TRIPOS>MOLECULE
*****
 41 45 0 0 0
SMALL
GASTEIGER

@<TRIPOS>ATOM
      1 C          -8.9029  -10.3115   31.2970 C.3     1  UNL1        0.1333
      2 N          -9.0987  -11.6050   30.6412 N.ar    1  UNL1       -0.2950
      3 C         -10.1393  -12.4732   30.7738 C.ar    1  UNL1        0.2019
      4 N         -10.0586  -13.5498   29.9525 N.ar    1  UNL1       -0.2129
      5 C          -8.8947  -13.3516   29.3057 C.ar    1  UNL1        0.1086
      6 C          -8.3095  -14.1799   28.3450 C.ar    1  UNL1        0.0482
      7 S          -9.1601  -15.6755   27.8218 S.3     1  UNL1       -0.1397
      8 C          -7.0672  -13.7773   27.7853 C.ar    1  UNL1        0.0975
      9 C          -6.4604  -12.5700   28.2261 C.ar    1  UNL1        0.1787
     10 C          -7.0742  -11.7765   29.2162 C.ar    1  UNL1        0.1897
     11 C          -8.3093  -12.1887   29.7198 C.ar    1  UNL1        0.1178
     12 O          -6.4260  -10.6244   29.6718 O.3     1  UNL1       -0.4669
     13 C          -5.0525  -10.3793   29.3637 C.3     1  UNL1        0.2527
     14 C          -4.7447  -10.8221   27.9288 C.3     1  UNL1        0.2526
     15 O          -5.2292  -12.1484   27.7080 O.3     1  UNL1       -0.4682
     16 H          -9.8395  -14.9927   26.7956 H       1  UNL1        0.1072
     17 C          -6.4017  -14.6001   26.7547 C.2     1  UNL1        0.2531
     18 O          -5.4427  -15.3476   27.0887 O.2     1  UNL1       -0.2697
     19 N          -6.8233  -14.5244   25.3821 N.am    1  UNL1       -0.2803
     20 H          -7.5025  -13.7779   25.1113 H       1  UNL1        0.1552
     21 C          -6.3099  -15.3670   24.3370 C.ar    1  UNL1        0.0506
     22 C          -5.0426  -15.1003   23.8032 C.ar    1  UNL1        0.0170
     23 C          -4.5330  -15.8847   22.7676 C.ar    1  UNL1        0.0309
     24 C          -5.2869  -16.9384   22.2455 C.ar    1  UNL1        0.1441
     25 F          -4.7738  -17.6757   21.2278 F       1  UNL1       -0.2042
     26 C          -6.5672  -17.2182   22.7589 C.ar    1  UNL1        0.1000
     27 C          -7.0796  -16.4115   23.7935 C.ar    1  UNL1        0.0208
     28 C          -7.3902  -18.3328   22.1576 C.3     1  UNL1        0.4207
     29 F          -6.7649  -19.5605   22.2930 F       1  UNL1       -0.1658
     30 F          -8.6178  -18.3880   22.7916 F       1  UNL1       -0.1658
     31 F          -7.5882  -18.0942   20.8093 F       1  UNL1       -0.1658
     32 N         -11.2363  -12.2941   31.6802 N.pl3   1  UNL1       -0.2814
     33 H         -11.8959  -11.5077   31.4864 H       1  UNL1        0.1551
     34 C         -11.5690  -13.2199   32.7294 C.ar    1  UNL1        0.0889
     35 C         -12.6626  -14.1014   32.5994 C.ar    1  UNL1        0.1543
     36 F         -13.4445  -14.0832   31.4906 F       1  UNL1       -0.2028
     37 C         -12.9767  -14.9900   33.6318 C.ar    1  UNL1        0.0310
     38 C         -12.2175  -15.0030   34.8027 C.ar    1  UNL1        0.0033
     39 C         -11.1438  -14.1230   34.9493 C.ar    1  UNL1        0.0128
     40 C         -10.8191  -13.2286   33.9228 C.ar    1  UNL1        0.0733
     41 CL         -9.4409  -12.1576   34.1403 Cl      1  UNL1       -0.0809
@<TRIPOS>BOND
     1     1     2    1
     2     2     3   ar
     3     3    32    1
     4    32    34    1
     5    34    35   ar
     6    35    36    1
     7    35    37   ar
     8    37    38   ar
     9    38    39   ar
    10    39    40   ar
    11    40    41    1
    12     3     4   ar
    13     4     5   ar
    14     5     6   ar
    15     6     7    1
    16     6     8   ar
    17     8    17    1
    18    17    18    2
    19    17    19   am
    20    19    21    1
    21    21    22   ar
    22    22    23   ar
    23    23    24   ar
    24    24    25    1
    25    24    26   ar
    26    26    28    1
    27    28    29    1
    28    28    30    1
    29    28    31    1
    30    26    27   ar
    31     8     9   ar
    32     9    10   ar
    33    10    11   ar
    34    10    12    1
    35    12    13    1
    36    13    14    1
    37    14    15    1
    38    11     2   ar
    39    40    34   ar
    40    11     5   ar
    41    27    21   ar
    42    15     9    1
    43    32    33    1
    44     7    16    1
    45    19    20    1
@<TRIPOS>MOLECULE
*****
 41 45 0 0 0
SMALL
GASTEIGER

@<TRIPOS>ATOM
      1 C          -7.6340  -18.3746   21.3490 C.3     1  UNL1        0.1333
      2 N          -6.9945  -17.4322   22.2678 N.ar    1  UNL1       -0.2950
      3 C          -5.8750  -16.6828   22.0692 C.ar    1  UNL1        0.2019
      4 N          -5.5966  -15.8375   23.0930 N.ar    1  UNL1       -0.2129
      5 C          -6.5741  -16.1025   23.9799 C.ar    1  UNL1        0.1086
      6 C          -6.7566  -15.5199   25.2363 C.ar    1  UNL1        0.0482
      7 S          -5.6327  -14.2306   25.7915 S.3     1  UNL1       -0.1397
      8 C          -7.8636  -15.9502   26.0161 C.ar    1  UNL1        0.0975
      9 C          -8.7283  -16.9566   25.5069 C.ar    1  UNL1        0.1787
     10 C          -8.4926  -17.5354   24.2436 C.ar    1  UNL1        0.1897
     11 C          -7.4133  -17.0647   23.4935 C.ar    1  UNL1        0.1178
     12 O          -9.3259  -18.5641   23.7936 O.3     1  UNL1       -0.4669
     13 C         -10.2303  -19.2236   24.6816 C.3     1  UNL1        0.2527
     14 C         -10.8463  -18.2132   25.6560 C.3     1  UNL1        0.2526
     15 O          -9.8210  -17.4164   26.2530 O.3     1  UNL1       -0.4682
     16 H          -6.4300  -13.2188   25.2246 H       1  UNL1        0.1072
     17 C          -8.1221  -15.3646   27.3475 C.2     1  UNL1        0.2531
     18 O          -7.8126  -16.0207   28.3788 O.2     1  UNL1       -0.2697
     19 N          -8.7480  -14.0754   27.4641 N.am    1  UNL1       -0.2803
     20 H          -9.1419  -13.6346   26.6024 H       1  UNL1        0.1552
     21 C          -8.9349  -13.3835   28.7098 C.ar    1  UNL1        0.0506
     22 C          -7.9405  -12.5062   29.1614 C.ar    1  UNL1        0.0170
     23 C          -8.0835  -11.8444   30.3817 C.ar    1  UNL1        0.0309
     24 C          -9.2162  -12.0586   31.1707 C.ar    1  UNL1        0.1441
     25 F          -9.3225  -11.4141   32.3606 F       1  UNL1       -0.2042
     26 C         -10.2231  -12.9437   30.7422 C.ar    1  UNL1        0.1000
     27 C         -10.0629  -13.6190   29.5166 C.ar    1  UNL1        0.0208
     28 C         -11.4226  -13.1996   31.6236 C.3     1  UNL1        0.4207
     29 F         -11.1527  -12.9128   32.9507 F       1  UNL1       -0.1658
     30 F         -12.4757  -12.4078   31.2039 F       1  UNL1       -0.1658
     31 F         -11.7940  -14.5295   31.5350 F       1  UNL1       -0.1658
     32 N          -5.0494  -16.7500   20.8984 N.pl3   1  UNL1       -0.2814
     33 H          -5.4137  -16.3027   20.0276 H       1  UNL1        0.1551
     34 C          -3.6993  -17.2458   20.8965 C.ar    1  UNL1        0.0889
     35 C          -2.6437  -16.4780   21.4315 C.ar    1  UNL1        0.1543
     36 F          -2.8703  -15.2410   21.9409 F       1  UNL1       -0.2028
     37 C          -1.3360  -16.9718   21.4152 C.ar    1  UNL1        0.0310
     38 C          -1.0643  -18.2226   20.8593 C.ar    1  UNL1        0.0033
     39 C          -2.0986  -18.9834   20.3113 C.ar    1  UNL1        0.0128
     40 C          -3.4121  -18.5003   20.3216 C.ar    1  UNL1        0.0733
     41 CL         -4.6872  -19.5055   19.6451 Cl      1  UNL1       -0.0809
@<TRIPOS>BOND
     1     1     2    1
     2     2     3   ar
     3     3    32    1
     4    32    34    1
     5    34    35   ar
     6    35    36    1
     7    35    37   ar
     8    37    38   ar
     9    38    39   ar
    10    39    40   ar
    11    40    41    1
    12     3     4   ar
    13     4     5   ar
    14     5     6   ar
    15     6     7    1
    16     6     8   ar
    17     8    17    1
    18    17    18    2
    19    17    19   am
    20    19    21    1
    21    21    22   ar
    22    22    23   ar
    23    23    24   ar
    24    24    25    1
    25    24    26   ar
    26    26    28    1
    27    28    29    1
    28    28    30    1
    29    28    31    1
    30    26    27   ar
    31     8     9   ar
    32     9    10   ar
    33    10    11   ar
    34    10    12    1
    35    12    13    1
    36    13    14    1
    37    14    15    1
    38    11     2   ar
    39    40    34   ar
    40    11     5   ar
    41    27    21   ar
    42    15     9    1
    43    32    33    1
    44     7    16    1
    45    19    20    1
