@<TRIPOS>MOLECULE
*****
 35 39 0 0 0
SMALL
GASTEIGER

@<TRIPOS>ATOM
      1 N          48.1323   12.5637  -24.0299 N.3     1  UNL1       -0.2679
      2 C          49.1991   11.7003  -23.4381 C.3     1  UNL1        0.0978
      3 C          48.6357   10.4266  -22.7367 C.3     1  UNL1        0.0224
      4 C          49.6910    9.3304  -22.5974 C.3     1  UNL1        0.0065
      5 C          50.2063    8.9219  -23.9755 C.3     1  UNL1        0.0277
      6 C          50.7613   10.1100  -24.7120 C.ar    1  UNL1       -0.0073
      7 C          51.7533    9.9255  -25.6854 C.ar    1  UNL1       -0.0015
      8 C          52.2829   11.0238  -26.3620 C.ar    1  UNL1        0.0203
      9 C          51.8151   12.3014  -26.0600 C.ar    1  UNL1        0.0985
     10 N          50.8378   12.4653  -25.1310 N.ar    1  UNL1       -0.2471
     11 C          50.2748   11.4143  -24.4722 C.ar    1  UNL1        0.0695
     12 C          47.1135   11.7932  -24.7968 C.3     1  UNL1        0.0886
     13 C          45.9598   12.6374  -31.2321 C.ar    1  UNL1       -0.0003
     14 C          46.3318   11.3054  -31.0404 C.ar    1  UNL1       -0.0003
     15 C          46.5931   10.8291  -29.7533 C.ar    1  UNL1       -0.0045
     16 C          46.4937   11.6866  -28.6467 C.ar    1  UNL1       -0.0234
     17 C          46.0892   13.0274  -28.8374 C.ar    1  UNL1       -0.0103
     18 C          45.8430   13.4971  -30.1368 C.ar    1  UNL1       -0.0032
     19 C          46.0191   13.9912  -27.6725 C.3     1  UNL1        0.0953
     20 N          45.9275   13.3024  -26.3765 N.3     1  UNL1       -0.2934
     21 C          46.9724   12.2743  -26.2581 C.3     1  UNL1        0.0748
     22 C          46.7105   11.1378  -27.2609 C.3     1  UNL1        0.0432
     23 H          44.9862   12.8458  -26.3186 H       1  UNL1        0.1236
     24 C          47.5043   13.4622  -23.0266 C.3     1  UNL1        0.0725
     25 C          47.6956   14.9512  -23.3653 C.3     1  UNL1        0.0188
     26 C          48.9694   15.5412  -22.7388 C.3     1  UNL1        0.0185
     27 C          50.1041   15.6481  -23.7616 C.3     1  UNL1        0.0686
     28 N          49.9863   16.8991  -24.5255 N.3     1  UNL1       -0.2984
     29 H          48.9687   17.1469  -24.5424 H       1  UNL1        0.1232
     30 C          50.4862   16.7464  -25.9081 C.3     1  UNL1        0.0590
     31 C          50.7624   18.1291  -26.5296 C.3     1  UNL1        0.0478
     32 C          49.4443   18.8665  -26.8064 C.3     1  UNL1        0.1435
     33 O          48.6154   18.1137  -27.6726 O.3     1  UNL1       -0.3537
     34 C          48.2334   16.9027  -27.0468 C.3     1  UNL1        0.1435
     35 C          49.4561   16.0106  -26.7892 C.3     1  UNL1        0.0478
@<TRIPOS>BOND
     1    13    14   ar
     2    14    15   ar
     3    15    16   ar
     4    16    17   ar
     5    17    18   ar
     6    17    19    1
     7    19    20    1
     8    20    21    1
     9    21    12    1
    10    12     1    1
    11     1    24    1
    12    24    25    1
    13    25    26    1
    14    26    27    1
    15    27    28    1
    16    28    30    1
    17    30    31    1
    18    31    32    1
    19    32    33    1
    20    33    34    1
    21    34    35    1
    22     1     2    1
    23     2     3    1
    24     3     4    1
    25     4     5    1
    26     5     6    1
    27     6     7   ar
    28     7     8   ar
    29     8     9   ar
    30     9    10   ar
    31    10    11   ar
    32    21    22    1
    33    18    13   ar
    34    35    30    1
    35    11     2    1
    36    22    16    1
    37    11     6   ar
    38    20    23    1
    39    28    29    1
@<TRIPOS>MOLECULE
*****
 35 39 0 0 0
SMALL
GASTEIGER

@<TRIPOS>ATOM
      1 N          47.8569   13.5505  -23.7937 N.3     1  UNL1       -0.2679
      2 C          48.1515   12.7295  -22.5801 C.3     1  UNL1        0.0978
      3 C          46.8837   12.4274  -21.7238 C.3     1  UNL1        0.0224
      4 C          47.0763   11.2130  -20.8166 C.3     1  UNL1        0.0065
      5 C          47.3846    9.9759  -21.6569 C.3     1  UNL1        0.0277
      6 C          48.5988   10.2020  -22.5151 C.ar    1  UNL1       -0.0073
      7 C          49.3827    9.1106  -22.9152 C.ar    1  UNL1       -0.0015
      8 C          50.5179    9.3140  -23.6989 C.ar    1  UNL1        0.0203
      9 C          50.8615   10.6104  -24.0782 C.ar    1  UNL1        0.0985
     10 N          50.0818   11.6574  -23.7032 N.ar    1  UNL1       -0.2471
     11 C          48.9490   11.4947  -22.9643 C.ar    1  UNL1        0.0695
     12 C          46.5554   13.2063  -24.4319 C.3     1  UNL1        0.0886
     13 C          46.3532   11.5964  -30.8213 C.ar    1  UNL1       -0.0003
     14 C          46.5996   10.4277  -30.0984 C.ar    1  UNL1       -0.0003
     15 C          46.6483   10.4642  -28.7026 C.ar    1  UNL1       -0.0045
     16 C          46.4604   11.6751  -28.0185 C.ar    1  UNL1       -0.0234
     17 C          46.1823   12.8529  -28.7487 C.ar    1  UNL1       -0.0103
     18 C          46.1497   12.8054  -30.1510 C.ar    1  UNL1       -0.0032
     19 C          46.0228   14.1837  -28.0457 C.3     1  UNL1        0.0953
     20 N          45.7065   14.0320  -26.6177 N.3     1  UNL1       -0.2934
     21 C          46.6495   13.1073  -25.9708 C.3     1  UNL1        0.0748
     22 C          46.4465   11.6820  -26.5124 C.3     1  UNL1        0.0432
     23 H          44.7359   13.6446  -26.5407 H       1  UNL1        0.1236
     24 C          47.9773   15.0094  -23.5379 C.3     1  UNL1        0.0725
     25 C          46.6220   15.7353  -23.6082 C.3     1  UNL1        0.0188
     26 C          46.7585   17.2587  -23.4532 C.3     1  UNL1        0.0185
     27 C          46.8168   17.9614  -24.8125 C.3     1  UNL1        0.0686
     28 N          48.2000   18.3480  -25.1282 N.3     1  UNL1       -0.2984
     29 H          48.3269   19.3264  -24.7763 H       1  UNL1        0.1232
     30 C          48.4639   18.3020  -26.5818 C.3     1  UNL1        0.0590
     31 C          48.4188   16.8461  -27.0848 C.3     1  UNL1        0.0478
     32 C          49.6355   16.0626  -26.5717 C.3     1  UNL1        0.1435
     33 O          50.8430   16.6721  -26.9896 O.3     1  UNL1       -0.3537
     34 C          50.9635   17.9576  -26.4091 C.3     1  UNL1        0.1435
     35 C          49.8515   18.8903  -26.9097 C.3     1  UNL1        0.0478
@<TRIPOS>BOND
     1    13    14   ar
     2    14    15   ar
     3    15    16   ar
     4    16    17   ar
     5    17    18   ar
     6    17    19    1
     7    19    20    1
     8    20    21    1
     9    21    12    1
    10    12     1    1
    11     1    24    1
    12    24    25    1
    13    25    26    1
    14    26    27    1
    15    27    28    1
    16    28    30    1
    17    30    31    1
    18    31    32    1
    19    32    33    1
    20    33    34    1
    21    34    35    1
    22     1     2    1
    23     2     3    1
    24     3     4    1
    25     4     5    1
    26     5     6    1
    27     6     7   ar
    28     7     8   ar
    29     8     9   ar
    30     9    10   ar
    31    10    11   ar
    32    21    22    1
    33    18    13   ar
    34    35    30    1
    35    11     2    1
    36    22    16    1
    37    11     6   ar
    38    20    23    1
    39    28    29    1
@<TRIPOS>MOLECULE
*****
 35 39 0 0 0
SMALL
GASTEIGER

@<TRIPOS>ATOM
      1 N          48.1247   13.0966  -24.2856 N.3     1  UNL1       -0.2679
      2 C          48.2272   12.4934  -22.9220 C.3     1  UNL1        0.0978
      3 C          46.8663   12.4673  -22.1611 C.3     1  UNL1        0.0224
      4 C          46.8530   11.4310  -21.0383 C.3     1  UNL1        0.0065
      5 C          47.1015   10.0370  -21.6099 C.3     1  UNL1        0.0277
      6 C          48.4016    9.9931  -22.3647 C.ar    1  UNL1       -0.0073
      7 C          49.0988    8.7825  -22.4822 C.ar    1  UNL1       -0.0015
      8 C          50.3119    8.7370  -23.1683 C.ar    1  UNL1        0.0203
      9 C          50.8199    9.9053  -23.7337 C.ar    1  UNL1        0.0985
     10 N          50.1243   11.0675  -23.6323 N.ar    1  UNL1       -0.2471
     11 C          48.9217   11.1442  -22.9971 C.ar    1  UNL1        0.0695
     12 C          46.7470   13.0379  -24.8499 C.3     1  UNL1        0.0886
     13 C          46.1242   11.9620  -31.3239 C.ar    1  UNL1       -0.0003
     14 C          46.4637   10.7477  -30.7242 C.ar    1  UNL1       -0.0003
     15 C          46.6150   10.6691  -29.3376 C.ar    1  UNL1       -0.0045
     16 C          46.4373   11.8099  -28.5396 C.ar    1  UNL1       -0.0234
     17 C          46.0654   13.0325  -29.1434 C.ar    1  UNL1       -0.0103
     18 C          45.9300   13.1014  -30.5387 C.ar    1  UNL1       -0.0032
     19 C          45.9135   14.2922  -28.3184 C.3     1  UNL1        0.0953
     20 N          45.7098   14.0087  -26.8900 N.3     1  UNL1       -0.2934
     21 C          46.7295   13.0720  -26.3944 C.3     1  UNL1        0.0748
     22 C          46.5355   11.6900  -27.0413 C.3     1  UNL1        0.0432
     23 H          44.7615   13.5774  -26.7776 H       1  UNL1        0.1236
     24 C          48.6871   14.4708  -24.3449 C.3     1  UNL1        0.0725
     25 C          50.2167   14.4763  -24.5147 C.3     1  UNL1        0.0188
     26 C          50.9562   14.7829  -23.2023 C.3     1  UNL1        0.0185
     27 C          52.0081   13.7163  -22.8848 C.3     1  UNL1        0.0686
     28 N          51.5758   12.8972  -21.7426 N.3     1  UNL1       -0.2984
     29 H          50.7549   12.3345  -22.0693 H       1  UNL1        0.1232
     30 C          51.1817   13.7313  -20.5878 C.3     1  UNL1        0.0590
     31 C          52.3640   13.8799  -19.6108 C.3     1  UNL1        0.0478
     32 C          52.6384   12.5503  -18.8934 C.3     1  UNL1        0.1435
     33 O          51.4925   12.1097  -18.1885 O.3     1  UNL1       -0.3537
     34 C          50.4438   11.8267  -19.0963 C.3     1  UNL1        0.1435
     35 C          49.9966   13.0994  -19.8294 C.3     1  UNL1        0.0478
@<TRIPOS>BOND
     1    13    14   ar
     2    14    15   ar
     3    15    16   ar
     4    16    17   ar
     5    17    18   ar
     6    17    19    1
     7    19    20    1
     8    20    21    1
     9    21    12    1
    10    12     1    1
    11     1    24    1
    12    24    25    1
    13    25    26    1
    14    26    27    1
    15    27    28    1
    16    28    30    1
    17    30    31    1
    18    31    32    1
    19    32    33    1
    20    33    34    1
    21    34    35    1
    22     1     2    1
    23     2     3    1
    24     3     4    1
    25     4     5    1
    26     5     6    1
    27     6     7   ar
    28     7     8   ar
    29     8     9   ar
    30     9    10   ar
    31    10    11   ar
    32    21    22    1
    33    18    13   ar
    34    35    30    1
    35    11     2    1
    36    22    16    1
    37    11     6   ar
    38    20    23    1
    39    28    29    1
@<TRIPOS>MOLECULE
*****
 35 39 0 0 0
SMALL
GASTEIGER

@<TRIPOS>ATOM
      1 N          48.1458   13.0590  -24.0036 N.3     1  UNL1       -0.2679
      2 C          48.5152   12.2888  -22.7773 C.3     1  UNL1        0.0978
      3 C          47.3025   12.0239  -21.8333 C.3     1  UNL1        0.0224
      4 C          47.5520   10.8481  -20.8899 C.3     1  UNL1        0.0065
      5 C          47.8103    9.5767  -21.6953 C.3     1  UNL1        0.0277
      6 C          48.9695    9.7658  -22.6347 C.ar    1  UNL1       -0.0073
      7 C          49.7291    8.6579  -23.0362 C.ar    1  UNL1       -0.0015
      8 C          50.8141    8.8275  -23.8956 C.ar    1  UNL1        0.0203
      9 C          51.1320   10.1066  -24.3487 C.ar    1  UNL1        0.0985
     10 N          50.3749   11.1691  -23.9705 N.ar    1  UNL1       -0.2471
     11 C          49.2896   11.0384  -23.1577 C.ar    1  UNL1        0.0695
     12 C          46.8510   12.6254  -24.5997 C.3     1  UNL1        0.0886
     13 C          46.2741   11.7076  -31.1022 C.ar    1  UNL1       -0.0003
     14 C          46.5941   10.4758  -30.5280 C.ar    1  UNL1       -0.0003
     15 C          46.7321   10.3632  -29.1423 C.ar    1  UNL1       -0.0045
     16 C          46.5603   11.4872  -28.3195 C.ar    1  UNL1       -0.0234
     17 C          46.2081   12.7277  -28.8980 C.ar    1  UNL1       -0.0103
     18 C          46.0860   12.8306  -30.2924 C.ar    1  UNL1       -0.0032
     19 C          46.0632   13.9697  -28.0451 C.3     1  UNL1        0.0953
     20 N          45.8435   13.6555  -26.6255 N.3     1  UNL1       -0.2934
     21 C          46.8478   12.6956  -26.1430 C.3     1  UNL1        0.0748
     22 C          46.6437   11.3314  -26.8237 C.3     1  UNL1        0.0432
     23 H          44.8893   13.2328  -26.5316 H       1  UNL1        0.1236
     24 C          48.1894   14.5288  -23.7885 C.3     1  UNL1        0.0725
     25 C          49.6266   15.0781  -23.7528 C.3     1  UNL1        0.0188
     26 C          50.4346   14.7020  -25.0054 C.3     1  UNL1        0.0185
     27 C          49.8955   15.4019  -26.2561 C.3     1  UNL1        0.0686
     28 N          49.8197   16.8538  -26.0357 N.3     1  UNL1       -0.2984
     29 H          49.4636   16.9921  -25.0603 H       1  UNL1        0.1232
     30 C          48.9075   17.5075  -26.9977 C.3     1  UNL1        0.0590
     31 C          48.9925   19.0394  -26.8547 C.3     1  UNL1        0.0478
     32 C          48.3513   19.4921  -25.5349 C.3     1  UNL1        0.1435
     33 O          46.9980   19.0830  -25.4633 O.3     1  UNL1       -0.3537
     34 C          46.9191   17.6697  -25.4433 C.3     1  UNL1        0.1435
     35 C          47.4473   17.0737  -26.7559 C.3     1  UNL1        0.0478
@<TRIPOS>BOND
     1    13    14   ar
     2    14    15   ar
     3    15    16   ar
     4    16    17   ar
     5    17    18   ar
     6    17    19    1
     7    19    20    1
     8    20    21    1
     9    21    12    1
    10    12     1    1
    11     1    24    1
    12    24    25    1
    13    25    26    1
    14    26    27    1
    15    27    28    1
    16    28    30    1
    17    30    31    1
    18    31    32    1
    19    32    33    1
    20    33    34    1
    21    34    35    1
    22     1     2    1
    23     2     3    1
    24     3     4    1
    25     4     5    1
    26     5     6    1
    27     6     7   ar
    28     7     8   ar
    29     8     9   ar
    30     9    10   ar
    31    10    11   ar
    32    21    22    1
    33    18    13   ar
    34    35    30    1
    35    11     2    1
    36    22    16    1
    37    11     6   ar
    38    20    23    1
    39    28    29    1
@<TRIPOS>MOLECULE
*****
 35 39 0 0 0
SMALL
GASTEIGER

@<TRIPOS>ATOM
      1 N          48.1907   12.1357  -24.1814 N.3     1  UNL1       -0.2679
      2 C          48.1418   10.8625  -23.4004 C.3     1  UNL1        0.0978
      3 C          49.4625   10.0382  -23.4917 C.3     1  UNL1        0.0224
      4 C          49.6065    9.0497  -22.3355 C.3     1  UNL1        0.0065
      5 C          49.6077    9.7978  -21.0044 C.3     1  UNL1        0.0277
      6 C          48.3582   10.6212  -20.8534 C.ar    1  UNL1       -0.0073
      7 C          47.8717   10.9213  -19.5732 C.ar    1  UNL1       -0.0015
      8 C          46.7059   11.6720  -19.4256 C.ar    1  UNL1        0.0203
      9 C          46.0338   12.1187  -20.5619 C.ar    1  UNL1        0.0985
     10 N          46.5272   11.8406  -21.7965 N.ar    1  UNL1       -0.2471
     11 C          47.6792   11.1371  -21.9796 C.ar    1  UNL1        0.0695
     12 C          46.8586   12.5568  -24.6992 C.3     1  UNL1        0.0886
     13 C          46.1814   11.9190  -31.2254 C.ar    1  UNL1       -0.0003
     14 C          46.5212   10.6662  -30.7111 C.ar    1  UNL1       -0.0003
     15 C          46.6830   10.4944  -29.3342 C.ar    1  UNL1       -0.0045
     16 C          46.5157   11.5798  -28.4602 C.ar    1  UNL1       -0.0234
     17 C          46.1435   12.8411  -28.9778 C.ar    1  UNL1       -0.0103
     18 C          45.9974   13.0038  -30.3642 C.ar    1  UNL1       -0.0032
     19 C          46.0025   14.0432  -28.0690 C.3     1  UNL1        0.0953
     20 N          45.8090   13.6653  -26.6612 N.3     1  UNL1       -0.2934
     21 C          46.8291   12.6943  -26.2377 C.3     1  UNL1        0.0748
     22 C          46.6252   11.3594  -26.9742 C.3     1  UNL1        0.0432
     23 H          44.8600   13.2303  -26.5704 H       1  UNL1        0.1236
     24 C          48.8669   13.2328  -23.4415 C.3     1  UNL1        0.0725
     25 C          47.9565   14.4568  -23.2378 C.3     1  UNL1        0.0188
     26 C          48.7469   15.7326  -22.9048 C.3     1  UNL1        0.0185
     27 C          50.0133   15.8508  -23.7576 C.3     1  UNL1        0.0686
     28 N          49.9713   17.0784  -24.5661 N.3     1  UNL1       -0.2984
     29 H          48.9710   17.3885  -24.5910 H       1  UNL1        0.1232
     30 C          50.4561   16.8450  -25.9428 C.3     1  UNL1        0.0590
     31 C          50.7288   18.1888  -26.6457 C.3     1  UNL1        0.0478
     32 C          49.4096   18.9130  -26.9507 C.3     1  UNL1        0.1435
     33 O          48.5698   18.1140  -27.7633 O.3     1  UNL1       -0.3537
     34 C          48.1917   16.9421  -27.0650 C.3     1  UNL1        0.1435
     35 C          49.4150   16.0628  -26.7693 C.3     1  UNL1        0.0478
@<TRIPOS>BOND
     1    13    14   ar
     2    14    15   ar
     3    15    16   ar
     4    16    17   ar
     5    17    18   ar
     6    17    19    1
     7    19    20    1
     8    20    21    1
     9    21    12    1
    10    12     1    1
    11     1    24    1
    12    24    25    1
    13    25    26    1
    14    26    27    1
    15    27    28    1
    16    28    30    1
    17    30    31    1
    18    31    32    1
    19    32    33    1
    20    33    34    1
    21    34    35    1
    22     1     2    1
    23     2     3    1
    24     3     4    1
    25     4     5    1
    26     5     6    1
    27     6     7   ar
    28     7     8   ar
    29     8     9   ar
    30     9    10   ar
    31    10    11   ar
    32    21    22    1
    33    18    13   ar
    34    35    30    1
    35    11     2    1
    36    22    16    1
    37    11     6   ar
    38    20    23    1
    39    28    29    1
@<TRIPOS>MOLECULE
*****
 35 39 0 0 0
SMALL
GASTEIGER

@<TRIPOS>ATOM
      1 N          48.7117   12.9913  -22.4985 N.3     1  UNL1       -0.2679
      2 C          49.3490   11.8851  -21.7214 C.3     1  UNL1        0.0978
      3 C          48.4765   11.3973  -20.5244 C.3     1  UNL1        0.0224
      4 C          48.8583    9.9898  -20.0683 C.3     1  UNL1        0.0065
      5 C          48.6790    9.0006  -21.2177 C.3     1  UNL1        0.0277
      6 C          49.4928    9.4164  -22.4122 C.ar    1  UNL1       -0.0073
      7 C          49.9341    8.4489  -23.3259 C.ar    1  UNL1       -0.0015
      8 C          50.7012    8.8251  -24.4279 C.ar    1  UNL1        0.0203
      9 C          51.0217   10.1694  -24.6089 C.ar    1  UNL1        0.0985
     10 N          50.5695   11.1002  -23.7291 N.ar    1  UNL1       -0.2471
     11 C          49.7923   10.7746  -22.6587 C.ar    1  UNL1        0.0695
     12 C          47.2503   12.7925  -22.7095 C.3     1  UNL1        0.0886
     13 C          45.7728   14.3244  -28.9487 C.ar    1  UNL1       -0.0003
     14 C          45.3265   15.3709  -28.1393 C.ar    1  UNL1       -0.0003
     15 C          45.5507   15.3352  -26.7608 C.ar    1  UNL1       -0.0045
     16 C          46.2159   14.2448  -26.1791 C.ar    1  UNL1       -0.0234
     17 C          46.6931   13.1993  -27.0017 C.ar    1  UNL1       -0.0103
     18 C          46.4493   13.2405  -28.3832 C.ar    1  UNL1       -0.0032
     19 C          47.3709   11.9862  -26.4019 C.3     1  UNL1        0.0953
     20 N          47.8865   12.2408  -25.0485 N.3     1  UNL1       -0.2934
     21 C          46.8472   12.8431  -24.2000 C.3     1  UNL1        0.0748
     22 C          46.5102   14.2575  -24.7019 C.3     1  UNL1        0.0432
     23 H          48.6933   12.9045  -25.1292 H       1  UNL1        0.1236
     24 C          49.0098   14.3319  -21.9308 C.3     1  UNL1        0.0725
     25 C          49.6800   15.2695  -22.9507 C.3     1  UNL1        0.0188
     26 C          50.7797   14.5685  -23.7647 C.3     1  UNL1        0.0185
     27 C          50.4823   14.6080  -25.2664 C.3     1  UNL1        0.0686
     28 N          49.4255   15.5899  -25.5517 N.3     1  UNL1       -0.2984
     29 H          48.5422   15.0469  -25.7002 H       1  UNL1        0.1232
     30 C          49.7299   16.3879  -26.7581 C.3     1  UNL1        0.0590
     31 C          50.9228   17.3254  -26.4888 C.3     1  UNL1        0.0478
     32 C          50.5156   18.4497  -25.5255 C.3     1  UNL1        0.1435
     33 O          49.4332   19.1971  -26.0487 O.3     1  UNL1       -0.3537
     34 C          48.2855   18.3758  -26.1594 C.3     1  UNL1        0.1435
     35 C          48.5171   17.2459  -27.1727 C.3     1  UNL1        0.0478
@<TRIPOS>BOND
     1    13    14   ar
     2    14    15   ar
     3    15    16   ar
     4    16    17   ar
     5    17    18   ar
     6    17    19    1
     7    19    20    1
     8    20    21    1
     9    21    12    1
    10    12     1    1
    11     1    24    1
    12    24    25    1
    13    25    26    1
    14    26    27    1
    15    27    28    1
    16    28    30    1
    17    30    31    1
    18    31    32    1
    19    32    33    1
    20    33    34    1
    21    34    35    1
    22     1     2    1
    23     2     3    1
    24     3     4    1
    25     4     5    1
    26     5     6    1
    27     6     7   ar
    28     7     8   ar
    29     8     9   ar
    30     9    10   ar
    31    10    11   ar
    32    21    22    1
    33    18    13   ar
    34    35    30    1
    35    11     2    1
    36    22    16    1
    37    11     6   ar
    38    20    23    1
    39    28    29    1
@<TRIPOS>MOLECULE
*****
 35 39 0 0 0
SMALL
GASTEIGER

@<TRIPOS>ATOM
      1 N          49.1234   14.1224  -24.3905 N.3     1  UNL1       -0.2679
      2 C          49.5638   15.5135  -24.7135 C.3     1  UNL1        0.0978
      3 C          50.2046   15.6385  -26.1297 C.3     1  UNL1        0.0224
      4 C          50.1781   17.0750  -26.6500 C.3     1  UNL1        0.0065
      5 C          48.7374   17.5733  -26.7377 C.3     1  UNL1        0.0277
      6 C          48.0557   17.4746  -25.4007 C.ar    1  UNL1       -0.0073
      7 C          46.9987   18.3422  -25.0915 C.ar    1  UNL1       -0.0015
      8 C          46.3714   18.2661  -23.8484 C.ar    1  UNL1        0.0203
      9 C          46.8064   17.3204  -22.9217 C.ar    1  UNL1        0.0985
     10 N          47.8166   16.4704  -23.2412 N.ar    1  UNL1       -0.2471
     11 C          48.4323   16.4941  -24.4561 C.ar    1  UNL1        0.0695
     12 C          47.6832   13.8805  -24.6857 C.3     1  UNL1        0.0886
     13 C          45.9943   11.7562  -30.6934 C.ar    1  UNL1       -0.0003
     14 C          46.4332   10.6508  -29.9620 C.ar    1  UNL1       -0.0003
     15 C          46.8138   10.8008  -28.6261 C.ar    1  UNL1       -0.0045
     16 C          46.7674   12.0627  -28.0135 C.ar    1  UNL1       -0.0234
     17 C          46.2958   13.1762  -28.7450 C.ar    1  UNL1       -0.0103
     18 C          45.9296   13.0149  -30.0903 C.ar    1  UNL1       -0.0032
     19 C          46.2789   14.5592  -28.1304 C.3     1  UNL1        0.0953
     20 N          46.3172   14.5229  -26.6609 N.3     1  UNL1       -0.2934
     21 C          47.4085   13.6571  -26.1895 C.3     1  UNL1        0.0748
     22 C          47.1144   12.1918  -26.5535 C.3     1  UNL1        0.0432
     23 H          45.4024   14.1398  -26.3228 H       1  UNL1        0.1236
     24 C          49.9945   13.0902  -25.0102 C.3     1  UNL1        0.0725
     25 C          50.3870   11.9776  -24.0220 C.3     1  UNL1        0.0188
     26 C          50.1786   10.5698  -24.6034 C.3     1  UNL1        0.0185
     27 C          50.3148    9.4889  -23.5272 C.3     1  UNL1        0.0686
     28 N          50.2968   10.0966  -22.1883 N.3     1  UNL1       -0.2984
     29 H          51.2806   10.0649  -21.8300 H       1  UNL1        0.1232
     30 C          49.4054    9.3631  -21.2653 C.3     1  UNL1        0.0590
     31 C          47.9311    9.6611  -21.6004 C.3     1  UNL1        0.0478
     32 C          47.5747   11.1050  -21.2183 C.3     1  UNL1        0.1435
     33 O          47.8043   11.3353  -19.8405 O.3     1  UNL1       -0.3537
     34 C          49.1844   11.2097  -19.5513 C.3     1  UNL1        0.1435
     35 C          49.6673    9.7740  -19.8019 C.3     1  UNL1        0.0478
@<TRIPOS>BOND
     1    13    14   ar
     2    14    15   ar
     3    15    16   ar
     4    16    17   ar
     5    17    18   ar
     6    17    19    1
     7    19    20    1
     8    20    21    1
     9    21    12    1
    10    12     1    1
    11     1    24    1
    12    24    25    1
    13    25    26    1
    14    26    27    1
    15    27    28    1
    16    28    30    1
    17    30    31    1
    18    31    32    1
    19    32    33    1
    20    33    34    1
    21    34    35    1
    22     1     2    1
    23     2     3    1
    24     3     4    1
    25     4     5    1
    26     5     6    1
    27     6     7   ar
    28     7     8   ar
    29     8     9   ar
    30     9    10   ar
    31    10    11   ar
    32    21    22    1
    33    18    13   ar
    34    35    30    1
    35    11     2    1
    36    22    16    1
    37    11     6   ar
    38    20    23    1
    39    28    29    1
@<TRIPOS>MOLECULE
*****
 35 39 0 0 0
SMALL
GASTEIGER

@<TRIPOS>ATOM
      1 N          47.6629   12.5724  -24.8498 N.3     1  UNL1       -0.2679
      2 C          48.0953   12.1034  -23.4983 C.3     1  UNL1        0.0978
      3 C          46.9007   11.8467  -22.5292 C.3     1  UNL1        0.0224
      4 C          47.2803   10.9138  -21.3801 C.3     1  UNL1        0.0065
      5 C          47.7401    9.5658  -21.9307 C.3     1  UNL1        0.0277
      6 C          48.8921    9.7418  -22.8814 C.ar    1  UNL1       -0.0073
      7 C          49.8118    8.6993  -23.0627 C.ar    1  UNL1       -0.0015
      8 C          50.8904    8.8605  -23.9315 C.ar    1  UNL1        0.0203
      9 C          51.0416   10.0658  -24.6148 C.ar    1  UNL1        0.0985
     10 N          50.1316   11.0604  -24.4479 N.ar    1  UNL1       -0.2471
     11 C          49.0488   10.9282  -23.6320 C.ar    1  UNL1        0.0695
     12 C          46.3156   12.0706  -25.2406 C.3     1  UNL1        0.0886
     13 C          46.1613   12.0134  -31.8308 C.ar    1  UNL1       -0.0003
     14 C          45.6413   13.2377  -31.4063 C.ar    1  UNL1       -0.0003
     15 C          45.5959   13.5453  -30.0443 C.ar    1  UNL1       -0.0045
     16 C          46.0623   12.6239  -29.0938 C.ar    1  UNL1       -0.0234
     17 C          46.6152   11.3967  -29.5249 C.ar    1  UNL1       -0.0103
     18 C          46.6424   11.0940  -30.8951 C.ar    1  UNL1       -0.0032
     19 C          47.0821   10.3608  -28.5251 C.3     1  UNL1        0.0953
     20 N          47.3466   10.9376  -27.1986 N.3     1  UNL1       -0.2934
     21 C          46.2081   11.7527  -26.7487 C.3     1  UNL1        0.0748
     22 C          46.0701   13.0017  -27.6358 C.3     1  UNL1        0.0432
     23 H          48.1973   11.5448  -27.2735 H       1  UNL1        0.1236
     24 C          47.7682   14.0468  -25.0022 C.3     1  UNL1        0.0725
     25 C          46.6054   14.7950  -24.3264 C.3     1  UNL1        0.0188
     26 C          47.0793   16.0028  -23.5017 C.3     1  UNL1        0.0185
     27 C          47.0569   17.2930  -24.3261 C.3     1  UNL1        0.0686
     28 N          48.4231   17.6752  -24.7130 N.3     1  UNL1       -0.2984
     29 H          48.4198   18.7148  -24.8418 H       1  UNL1        0.1232
     30 C          48.8413   17.0179  -25.9691 C.3     1  UNL1        0.0590
     31 C          50.3648   16.7867  -25.9668 C.3     1  UNL1        0.0478
     32 C          51.1108   18.1214  -26.1074 C.3     1  UNL1        0.1435
     33 O          50.7338   18.7890  -27.2975 O.3     1  UNL1       -0.3537
     34 C          49.3632   19.1391  -27.2436 C.3     1  UNL1        0.1435
     35 C          48.4797   17.8846  -27.1926 C.3     1  UNL1        0.0478
@<TRIPOS>BOND
     1    13    14   ar
     2    14    15   ar
     3    15    16   ar
     4    16    17   ar
     5    17    18   ar
     6    17    19    1
     7    19    20    1
     8    20    21    1
     9    21    12    1
    10    12     1    1
    11     1    24    1
    12    24    25    1
    13    25    26    1
    14    26    27    1
    15    27    28    1
    16    28    30    1
    17    30    31    1
    18    31    32    1
    19    32    33    1
    20    33    34    1
    21    34    35    1
    22     1     2    1
    23     2     3    1
    24     3     4    1
    25     4     5    1
    26     5     6    1
    27     6     7   ar
    28     7     8   ar
    29     8     9   ar
    30     9    10   ar
    31    10    11   ar
    32    21    22    1
    33    18    13   ar
    34    35    30    1
    35    11     2    1
    36    22    16    1
    37    11     6   ar
    38    20    23    1
    39    28    29    1
@<TRIPOS>MOLECULE
*****
 35 39 0 0 0
SMALL
GASTEIGER

@<TRIPOS>ATOM
      1 N          47.3295   15.2998  -24.5246 N.3     1  UNL1       -0.2679
      2 C          47.2383   16.5219  -25.3801 C.3     1  UNL1        0.0978
      3 C          46.3554   17.6434  -24.7519 C.3     1  UNL1        0.0224
      4 C          46.6676   19.0195  -25.3381 C.3     1  UNL1        0.0065
      5 C          48.1314   19.3750  -25.0880 C.3     1  UNL1        0.0277
      6 C          49.0419   18.3268  -25.6661 C.ar    1  UNL1       -0.0073
      7 C          50.3422   18.6732  -26.0597 C.ar    1  UNL1       -0.0015
      8 C          51.1871   17.7100  -26.6099 C.ar    1  UNL1        0.0203
      9 C          50.7247   16.4040  -26.7622 C.ar    1  UNL1        0.0985
     10 N          49.4707   16.0755  -26.3565 N.ar    1  UNL1       -0.2471
     11 C          48.6282   16.9815  -25.7866 C.ar    1  UNL1        0.0695
     12 C          47.5353   15.6089  -23.0818 C.3     1  UNL1        0.0886
     13 C          53.1674   13.4685  -20.4067 C.ar    1  UNL1       -0.0003
     14 C          52.1578   13.3011  -19.4570 C.ar    1  UNL1       -0.0003
     15 C          50.8374   13.6315  -19.7722 C.ar    1  UNL1       -0.0045
     16 C          50.5182   14.1427  -21.0397 C.ar    1  UNL1       -0.0234
     17 C          51.5352   14.2851  -22.0107 C.ar    1  UNL1       -0.0103
     18 C          52.8598   13.9625  -21.6770 C.ar    1  UNL1       -0.0032
     19 C          51.2342   14.8785  -23.3702 C.3     1  UNL1        0.0953
     20 N          49.8050   14.8123  -23.7096 N.3     1  UNL1       -0.2934
     21 C          48.9840   15.3473  -22.6130 C.3     1  UNL1        0.0748
     22 C          49.0797   14.4267  -21.3844 C.3     1  UNL1        0.0432
     23 H          49.5562   13.8068  -23.8678 H       1  UNL1        0.1236
     24 C          46.1877   14.3718  -24.7327 C.3     1  UNL1        0.0725
     25 C          46.6319   12.9018  -24.8331 C.3     1  UNL1        0.0188
     26 C          47.6110   12.6579  -25.9930 C.3     1  UNL1        0.0185
     27 C          48.9050   11.9966  -25.5098 C.3     1  UNL1        0.0686
     28 N          48.6783   11.3049  -24.2321 N.3     1  UNL1       -0.2984
     29 H          47.9810   11.8772  -23.6995 H       1  UNL1        0.1232
     30 C          49.9249   11.1798  -23.4478 C.3     1  UNL1        0.0590
     31 C          50.8867   10.1893  -24.1320 C.3     1  UNL1        0.0478
     32 C          50.3549    8.7539  -24.0113 C.3     1  UNL1        0.1435
     33 O          50.1848    8.3896  -22.6540 O.3     1  UNL1       -0.3537
     34 C          49.1906    9.2004  -22.0553 C.3     1  UNL1        0.1435
     35 C          49.6310   10.6708  -22.0218 C.3     1  UNL1        0.0478
@<TRIPOS>BOND
     1    13    14   ar
     2    14    15   ar
     3    15    16   ar
     4    16    17   ar
     5    17    18   ar
     6    17    19    1
     7    19    20    1
     8    20    21    1
     9    21    12    1
    10    12     1    1
    11     1    24    1
    12    24    25    1
    13    25    26    1
    14    26    27    1
    15    27    28    1
    16    28    30    1
    17    30    31    1
    18    31    32    1
    19    32    33    1
    20    33    34    1
    21    34    35    1
    22     1     2    1
    23     2     3    1
    24     3     4    1
    25     4     5    1
    26     5     6    1
    27     6     7   ar
    28     7     8   ar
    29     8     9   ar
    30     9    10   ar
    31    10    11   ar
    32    21    22    1
    33    18    13   ar
    34    35    30    1
    35    11     2    1
    36    22    16    1
    37    11     6   ar
    38    20    23    1
    39    28    29    1
