@<TRIPOS>MOLECULE
*****
 26 28 0 0 0
SMALL
GASTEIGER

@<TRIPOS>ATOM
      1 C         -24.3161   -9.9284  -11.2661 C.3     1  UNL1        0.0427
      2 C         -23.6131   -9.3199  -12.5024 C.3     1  UNL1        0.1973
      3 O         -23.5183   -7.9236  -12.3517 O.3     1  UNL1       -0.3751
      4 H         -24.4329   -7.5643  -12.2066 H       1  UNL1        0.2110
      5 C         -22.1968   -9.8527  -12.6243 C.2     1  UNL1        0.2571
      6 O         -21.6957  -10.0539  -13.7636 O.2     1  UNL1       -0.2719
      7 N         -21.3609  -10.0085  -11.4691 N.am    1  UNL1       -0.2566
      8 C         -20.8361   -8.8766  -10.7005 C.3     1  UNL1        0.1030
      9 C         -19.6420   -9.4256   -9.8833 C.3     1  UNL1        0.0502
     10 C         -19.5258  -10.8389  -10.3448 C.ar    1  UNL1        0.0029
     11 C         -18.5839  -11.8067   -9.9727 C.ar    1  UNL1        0.0657
     12 C         -18.6737  -13.0860  -10.5519 C.ar    1  UNL1        0.0100
     13 C         -19.6913  -13.3731  -11.4814 C.ar    1  UNL1        0.0019
     14 C         -20.6231  -12.3863  -11.8362 C.ar    1  UNL1        0.0146
     15 C         -20.5129  -11.1227  -11.2487 C.ar    1  UNL1        0.0506
     16 C         -17.5450  -11.5076   -9.0212 C.1     1  UNL1        0.1001
     17 N         -16.7103  -11.2666   -8.2569 N.1     1  UNL1       -0.1908
     18 C         -24.4468   -9.6436  -13.7757 C.3     1  UNL1        0.2408
     19 O         -25.2779  -10.7939  -13.5855 O.3     1  UNL1       -0.4724
     20 C         -25.1815  -12.0090  -14.2795 C.ar    1  UNL1        0.1388
     21 C         -25.6394  -13.2293  -13.7461 C.ar    1  UNL1        0.0392
     22 C         -25.5237  -14.4088  -14.4889 C.ar    1  UNL1        0.0327
     23 C         -24.9397  -14.3849  -15.7582 C.ar    1  UNL1        0.1403
     24 F         -24.8313  -15.5293  -16.4771 F       1  UNL1       -0.2042
     25 C         -24.4607  -13.1817  -16.2826 C.ar    1  UNL1        0.0327
     26 C         -24.5756  -12.0010  -15.5427 C.ar    1  UNL1        0.0392
@<TRIPOS>BOND
     1     1     2    1
     2     2     3    1
     3     2    18    1
     4    18    19    1
     5    19    20    1
     6    20    21   ar
     7    21    22   ar
     8    22    23   ar
     9    23    24    1
    10    23    25   ar
    11    25    26   ar
    12     2     5    1
    13     5     6    2
    14     5     7   am
    15     7     8    1
    16     8     9    1
    17     9    10    1
    18    10    11   ar
    19    11    16    1
    20    16    17    3
    21    11    12   ar
    22    12    13   ar
    23    13    14   ar
    24    14    15   ar
    25    26    20   ar
    26    15     7    1
    27    15    10   ar
    28     3     4    1
@<TRIPOS>MOLECULE
*****
 26 28 0 0 0
SMALL
GASTEIGER

@<TRIPOS>ATOM
      1 C         -25.7160  -13.4258  -14.2510 C.3     1  UNL1        0.0427
      2 C         -25.0363  -12.1810  -14.8686 C.3     1  UNL1        0.1973
      3 O         -25.9286  -11.5460  -15.7528 O.3     1  UNL1       -0.3751
      4 H         -26.2176  -12.2105  -16.4325 H       1  UNL1        0.2110
      5 C         -24.6878  -11.1743  -13.7871 C.2     1  UNL1        0.2571
      6 O         -25.6055  -10.5528  -13.1862 O.2     1  UNL1       -0.2719
      7 N         -23.3364  -11.0084  -13.3357 N.am    1  UNL1       -0.2566
      8 C         -22.6142  -12.0307  -12.5738 C.3     1  UNL1        0.1030
      9 C         -21.4316  -11.3045  -11.8889 C.3     1  UNL1        0.0502
     10 C         -21.6460   -9.8738  -12.2509 C.ar    1  UNL1        0.0029
     11 C         -20.8997   -8.7523  -11.8671 C.ar    1  UNL1        0.0657
     12 C         -21.3013   -7.4880  -12.3365 C.ar    1  UNL1        0.0100
     13 C         -22.4279   -7.3674  -13.1721 C.ar    1  UNL1        0.0019
     14 C         -23.1577   -8.5067  -13.5429 C.ar    1  UNL1        0.0146
     15 C         -22.7404   -9.7516  -13.0631 C.ar    1  UNL1        0.0506
     16 C         -19.7479   -8.8813  -11.0123 C.1     1  UNL1        0.1001
     17 N         -18.8227   -8.9846  -10.3249 N.1     1  UNL1       -0.1908
     18 C         -23.7675  -12.6266  -15.6514 C.3     1  UNL1        0.2408
     19 O         -23.4836  -11.7460  -16.7441 O.3     1  UNL1       -0.4724
     20 C         -22.7086  -10.5782  -16.6865 C.ar    1  UNL1        0.1388
     21 C         -21.3724  -10.5721  -16.2419 C.ar    1  UNL1        0.0392
     22 C         -20.6462   -9.3770  -16.2140 C.ar    1  UNL1        0.0327
     23 C         -21.2475   -8.1804  -16.6132 C.ar    1  UNL1        0.1403
     24 F         -20.5404   -7.0239  -16.5877 F       1  UNL1       -0.2042
     25 C         -22.5807   -8.1758  -17.0314 C.ar    1  UNL1        0.0327
     26 C         -23.3087   -9.3690  -17.0610 C.ar    1  UNL1        0.0392
@<TRIPOS>BOND
     1     1     2    1
     2     2     3    1
     3     2    18    1
     4    18    19    1
     5    19    20    1
     6    20    21   ar
     7    21    22   ar
     8    22    23   ar
     9    23    24    1
    10    23    25   ar
    11    25    26   ar
    12     2     5    1
    13     5     6    2
    14     5     7   am
    15     7     8    1
    16     8     9    1
    17     9    10    1
    18    10    11   ar
    19    11    16    1
    20    16    17    3
    21    11    12   ar
    22    12    13   ar
    23    13    14   ar
    24    14    15   ar
    25    26    20   ar
    26    15     7    1
    27    15    10   ar
    28     3     4    1
@<TRIPOS>MOLECULE
*****
 26 28 0 0 0
SMALL
GASTEIGER

@<TRIPOS>ATOM
      1 C         -20.5994   -8.5023   -9.4433 C.3     1  UNL1        0.0427
      2 C         -20.5136   -8.7358  -10.9702 C.3     1  UNL1        0.1973
      3 O         -19.1881   -8.5437  -11.4032 O.3     1  UNL1       -0.3751
      4 H         -18.9017   -7.6323  -11.1310 H       1  UNL1        0.2110
      5 C         -20.8915  -10.1660  -11.3112 C.2     1  UNL1        0.2571
      6 O         -20.1315  -11.1148  -10.9769 O.2     1  UNL1       -0.2719
      7 N         -22.1658  -10.4784  -11.8911 N.am    1  UNL1       -0.2566
      8 C         -23.4311  -10.3500  -11.1634 C.3     1  UNL1        0.1030
      9 C         -24.4613  -11.2117  -11.9323 C.3     1  UNL1        0.0502
     10 C         -23.6468  -11.8523  -13.0047 C.ar    1  UNL1        0.0029
     11 C         -24.0512  -12.7749  -13.9781 C.ar    1  UNL1        0.0657
     12 C         -23.0915  -13.2476  -14.8923 C.ar    1  UNL1        0.0100
     13 C         -21.7604  -12.7952  -14.8197 C.ar    1  UNL1        0.0019
     14 C         -21.3814  -11.8698  -13.8358 C.ar    1  UNL1        0.0146
     15 C         -22.3518  -11.4157  -12.9380 C.ar    1  UNL1        0.0506
     16 C         -25.4143  -13.2343  -14.0481 C.1     1  UNL1        0.1001
     17 N         -26.5095  -13.6038  -14.1038 N.1     1  UNL1       -0.1908
     18 C         -21.4432   -7.7207  -11.6958 C.3     1  UNL1        0.2408
     19 O         -21.0119   -7.4749  -13.0388 O.3     1  UNL1       -0.4724
     20 C         -21.5474   -8.0530  -14.1992 C.ar    1  UNL1        0.1388
     21 C         -20.7508   -8.4434  -15.2930 C.ar    1  UNL1        0.0392
     22 C         -21.3408   -9.0226  -16.4212 C.ar    1  UNL1        0.0327
     23 C         -22.7254   -9.2034  -16.4749 C.ar    1  UNL1        0.1403
     24 F         -23.2943   -9.7676  -17.5686 F       1  UNL1       -0.2042
     25 C         -23.5238   -8.7952  -15.4035 C.ar    1  UNL1        0.0327
     26 C         -22.9368   -8.2165  -14.2742 C.ar    1  UNL1        0.0392
@<TRIPOS>BOND
     1     1     2    1
     2     2     3    1
     3     2    18    1
     4    18    19    1
     5    19    20    1
     6    20    21   ar
     7    21    22   ar
     8    22    23   ar
     9    23    24    1
    10    23    25   ar
    11    25    26   ar
    12     2     5    1
    13     5     6    2
    14     5     7   am
    15     7     8    1
    16     8     9    1
    17     9    10    1
    18    10    11   ar
    19    11    16    1
    20    16    17    3
    21    11    12   ar
    22    12    13   ar
    23    13    14   ar
    24    14    15   ar
    25    26    20   ar
    26    15     7    1
    27    15    10   ar
    28     3     4    1
@<TRIPOS>MOLECULE
*****
 26 28 0 0 0
SMALL
GASTEIGER

@<TRIPOS>ATOM
      1 C         -23.8550  -14.9513  -14.9465 C.3     1  UNL1        0.0427
      2 C         -23.7096  -13.4982  -15.4568 C.3     1  UNL1        0.1973
      3 O         -24.5851  -13.2882  -16.5388 O.3     1  UNL1       -0.3751
      4 H         -24.3864  -13.9682  -17.2352 H       1  UNL1        0.2110
      5 C         -24.0987  -12.5120  -14.3701 C.2     1  UNL1        0.2571
      6 O         -25.2428  -12.5739  -13.8441 O.2     1  UNL1       -0.2719
      7 N         -23.1431  -11.5889  -13.8294 N.am    1  UNL1       -0.2566
      8 C         -22.0063  -12.0037  -13.0032 C.3     1  UNL1        0.1030
      9 C         -21.5342  -10.7367  -12.2501 C.3     1  UNL1        0.0502
     10 C         -22.5325   -9.7033  -12.6492 C.ar    1  UNL1        0.0029
     11 C         -22.6254   -8.3690  -12.2330 C.ar    1  UNL1        0.0657
     12 C         -23.6681   -7.5776  -12.7493 C.ar    1  UNL1        0.0100
     13 C         -24.5886   -8.1261  -13.6624 C.ar    1  UNL1        0.0019
     14 C         -24.4727   -9.4652  -14.0642 C.ar    1  UNL1        0.0146
     15 C         -23.4297  -10.2320  -13.5367 C.ar    1  UNL1        0.0506
     16 C         -21.6809   -7.8129  -11.2988 C.1     1  UNL1        0.1001
     17 N         -20.9215   -7.3664  -10.5485 N.1     1  UNL1       -0.1908
     18 C         -22.2452  -13.2659  -15.9283 C.3     1  UNL1        0.2408
     19 O         -22.1803  -12.3329  -17.0125 O.3     1  UNL1       -0.4724
     20 C         -22.1508  -10.9349  -16.9011 C.ar    1  UNL1        0.1388
     21 C         -21.0992  -10.2432  -16.2695 C.ar    1  UNL1        0.0392
     22 C         -21.1206   -8.8466  -16.1959 C.ar    1  UNL1        0.0327
     23 C         -22.1929   -8.1313  -16.7356 C.ar    1  UNL1        0.1403
     24 F         -22.2096   -6.7774  -16.6652 F       1  UNL1       -0.2042
     25 C         -23.2514   -8.8131  -17.3412 C.ar    1  UNL1        0.0327
     26 C         -23.2324  -10.2090  -17.4169 C.ar    1  UNL1        0.0392
@<TRIPOS>BOND
     1     1     2    1
     2     2     3    1
     3     2    18    1
     4    18    19    1
     5    19    20    1
     6    20    21   ar
     7    21    22   ar
     8    22    23   ar
     9    23    24    1
    10    23    25   ar
    11    25    26   ar
    12     2     5    1
    13     5     6    2
    14     5     7   am
    15     7     8    1
    16     8     9    1
    17     9    10    1
    18    10    11   ar
    19    11    16    1
    20    16    17    3
    21    11    12   ar
    22    12    13   ar
    23    13    14   ar
    24    14    15   ar
    25    26    20   ar
    26    15     7    1
    27    15    10   ar
    28     3     4    1
@<TRIPOS>MOLECULE
*****
 26 28 0 0 0
SMALL
GASTEIGER

@<TRIPOS>ATOM
      1 C         -22.7409   -7.8957  -16.7536 C.3     1  UNL1        0.0427
      2 C         -21.6131   -8.6065  -15.9688 C.3     1  UNL1        0.1973
      3 O         -20.3626   -8.1223  -16.3969 O.3     1  UNL1       -0.3751
      4 H         -20.2981   -8.2552  -17.3792 H       1  UNL1        0.2110
      5 C         -21.7251   -8.3029  -14.4855 C.2     1  UNL1        0.2571
      6 O         -20.8336   -7.6188  -13.9139 O.2     1  UNL1       -0.2719
      7 N         -22.8962   -8.6649  -13.7406 N.am    1  UNL1       -0.2566
      8 C         -24.2010   -8.0279  -13.9382 C.3     1  UNL1        0.1030
      9 C         -25.0291   -8.3356  -12.6675 C.3     1  UNL1        0.0502
     10 C         -24.0634   -9.0578  -11.7901 C.ar    1  UNL1        0.0029
     11 C         -24.2547   -9.5409  -10.4892 C.ar    1  UNL1        0.0657
     12 C         -23.1828  -10.1941   -9.8531 C.ar    1  UNL1        0.0100
     13 C         -21.9531  -10.3523  -10.5200 C.ar    1  UNL1        0.0019
     14 C         -21.7878   -9.8604  -11.8234 C.ar    1  UNL1        0.0146
     15 C         -22.8663   -9.2138  -12.4341 C.ar    1  UNL1        0.0506
     16 C         -25.5148   -9.3765   -9.8116 C.1     1  UNL1        0.1001
     17 N         -26.5270   -9.2448   -9.2666 N.1     1  UNL1       -0.1908
     18 C         -21.6902  -10.1373  -16.2364 C.3     1  UNL1        0.2408
     19 O         -23.0439  -10.5824  -16.3758 O.3     1  UNL1       -0.4724
     20 C         -23.7477  -11.3891  -15.4696 C.ar    1  UNL1        0.1388
     21 C         -25.1514  -11.5034  -15.4826 C.ar    1  UNL1        0.0392
     22 C         -25.7980  -12.3305  -14.5583 C.ar    1  UNL1        0.0327
     23 C         -25.0556  -13.0362  -13.6077 C.ar    1  UNL1        0.1403
     24 F         -25.6848  -13.8392  -12.7148 F       1  UNL1       -0.2042
     25 C         -23.6647  -12.9075  -13.5735 C.ar    1  UNL1        0.0327
     26 C         -23.0157  -12.0820  -14.4966 C.ar    1  UNL1        0.0392
@<TRIPOS>BOND
     1     1     2    1
     2     2     3    1
     3     2    18    1
     4    18    19    1
     5    19    20    1
     6    20    21   ar
     7    21    22   ar
     8    22    23   ar
     9    23    24    1
    10    23    25   ar
    11    25    26   ar
    12     2     5    1
    13     5     6    2
    14     5     7   am
    15     7     8    1
    16     8     9    1
    17     9    10    1
    18    10    11   ar
    19    11    16    1
    20    16    17    3
    21    11    12   ar
    22    12    13   ar
    23    13    14   ar
    24    14    15   ar
    25    26    20   ar
    26    15     7    1
    27    15    10   ar
    28     3     4    1
@<TRIPOS>MOLECULE
*****
 26 28 0 0 0
SMALL
GASTEIGER

@<TRIPOS>ATOM
      1 C         -26.6108   -8.2153  -12.8945 C.3     1  UNL1        0.0427
      2 C         -25.4377   -8.2694  -11.8875 C.3     1  UNL1        0.1973
      3 O         -25.9033   -7.9344  -10.6021 O.3     1  UNL1       -0.3751
      4 H         -26.3345   -7.0408  -10.6513 H       1  UNL1        0.2110
      5 C         -24.8728   -9.6761  -11.8048 C.2     1  UNL1        0.2571
      6 O         -25.0329  -10.3582  -10.7567 O.2     1  UNL1       -0.2719
      7 N         -24.2720  -10.3026  -12.9469 N.am    1  UNL1       -0.2566
      8 C         -25.0332  -10.7108  -14.1305 C.3     1  UNL1        0.1030
      9 C         -24.1513  -11.7400  -14.8778 C.3     1  UNL1        0.0502
     10 C         -22.9739  -11.9067  -13.9779 C.ar    1  UNL1        0.0029
     11 C         -21.8693  -12.7547  -14.1295 C.ar    1  UNL1        0.0657
     12 C         -20.8730  -12.7406  -13.1358 C.ar    1  UNL1        0.0100
     13 C         -20.9955  -11.8890  -12.0215 C.ar    1  UNL1        0.0019
     14 C         -22.1113  -11.0484  -11.8940 C.ar    1  UNL1        0.0146
     15 C         -23.0886  -11.0809  -12.8929 C.ar    1  UNL1        0.0506
     16 C         -21.7489  -13.6237  -15.2715 C.1     1  UNL1        0.1001
     17 N         -21.6524  -14.3215  -16.1896 N.1     1  UNL1       -0.1908
     18 C         -24.3449   -7.2496  -12.3200 C.3     1  UNL1        0.2408
     19 O         -24.2220   -7.1786  -13.7448 O.3     1  UNL1       -0.4724
     20 C         -23.1095   -7.5766  -14.5007 C.ar    1  UNL1        0.1388
     21 C         -21.8642   -7.8842  -13.9193 C.ar    1  UNL1        0.0392
     22 C         -20.7921   -8.2836  -14.7239 C.ar    1  UNL1        0.0327
     23 C         -20.9469   -8.3652  -16.1103 C.ar    1  UNL1        0.1403
     24 F         -19.9068   -8.7553  -16.8876 F       1  UNL1       -0.2042
     25 C         -22.1725   -8.0371  -16.6955 C.ar    1  UNL1        0.0327
     26 C         -23.2461   -7.6382  -15.8936 C.ar    1  UNL1        0.0392
@<TRIPOS>BOND
     1     1     2    1
     2     2     3    1
     3     2    18    1
     4    18    19    1
     5    19    20    1
     6    20    21   ar
     7    21    22   ar
     8    22    23   ar
     9    23    24    1
    10    23    25   ar
    11    25    26   ar
    12     2     5    1
    13     5     6    2
    14     5     7   am
    15     7     8    1
    16     8     9    1
    17     9    10    1
    18    10    11   ar
    19    11    16    1
    20    16    17    3
    21    11    12   ar
    22    12    13   ar
    23    13    14   ar
    24    14    15   ar
    25    26    20   ar
    26    15     7    1
    27    15    10   ar
    28     3     4    1
@<TRIPOS>MOLECULE
*****
 26 28 0 0 0
SMALL
GASTEIGER

@<TRIPOS>ATOM
      1 C         -22.8000   -7.5906  -16.6438 C.3     1  UNL1        0.0427
      2 C         -22.0750   -8.4034  -15.5452 C.3     1  UNL1        0.1973
      3 O         -20.6988   -8.1089  -15.5710 O.3     1  UNL1       -0.3751
      4 H         -20.3582   -8.2974  -16.4849 H       1  UNL1        0.2110
      5 C         -22.5887   -8.0149  -14.1705 C.2     1  UNL1        0.2571
      6 O         -23.7921   -7.6693  -14.0226 O.2     1  UNL1       -0.2719
      7 N         -21.7675   -8.1602  -13.0034 N.am    1  UNL1       -0.2566
      8 C         -21.3756   -9.4614  -12.4555 C.3     1  UNL1        0.1030
      9 C         -20.9365   -9.2008  -10.9945 C.3     1  UNL1        0.0502
     10 C         -21.2173   -7.7491  -10.8012 C.ar    1  UNL1        0.0029
     11 C         -21.0540   -6.9718   -9.6473 C.ar    1  UNL1        0.0657
     12 C         -21.3941   -5.6076   -9.7052 C.ar    1  UNL1        0.0100
     13 C         -21.8851   -5.0498  -10.9009 C.ar    1  UNL1        0.0019
     14 C         -22.0381   -5.8498  -12.0431 C.ar    1  UNL1        0.0146
     15 C         -21.6950   -7.2024  -11.9610 C.ar    1  UNL1        0.0506
     16 C         -20.5512   -7.5475   -8.4268 C.1     1  UNL1        0.1001
     17 N         -20.1468   -8.0105   -7.4464 N.1     1  UNL1       -0.1908
     18 C         -22.2804   -9.9223  -15.8133 C.3     1  UNL1        0.2408
     19 O         -23.6664  -10.2808  -15.7901 O.3     1  UNL1       -0.4724
     20 C         -24.2311  -11.3590  -15.0929 C.ar    1  UNL1        0.1388
     21 C         -24.8041  -12.4696  -15.7422 C.ar    1  UNL1        0.0392
     22 C         -25.3454  -13.5197  -14.9933 C.ar    1  UNL1        0.0327
     23 C         -25.3337  -13.4653  -13.5970 C.ar    1  UNL1        0.1403
     24 F         -25.8566  -14.4858  -12.8737 F       1  UNL1       -0.2042
     25 C         -24.7893  -12.3547  -12.9471 C.ar    1  UNL1        0.0327
     26 C         -24.2470  -11.3039  -13.6931 C.ar    1  UNL1        0.0392
@<TRIPOS>BOND
     1     1     2    1
     2     2     3    1
     3     2    18    1
     4    18    19    1
     5    19    20    1
     6    20    21   ar
     7    21    22   ar
     8    22    23   ar
     9    23    24    1
    10    23    25   ar
    11    25    26   ar
    12     2     5    1
    13     5     6    2
    14     5     7   am
    15     7     8    1
    16     8     9    1
    17     9    10    1
    18    10    11   ar
    19    11    16    1
    20    16    17    3
    21    11    12   ar
    22    12    13   ar
    23    13    14   ar
    24    14    15   ar
    25    26    20   ar
    26    15     7    1
    27    15    10   ar
    28     3     4    1
@<TRIPOS>MOLECULE
*****
 26 28 0 0 0
SMALL
GASTEIGER

@<TRIPOS>ATOM
      1 C         -21.4073   -7.9467  -12.7863 C.3     1  UNL1        0.0427
      2 C         -22.8682   -8.3989  -13.0196 C.3     1  UNL1        0.1973
      3 O         -23.2431   -8.1175  -14.3468 O.3     1  UNL1       -0.3751
      4 H         -23.1041   -7.1474  -14.5095 H       1  UNL1        0.2110
      5 C         -22.9970   -9.8994  -12.8281 C.2     1  UNL1        0.2571
      6 O         -22.7155  -10.4184  -11.7142 O.2     1  UNL1       -0.2719
      7 N         -23.5625  -10.7318  -13.8504 N.am    1  UNL1       -0.2566
      8 C         -24.9779  -10.6893  -14.2273 C.3     1  UNL1        0.1030
      9 C         -25.2670  -12.0151  -14.9715 C.3     1  UNL1        0.0502
     10 C         -23.9802  -12.7611  -14.8647 C.ar    1  UNL1        0.0029
     11 C         -23.6738  -14.0484  -15.3241 C.ar    1  UNL1        0.0657
     12 C         -22.3773  -14.5480  -15.1014 C.ar    1  UNL1        0.0100
     13 C         -21.4202  -13.7617  -14.4323 C.ar    1  UNL1        0.0019
     14 C         -21.7521  -12.4748  -13.9833 C.ar    1  UNL1        0.0146
     15 C         -23.0466  -12.0008  -14.2147 C.ar    1  UNL1        0.0506
     16 C         -24.6567  -14.8484  -16.0082 C.1     1  UNL1        0.1001
     17 N         -25.4460  -15.4918  -16.5579 N.1     1  UNL1       -0.1908
     18 C         -23.8044   -7.6259  -12.0464 C.3     1  UNL1        0.2408
     19 O         -25.1697   -8.0320  -12.1916 O.3     1  UNL1       -0.4724
     20 C         -26.1635   -7.3526  -12.9115 C.ar    1  UNL1        0.1388
     21 C         -27.3984   -7.9412  -13.2462 C.ar    1  UNL1        0.0392
     22 C         -28.3548   -7.2112  -13.9594 C.ar    1  UNL1        0.0327
     23 C         -28.0842   -5.8989  -14.3563 C.ar    1  UNL1        0.1403
     24 F         -29.0142   -5.1927  -15.0451 F       1  UNL1       -0.2042
     25 C         -26.8512   -5.3179  -14.0491 C.ar    1  UNL1        0.0327
     26 C         -25.8935   -6.0450  -13.3357 C.ar    1  UNL1        0.0392
@<TRIPOS>BOND
     1     1     2    1
     2     2     3    1
     3     2    18    1
     4    18    19    1
     5    19    20    1
     6    20    21   ar
     7    21    22   ar
     8    22    23   ar
     9    23    24    1
    10    23    25   ar
    11    25    26   ar
    12     2     5    1
    13     5     6    2
    14     5     7   am
    15     7     8    1
    16     8     9    1
    17     9    10    1
    18    10    11   ar
    19    11    16    1
    20    16    17    3
    21    11    12   ar
    22    12    13   ar
    23    13    14   ar
    24    14    15   ar
    25    26    20   ar
    26    15     7    1
    27    15    10   ar
    28     3     4    1
@<TRIPOS>MOLECULE
*****
 26 28 0 0 0
SMALL
GASTEIGER

@<TRIPOS>ATOM
      1 C         -26.9951   -7.2700  -11.6912 C.3     1  UNL1        0.0427
      2 C         -26.5756   -6.9363  -13.1423 C.3     1  UNL1        0.1973
      3 O         -27.1335   -7.8812  -14.0239 O.3     1  UNL1       -0.3751
      4 H         -26.8449   -8.7859  -13.7324 H       1  UNL1        0.2110
      5 C         -27.1101   -5.5753  -13.5504 C.2     1  UNL1        0.2571
      6 O         -27.3704   -4.7113  -12.6698 O.2     1  UNL1       -0.2719
      7 N         -27.2014   -5.1977  -14.9312 N.am    1  UNL1       -0.2566
      8 C         -26.0286   -4.9562  -15.7757 C.3     1  UNL1        0.1030
      9 C         -26.5296   -4.1314  -16.9856 C.3     1  UNL1        0.0502
     10 C         -27.9652   -3.8840  -16.6667 C.ar    1  UNL1        0.0029
     11 C         -28.9090   -3.1468  -17.3934 C.ar    1  UNL1        0.0657
     12 C         -30.2176   -3.0492  -16.8855 C.ar    1  UNL1        0.0100
     13 C         -30.5571   -3.6828  -15.6750 C.ar    1  UNL1        0.0019
     14 C         -29.5934   -4.4163  -14.9670 C.ar    1  UNL1        0.0146
     15 C         -28.2998   -4.4979  -15.4906 C.ar    1  UNL1        0.0506
     16 C         -28.5564   -2.5007  -18.6313 C.1     1  UNL1        0.1001
     17 N         -28.2732   -1.9822  -19.6262 N.1     1  UNL1       -0.1908
     18 C         -25.0242   -6.9862  -13.2505 C.3     1  UNL1        0.2408
     19 O         -24.5893   -8.0144  -14.1471 O.3     1  UNL1       -0.4724
     20 C         -23.3976   -8.0181  -14.8870 C.ar    1  UNL1        0.1388
     21 C         -23.3410   -7.6375  -16.2417 C.ar    1  UNL1        0.0392
     22 C         -22.1213   -7.6537  -16.9262 C.ar    1  UNL1        0.0327
     23 C         -20.9551   -8.0618  -16.2734 C.ar    1  UNL1        0.1403
     24 F         -19.7738   -8.0739  -16.9386 F       1  UNL1       -0.2042
     25 C         -21.0090   -8.4646  -14.9366 C.ar    1  UNL1        0.0327
     26 C         -22.2266   -8.4487  -14.2497 C.ar    1  UNL1        0.0392
@<TRIPOS>BOND
     1     1     2    1
     2     2     3    1
     3     2    18    1
     4    18    19    1
     5    19    20    1
     6    20    21   ar
     7    21    22   ar
     8    22    23   ar
     9    23    24    1
    10    23    25   ar
    11    25    26   ar
    12     2     5    1
    13     5     6    2
    14     5     7   am
    15     7     8    1
    16     8     9    1
    17     9    10    1
    18    10    11   ar
    19    11    16    1
    20    16    17    3
    21    11    12   ar
    22    12    13   ar
    23    13    14   ar
    24    14    15   ar
    25    26    20   ar
    26    15     7    1
    27    15    10   ar
    28     3     4    1
