@<TRIPOS>MOLECULE
*****
 46 52 0 0 0
SMALL
GASTEIGER

@<TRIPOS>ATOM
      1 C          -3.2473  -17.1145   21.5815 C.3     1  UNL1        0.0817
      2 C          -3.6308  -16.0887   20.4918 C.3     1  UNL1        0.0252
      3 C          -4.6169  -15.0957   21.1395 C.3     1  UNL1        0.0278
      4 C          -4.9096  -15.6887   22.4680 C.ar    1  UNL1       -0.0248
      5 C          -5.7782  -15.1781   23.4344 C.ar    1  UNL1       -0.0045
      6 C          -5.8983  -15.8472   24.6694 C.ar    1  UNL1       -0.0002
      7 C          -5.1250  -17.0062   24.9086 C.ar    1  UNL1       -0.0003
      8 C          -4.2538  -17.4947   23.9243 C.ar    1  UNL1       -0.0033
      9 C          -4.1787  -16.8267   22.7006 C.ar    1  UNL1       -0.0117
     10 C          -2.3503  -19.4647   21.0464 C.3     1  UNL1        0.1158
     11 N          -2.7839  -20.6610   20.5774 N.3     1  UNL1       -0.2851
     12 C          -4.0862  -20.4493   20.3454 C.3     1  UNL1        0.0910
     13 C          -5.0047  -21.3723   19.8727 C.3     1  UNL1        0.1018
     14 C          -6.3322  -20.9472   19.7334 C.3     1  UNL1        0.3136
     15 N          -6.7048  -19.6620   20.0612 N.am    1  UNL1       -0.1293
     16 C          -5.7756  -18.7591   20.5360 C.2     1  UNL1        0.4047
     17 O          -6.1301  -17.5938   20.8544 O.2     1  UNL1       -0.2174
     18 C          -4.4361  -19.1725   20.6638 C.3     1  UNL1        0.2038
     19 N          -3.3347  -18.5108   21.1003 N.3     1  UNL1       -0.2473
     20 H          -2.6516  -21.3954   21.2728 H       1  UNL1        0.1244
     21 C          -0.1088  -18.6303   20.3421 C.3     1  UNL1        0.0029
     22 C          -0.9142  -19.2835   21.4587 C.3     1  UNL1        0.0326
     23 C          -8.1219  -19.2791   19.9327 C.3     1  UNL1        0.3404
     24 C          -8.8658  -19.5546   21.2231 C.ar    1  UNL1        0.0640
     25 C          -8.1474  -20.0788   22.3129 C.ar    1  UNL1        0.0031
     26 C          -8.7830  -20.3313   23.5303 C.ar    1  UNL1       -0.0001
     27 C         -10.1442  -20.0658   23.6771 C.ar    1  UNL1        0.0007
     28 C         -10.8756  -19.5499   22.6058 C.ar    1  UNL1        0.0102
     29 C         -10.2500  -19.2917   21.3775 C.ar    1  UNL1        0.0710
     30 C         -11.0540  -18.7701   20.2983 C.1     1  UNL1        0.1003
     31 N         -11.6977  -18.3519   19.4322 N.1     1  UNL1       -0.1908
     32 C          -6.7734  -15.2973   25.7321 C.ar    1  UNL1        0.0030
     33 C          -6.1703  -14.8244   26.9100 C.ar    1  UNL1       -0.0001
     34 C          -6.9460  -14.3932   27.9860 C.ar    1  UNL1       -0.0018
     35 C          -8.3430  -14.4195   27.9057 C.ar    1  UNL1        0.0074
     36 C          -8.9568  -14.8945   26.7382 C.ar    1  UNL1        0.0012
     37 C          -8.1893  -15.3102   25.6363 C.ar    1  UNL1        0.0369
     38 C          -8.9002  -15.7118   24.4016 C.ar    1  UNL1        0.1805
     39 N          -9.9310  -16.5775   24.3659 N.ar    1  UNL1       -0.1084
     40 N         -10.3102  -16.6079   23.0959 N.ar    1  UNL1       -0.0229
     41 N          -9.5571  -15.7870   22.3796 N.ar    1  UNL1       -0.0464
     42 N          -8.6720  -15.2142   23.1746 N.ar    1  UNL1       -0.2388
     43 H          -7.9787  -14.4910   22.8821 H       1  UNL1        0.1923
     44 C          -9.1769  -14.0028   29.0835 C.3     1  UNL1        0.1687
     45 O          -8.9292  -12.6409   29.3580 O.3     1  UNL1       -0.3463
     46 C          -9.9599  -12.1328   30.1746 C.3     1  UNL1        0.1746
@<TRIPOS>BOND
     1    21    22    1
     2    22    10    1
     3    10    11    1
     4    11    12    1
     5    12    13    1
     6    13    14    1
     7    14    15    1
     8    15    23    1
     9    23    24    1
    10    24    25   ar
    11    25    26   ar
    12    26    27   ar
    13    27    28   ar
    14    28    29   ar
    15    29    30    1
    16    30    31    3
    17    15    16    1
    18    16    17    2
    19    16    18    1
    20    18    19    1
    21    19     1    1
    22     1     2    1
    23     2     3    1
    24     3     4    1
    25     4     5   ar
    26     5     6   ar
    27     6    32    1
    28    32    33   ar
    29    33    34   ar
    30    34    35   ar
    31    35    44    1
    32    44    45    1
    33    45    46    1
    34    35    36   ar
    35    36    37   ar
    36    37    38    1
    37    38    39   ar
    38    39    40   ar
    39    40    41   ar
    40    41    42   ar
    41     6     7   ar
    42     7     8   ar
    43     8     9   ar
    44    19    10    1
    45     9     1    1
    46    18    12    1
    47     9     4   ar
    48    29    24   ar
    49    37    32   ar
    50    42    38   ar
    51    42    43    1
    52    11    20    1
@<TRIPOS>MOLECULE
*****
 46 52 0 0 0
SMALL
GASTEIGER

@<TRIPOS>ATOM
      1 C         -10.6445   -7.3653   29.6138 C.3     1  UNL1        0.0817
      2 C         -10.1951   -7.9704   28.2652 C.3     1  UNL1        0.0252
      3 C         -10.4825   -9.4838   28.3362 C.3     1  UNL1        0.0278
      4 C         -10.8802   -9.7123   29.7475 C.ar    1  UNL1       -0.0248
      5 C         -11.2164  -10.9358   30.3299 C.ar    1  UNL1       -0.0045
      6 C         -11.6225  -10.9632   31.6797 C.ar    1  UNL1       -0.0002
      7 C         -11.6983   -9.7529   32.4060 C.ar    1  UNL1       -0.0003
      8 C         -11.3626   -8.5358   31.7958 C.ar    1  UNL1       -0.0033
      9 C         -10.9360   -8.5447   30.4664 C.ar    1  UNL1       -0.0117
     10 C          -9.7039   -5.1177   30.4372 C.3     1  UNL1        0.1158
     11 N          -8.5905   -4.6074   31.0195 N.3     1  UNL1       -0.2851
     12 C          -7.7972   -5.6775   31.1620 C.3     1  UNL1        0.0910
     13 C          -6.5343   -5.7032   31.7307 C.3     1  UNL1        0.1018
     14 C          -5.8884   -6.9437   31.8102 C.3     1  UNL1        0.3136
     15 N          -6.4931   -8.0907   31.3447 N.am    1  UNL1       -0.1293
     16 C          -7.7543   -8.0448   30.7864 C.2     1  UNL1        0.4047
     17 O          -8.3079   -9.1017   30.3847 O.2     1  UNL1       -0.2174
     18 C          -8.4043   -6.8002   30.6876 C.3     1  UNL1        0.2038
     19 N          -9.6253   -6.4663   30.1985 N.3     1  UNL1       -0.2473
     20 H          -8.8097   -4.1923   31.9250 H       1  UNL1        0.1244
     21 C         -10.5804   -3.3472   28.9162 C.3     1  UNL1        0.0029
     22 C         -10.8762   -4.2271   30.1247 C.3     1  UNL1        0.0326
     23 C          -5.7852   -9.3751   31.4885 C.3     1  UNL1        0.3404
     24 C          -5.3126   -9.8753   30.1392 C.ar    1  UNL1        0.0640
     25 C          -4.1706   -9.2856   29.5674 C.ar    1  UNL1        0.0031
     26 C          -3.6830   -9.7248   28.3349 C.ar    1  UNL1       -0.0001
     27 C          -4.3287  -10.7570   27.6548 C.ar    1  UNL1        0.0007
     28 C          -5.4662  -11.3518   28.2034 C.ar    1  UNL1        0.0102
     29 C          -5.9668  -10.9205   29.4404 C.ar    1  UNL1        0.0710
     30 C          -7.1528  -11.5602   29.9574 C.1     1  UNL1        0.1003
     31 N          -8.1039  -12.0723   30.3729 N.1     1  UNL1       -0.1908
     32 C         -12.0351  -12.2412   32.3072 C.ar    1  UNL1        0.0030
     33 C         -13.2498  -12.8190   31.9000 C.ar    1  UNL1       -0.0001
     34 C         -13.7419  -13.9635   32.5272 C.ar    1  UNL1       -0.0018
     35 C         -13.0268  -14.5597   33.5721 C.ar    1  UNL1        0.0074
     36 C         -11.8166  -13.9897   33.9915 C.ar    1  UNL1        0.0012
     37 C         -11.2954  -12.8504   33.3541 C.ar    1  UNL1        0.0369
     38 C          -9.9684  -12.3550   33.7840 C.ar    1  UNL1        0.1805
     39 N          -9.4398  -12.5610   35.0053 N.ar    1  UNL1       -0.1084
     40 N          -8.2323  -12.0161   34.9532 N.ar    1  UNL1       -0.0229
     41 N          -8.0173  -11.5080   33.7493 N.ar    1  UNL1       -0.0464
     42 N          -9.0865  -11.7109   33.0014 N.ar    1  UNL1       -0.2388
     43 H          -9.1762  -11.4494   31.9951 H       1  UNL1        0.1923
     44 C         -13.5827  -15.7622   34.2802 C.3     1  UNL1        0.1687
     45 O         -13.9598  -16.7234   33.3181 O.3     1  UNL1       -0.3463
     46 C         -12.9469  -16.8329   32.3436 C.3     1  UNL1        0.1746
@<TRIPOS>BOND
     1    21    22    1
     2    22    10    1
     3    10    11    1
     4    11    12    1
     5    12    13    1
     6    13    14    1
     7    14    15    1
     8    15    23    1
     9    23    24    1
    10    24    25   ar
    11    25    26   ar
    12    26    27   ar
    13    27    28   ar
    14    28    29   ar
    15    29    30    1
    16    30    31    3
    17    15    16    1
    18    16    17    2
    19    16    18    1
    20    18    19    1
    21    19     1    1
    22     1     2    1
    23     2     3    1
    24     3     4    1
    25     4     5   ar
    26     5     6   ar
    27     6    32    1
    28    32    33   ar
    29    33    34   ar
    30    34    35   ar
    31    35    44    1
    32    44    45    1
    33    45    46    1
    34    35    36   ar
    35    36    37   ar
    36    37    38    1
    37    38    39   ar
    38    39    40   ar
    39    40    41   ar
    40    41    42   ar
    41     6     7   ar
    42     7     8   ar
    43     8     9   ar
    44    19    10    1
    45     9     1    1
    46    18    12    1
    47     9     4   ar
    48    29    24   ar
    49    37    32   ar
    50    42    38   ar
    51    42    43    1
    52    11    20    1
