@<TRIPOS>MOLECULE
*****
 36 40 0 0 0
SMALL
GASTEIGER

@<TRIPOS>ATOM
      1 C         -29.8827   48.4829  -10.5465 C.ar    1  UNL1        0.1317
      2 C         -30.7014   47.5649   -9.8598 C.ar    1  UNL1        0.0286
      3 C         -30.2503   46.9561   -8.6744 C.ar    1  UNL1        0.0777
      4 C         -28.9828   47.2773   -8.1702 C.ar    1  UNL1        0.2969
      5 N         -28.2304   48.1825   -8.8480 N.ar    1  UNL1       -0.1229
      6 C         -27.0070   48.6691   -8.5798 C.ar    1  UNL1        0.2751
      7 I         -25.7627   47.9967   -6.9978 I       1  UNL1        0.0389
      8 C         -26.7050   49.5785   -9.5929 C.ar    1  UNL1        0.1314
      9 N         -27.7272   49.6405  -10.4798 N.ar    1  UNL1       -0.2939
     10 C         -28.6328   48.7733   -9.9861 C.ar    1  UNL1        0.3125
     11 H         -27.7930   50.1901  -11.2940 H       1  UNL1        0.1718
     12 N         -30.1646   49.1436  -14.4284 N.3     1  UNL1       -0.2647
     13 C         -29.9332   50.4541  -13.7949 C.3     1  UNL1        0.0941
     14 C         -29.5590   50.2311  -12.3259 C.3     1  UNL1        0.1084
     15 N         -30.3254   49.1129  -11.7609 N.pl3   1  UNL1       -0.2988
     16 C         -31.5834   48.7068  -12.3999 C.3     1  UNL1        0.1084
     17 C         -31.3836   48.4787  -13.9128 C.3     1  UNL1        0.0941
     18 C         -30.1105   49.1875  -15.9052 C.3     1  UNL1        0.1200
     19 N         -26.9504   49.6982  -17.7149 N.ar    1  UNL1       -0.3128
     20 C         -26.7940   50.3985  -16.5733 C.ar    1  UNL1        0.1780
     21 N         -27.8781   50.3404  -15.7726 N.ar    1  UNL1       -0.2273
     22 C         -28.7527   49.5646  -16.4462 C.ar    1  UNL1        0.0885
     23 C         -28.1889   49.1674  -17.6482 C.ar    1  UNL1        0.0537
     24 C         -28.7699   48.1910  -18.6307 C.3     1  UNL1        0.0514
     25 C         -24.5461   49.3676  -18.0878 C.3     1  UNL1        0.0265
     26 C         -25.9213   49.4865  -18.7344 C.3     1  UNL1        0.1073
     27 C         -25.4637   50.3617   -9.7563 C.ar    1  UNL1        0.0221
     28 C         -24.7139   50.7152   -8.6276 C.ar    1  UNL1        0.0013
     29 C         -23.5261   51.4398   -8.7592 C.ar    1  UNL1       -0.0042
     30 C         -23.0443   51.8219  -10.0333 C.ar    1  UNL1       -0.0228
     31 C         -23.7988   51.4333  -11.1624 C.ar    1  UNL1       -0.0042
     32 C         -24.9858   50.7099  -11.0256 C.ar    1  UNL1        0.0013
     33 C         -21.7386   52.6204  -10.2273 C.3     1  UNL1        0.0189
     34 C         -21.0077   52.7476   -8.8732 C.3     1  UNL1        0.0044
     35 C         -21.9765   54.0503  -10.7700 C.3     1  UNL1        0.0044
     36 C         -20.8284   51.8836  -11.2342 C.3     1  UNL1        0.0044
@<TRIPOS>BOND
     1    25    26    1
     2    26    19    1
     3    19    20   ar
     4    20    21   ar
     5    21    22   ar
     6    22    18    1
     7    18    12    1
     8    12    13    1
     9    13    14    1
    10    14    15    1
    11    15     1    1
    12     1     2   ar
    13     2     3   ar
    14     3     4   ar
    15     4     5   ar
    16     5     6   ar
    17     6     7    1
    18     6     8   ar
    19     8    27    1
    20    27    28   ar
    21    28    29   ar
    22    29    30   ar
    23    30    33    1
    24    33    34    1
    25    33    35    1
    26    33    36    1
    27    30    31   ar
    28    31    32   ar
    29     8     9   ar
    30     9    10   ar
    31    15    16    1
    32    16    17    1
    33    22    23   ar
    34    23    24    1
    35    23    19   ar
    36    17    12    1
    37    10     1   ar
    38    10     5   ar
    39    32    27   ar
    40     9    11    1
@<TRIPOS>MOLECULE
*****
 36 40 0 0 0
SMALL
GASTEIGER

@<TRIPOS>ATOM
      1 C         -30.1797   50.5927   -9.3116 C.ar    1  UNL1        0.1317
      2 C         -31.2089   50.2712   -8.4050 C.ar    1  UNL1        0.0286
      3 C         -30.9353   50.1501   -7.0302 C.ar    1  UNL1        0.0777
      4 C         -29.6317   50.3639   -6.5624 C.ar    1  UNL1        0.2969
      5 N         -28.6700   50.6930   -7.4634 N.ar    1  UNL1       -0.1229
      6 C         -27.3655   50.9592   -7.2824 C.ar    1  UNL1        0.2751
      7 I         -26.3435   50.7758   -5.4317 I       1  UNL1        0.0389
      8 C         -26.8359   51.2482   -8.5395 C.ar    1  UNL1        0.1314
      9 N         -27.8024   51.1487   -9.4836 N.ar    1  UNL1       -0.2939
     10 C         -28.9013   50.8078   -8.7823 C.ar    1  UNL1        0.3125
     11 H         -27.7210   51.2920  -10.4542 H       1  UNL1        0.1718
     12 N         -29.8797   49.8022  -13.1677 N.3     1  UNL1       -0.2647
     13 C         -29.7565   51.2642  -13.0277 C.3     1  UNL1        0.0941
     14 C         -29.6058   51.6051  -11.5416 C.3     1  UNL1        0.1084
     15 N         -30.4397   50.7178  -10.7203 N.pl3   1  UNL1       -0.2988
     16 C         -31.5839   50.0330  -11.3346 C.3     1  UNL1        0.1084
     17 C         -31.1571   49.2916  -12.6186 C.3     1  UNL1        0.0941
     18 C         -29.6043   49.3181  -14.5373 C.3     1  UNL1        0.1200
     19 N         -30.6469   45.9449  -15.5653 N.ar    1  UNL1       -0.3128
     20 C         -30.1076   45.7655  -14.3426 C.ar    1  UNL1        0.1780
     21 N         -29.6473   46.9124  -13.8018 N.ar    1  UNL1       -0.2273
     22 C         -29.9142   47.8535  -14.7310 C.ar    1  UNL1        0.0885
     23 C         -30.5277   47.2636  -15.8246 C.ar    1  UNL1        0.0537
     24 C         -31.1094   47.9713  -17.0150 C.3     1  UNL1        0.0514
     25 C         -30.3287   44.2414  -17.3047 C.3     1  UNL1        0.0265
     26 C         -31.3182   44.9162  -16.3618 C.3     1  UNL1        0.1073
     27 C         -25.4358   51.5831   -8.8692 C.ar    1  UNL1        0.0221
     28 C         -24.3918   50.9351   -8.1974 C.ar    1  UNL1        0.0013
     29 C         -23.0592   51.2219   -8.5057 C.ar    1  UNL1       -0.0042
     30 C         -22.7310   52.1614   -9.5113 C.ar    1  UNL1       -0.0228
     31 C         -23.7964   52.7852  -10.1976 C.ar    1  UNL1       -0.0042
     32 C         -25.1266   52.4958   -9.8851 C.ar    1  UNL1        0.0013
     33 C         -21.2755   52.5088   -9.8865 C.3     1  UNL1        0.0189
     34 C         -20.7920   51.5595  -11.0041 C.3     1  UNL1        0.0044
     35 C         -20.2936   52.3749   -8.6975 C.3     1  UNL1        0.0044
     36 C         -21.2065   53.9681  -10.3876 C.3     1  UNL1        0.0044
@<TRIPOS>BOND
     1    25    26    1
     2    26    19    1
     3    19    20   ar
     4    20    21   ar
     5    21    22   ar
     6    22    18    1
     7    18    12    1
     8    12    13    1
     9    13    14    1
    10    14    15    1
    11    15     1    1
    12     1     2   ar
    13     2     3   ar
    14     3     4   ar
    15     4     5   ar
    16     5     6   ar
    17     6     7    1
    18     6     8   ar
    19     8    27    1
    20    27    28   ar
    21    28    29   ar
    22    29    30   ar
    23    30    33    1
    24    33    34    1
    25    33    35    1
    26    33    36    1
    27    30    31   ar
    28    31    32   ar
    29     8     9   ar
    30     9    10   ar
    31    15    16    1
    32    16    17    1
    33    22    23   ar
    34    23    24    1
    35    23    19   ar
    36    17    12    1
    37    10     1   ar
    38    10     5   ar
    39    32    27   ar
    40     9    11    1
@<TRIPOS>MOLECULE
*****
 36 40 0 0 0
SMALL
GASTEIGER

@<TRIPOS>ATOM
      1 C         -29.2363   48.1089   -7.0480 C.ar    1  UNL1        0.1317
      2 C         -30.6212   47.9355   -7.2389 C.ar    1  UNL1        0.0286
      3 C         -31.2875   48.6119   -8.2773 C.ar    1  UNL1        0.0777
      4 C         -30.5626   49.4526   -9.1327 C.ar    1  UNL1        0.2969
      5 N         -29.2253   49.5785   -8.9309 N.ar    1  UNL1       -0.1229
      6 C         -28.3099   50.2971   -9.6027 C.ar    1  UNL1        0.2751
      7 I         -28.7564   51.6473  -11.1776 I       1  UNL1        0.0389
      8 C         -27.0821   50.0622   -8.9848 C.ar    1  UNL1        0.1314
      9 N         -27.2440   49.2180   -7.9378 N.ar    1  UNL1       -0.2939
     10 C         -28.5648   48.9509   -7.9430 C.ar    1  UNL1        0.3125
     11 H         -26.5579   48.8791   -7.3185 H       1  UNL1        0.1718
     12 N         -28.7050   46.3951   -3.5316 N.3     1  UNL1       -0.2647
     13 C         -27.5777   47.3256   -3.7201 C.3     1  UNL1        0.0941
     14 C         -27.8644   48.2046   -4.9418 C.3     1  UNL1        0.1084
     15 N         -28.5388   47.4285   -5.9906 N.pl3   1  UNL1       -0.2988
     16 C         -28.4204   45.9651   -5.9918 C.3     1  UNL1        0.1084
     17 C         -28.7828   45.3824   -4.6098 C.3     1  UNL1        0.0941
     18 C         -28.7582   45.8035   -2.1777 C.3     1  UNL1        0.1200
     19 N         -30.5583   47.5768    0.4938 N.ar    1  UNL1       -0.3128
     20 C         -29.7133   48.5016   -0.0051 C.ar    1  UNL1        0.1780
     21 N         -28.9446   48.0212   -1.0041 N.ar    1  UNL1       -0.2273
     22 C         -29.3299   46.7350   -1.1366 C.ar    1  UNL1        0.0885
     23 C         -30.3231   46.4517   -0.2126 C.ar    1  UNL1        0.0537
     24 C         -31.1183   45.1812   -0.1135 C.3     1  UNL1        0.0514
     25 C         -31.0281   48.6842    2.6344 C.3     1  UNL1        0.0265
     26 C         -31.5840   47.8175    1.5104 C.3     1  UNL1        0.1073
     27 C         -25.7714   50.6415   -9.3420 C.ar    1  UNL1        0.0221
     28 C         -24.8131   50.8554   -8.3435 C.ar    1  UNL1        0.0013
     29 C         -23.5591   51.3846   -8.6606 C.ar    1  UNL1       -0.0042
     30 C         -23.2209   51.7043   -9.9966 C.ar    1  UNL1       -0.0228
     31 C         -24.1894   51.4565  -10.9945 C.ar    1  UNL1       -0.0042
     32 C         -25.4417   50.9282  -10.6724 C.ar    1  UNL1        0.0013
     33 C         -21.8497   52.2888  -10.3939 C.3     1  UNL1        0.0189
     34 C         -22.0564   53.4668  -11.3704 C.3     1  UNL1        0.0044
     35 C         -20.9284   51.2573  -11.0888 C.3     1  UNL1        0.0044
     36 C         -21.1182   52.7924   -9.1303 C.3     1  UNL1        0.0044
@<TRIPOS>BOND
     1    25    26    1
     2    26    19    1
     3    19    20   ar
     4    20    21   ar
     5    21    22   ar
     6    22    18    1
     7    18    12    1
     8    12    13    1
     9    13    14    1
    10    14    15    1
    11    15     1    1
    12     1     2   ar
    13     2     3   ar
    14     3     4   ar
    15     4     5   ar
    16     5     6   ar
    17     6     7    1
    18     6     8   ar
    19     8    27    1
    20    27    28   ar
    21    28    29   ar
    22    29    30   ar
    23    30    33    1
    24    33    34    1
    25    33    35    1
    26    33    36    1
    27    30    31   ar
    28    31    32   ar
    29     8     9   ar
    30     9    10   ar
    31    15    16    1
    32    16    17    1
    33    22    23   ar
    34    23    24    1
    35    23    19   ar
    36    17    12    1
    37    10     1   ar
    38    10     5   ar
    39    32    27   ar
    40     9    11    1
@<TRIPOS>MOLECULE
*****
 36 40 0 0 0
SMALL
GASTEIGER

@<TRIPOS>ATOM
      1 C         -29.1467   47.6427   -7.3609 C.ar    1  UNL1        0.1317
      2 C         -30.5348   47.4963   -7.5516 C.ar    1  UNL1        0.0286
      3 C         -31.2172   48.3114   -8.4734 C.ar    1  UNL1        0.0777
      4 C         -30.5054   49.2651   -9.2136 C.ar    1  UNL1        0.2969
      5 N         -29.1648   49.3628   -9.0180 N.ar    1  UNL1       -0.1229
      6 C         -28.2598   50.1699   -9.5967 C.ar    1  UNL1        0.2751
      7 I         -28.7304   51.7279  -10.9583 I       1  UNL1        0.0389
      8 C         -27.0222   49.8518   -9.0382 C.ar    1  UNL1        0.1314
      9 N         -27.1681   48.8683   -8.1180 N.ar    1  UNL1       -0.2939
     10 C         -28.4890   48.6031   -8.1392 C.ar    1  UNL1        0.3125
     11 H         -26.4722   48.4464   -7.5639 H       1  UNL1        0.1718
     12 N         -28.0619   46.2081   -3.8467 N.3     1  UNL1       -0.2647
     13 C         -26.8191   46.5036   -4.5817 C.3     1  UNL1        0.0941
     14 C         -27.1707   47.2997   -5.8426 C.3     1  UNL1        0.1084
     15 N         -28.4329   46.8209   -6.4213 N.pl3   1  UNL1       -0.2988
     16 C         -28.9074   45.4702   -6.0959 C.3     1  UNL1        0.1084
     17 C         -28.9259   45.2462   -4.5694 C.3     1  UNL1        0.0941
     18 C         -27.8342   45.8332   -2.4347 C.3     1  UNL1        0.1200
     19 N         -30.4132   47.6629   -0.5577 N.ar    1  UNL1       -0.3128
     20 C         -30.1209   46.6063    0.2272 C.ar    1  UNL1        0.1780
     21 N         -29.1867   45.7971   -0.3134 N.ar    1  UNL1       -0.2273
     22 C         -28.8797   46.3779   -1.4919 C.ar    1  UNL1        0.0885
     23 C         -29.6356   47.5282   -1.6521 C.ar    1  UNL1        0.0537
     24 C         -29.5058   48.5389   -2.7556 C.3     1  UNL1        0.0514
     25 C         -31.1428   49.1391    1.2636 C.3     1  UNL1        0.0265
     26 C         -31.3080   48.7667   -0.2052 C.3     1  UNL1        0.1073
     27 C         -25.7169   50.4771   -9.3317 C.ar    1  UNL1        0.0221
     28 C         -25.3801   50.7898  -10.6545 C.ar    1  UNL1        0.0013
     29 C         -24.1586   51.3990  -10.9542 C.ar    1  UNL1       -0.0042
     30 C         -23.2389   51.7275   -9.9306 C.ar    1  UNL1       -0.0228
     31 C         -23.6066   51.4300   -8.5996 C.ar    1  UNL1       -0.0042
     32 C         -24.8283   50.8202   -8.3053 C.ar    1  UNL1        0.0013
     33 C         -21.8802   52.4013  -10.2135 C.3     1  UNL1        0.0189
     34 C         -21.0608   51.5199  -11.1808 C.3     1  UNL1        0.0044
     35 C         -21.0312   52.6148   -8.9371 C.3     1  UNL1        0.0044
     36 C         -22.1153   53.7861  -10.8556 C.3     1  UNL1        0.0044
@<TRIPOS>BOND
     1    25    26    1
     2    26    19    1
     3    19    20   ar
     4    20    21   ar
     5    21    22   ar
     6    22    18    1
     7    18    12    1
     8    12    13    1
     9    13    14    1
    10    14    15    1
    11    15     1    1
    12     1     2   ar
    13     2     3   ar
    14     3     4   ar
    15     4     5   ar
    16     5     6   ar
    17     6     7    1
    18     6     8   ar
    19     8    27    1
    20    27    28   ar
    21    28    29   ar
    22    29    30   ar
    23    30    33    1
    24    33    34    1
    25    33    35    1
    26    33    36    1
    27    30    31   ar
    28    31    32   ar
    29     8     9   ar
    30     9    10   ar
    31    15    16    1
    32    16    17    1
    33    22    23   ar
    34    23    24    1
    35    23    19   ar
    36    17    12    1
    37    10     1   ar
    38    10     5   ar
    39    32    27   ar
    40     9    11    1
@<TRIPOS>MOLECULE
*****
 36 40 0 0 0
SMALL
GASTEIGER

@<TRIPOS>ATOM
      1 C         -29.8579   50.2993   -8.4814 C.ar    1  UNL1        0.1317
      2 C         -31.1027   50.0419   -9.0887 C.ar    1  UNL1        0.0286
      3 C         -31.2395   50.1044  -10.4875 C.ar    1  UNL1        0.0777
      4 C         -30.1248   50.4128  -11.2790 C.ar    1  UNL1        0.2969
      5 N         -28.9364   50.6340  -10.6594 N.ar    1  UNL1       -0.1229
      6 C         -27.7310   50.9297  -11.1742 C.ar    1  UNL1        0.2751
      7 I         -27.3580   51.3107  -13.2281 I       1  UNL1        0.0389
      8 C         -26.8517   51.0449  -10.0981 C.ar    1  UNL1        0.1314
      9 N         -27.5129   50.8339   -8.9346 N.ar    1  UNL1       -0.2939
     10 C         -28.7788   50.5885   -9.3255 C.ar    1  UNL1        0.3125
     11 H         -27.1529   50.8550   -8.0185 H       1  UNL1        0.1718
     12 N         -28.0129   49.8140   -5.0252 N.3     1  UNL1       -0.2647
     13 C         -29.2583   49.0293   -4.9505 C.3     1  UNL1        0.0941
     14 C         -29.8862   48.9689   -6.3468 C.3     1  UNL1        0.1084
     15 N         -29.6996   50.2429   -7.0533 N.pl3   1  UNL1       -0.2988
     16 C         -29.4358   51.4629   -6.2802 C.3     1  UNL1        0.1084
     17 C         -28.2687   51.2479   -5.2941 C.3     1  UNL1        0.0941
     18 C         -27.1098   49.5932   -3.8756 C.3     1  UNL1        0.1200
     19 N         -26.8988   45.9926   -3.1597 N.ar    1  UNL1       -0.3128
     20 C         -27.5862   46.4971   -2.1152 C.ar    1  UNL1        0.1780
     21 N         -27.7530   47.8332   -2.1966 N.ar    1  UNL1       -0.2273
     22 C         -27.1418   48.1791   -3.3487 C.ar    1  UNL1        0.0885
     23 C         -26.6084   47.0488   -3.9473 C.ar    1  UNL1        0.0537
     24 C         -25.9678   46.9713   -5.3037 C.3     1  UNL1        0.0514
     25 C         -25.3854   44.1199   -2.6783 C.3     1  UNL1        0.0265
     26 C         -26.6445   44.5725   -3.4086 C.3     1  UNL1        0.1073
     27 C         -25.4141   51.3801  -10.1446 C.ar    1  UNL1        0.0221
     28 C         -24.6662   51.3895   -8.9606 C.ar    1  UNL1        0.0013
     29 C         -23.3005   51.6852   -8.9826 C.ar    1  UNL1       -0.0042
     30 C         -22.6367   51.9682  -10.1995 C.ar    1  UNL1       -0.0228
     31 C         -23.4006   51.9273  -11.3869 C.ar    1  UNL1       -0.0042
     32 C         -24.7655   51.6322  -11.3597 C.ar    1  UNL1        0.0013
     33 C         -21.1315   52.2983  -10.2725 C.3     1  UNL1        0.0189
     34 C         -20.9374   53.6607  -10.9727 C.3     1  UNL1        0.0044
     35 C         -20.3163   51.2441  -11.0597 C.3     1  UNL1        0.0044
     36 C         -20.5491   52.3683   -8.8438 C.3     1  UNL1        0.0044
@<TRIPOS>BOND
     1    25    26    1
     2    26    19    1
     3    19    20   ar
     4    20    21   ar
     5    21    22   ar
     6    22    18    1
     7    18    12    1
     8    12    13    1
     9    13    14    1
    10    14    15    1
    11    15     1    1
    12     1     2   ar
    13     2     3   ar
    14     3     4   ar
    15     4     5   ar
    16     5     6   ar
    17     6     7    1
    18     6     8   ar
    19     8    27    1
    20    27    28   ar
    21    28    29   ar
    22    29    30   ar
    23    30    33    1
    24    33    34    1
    25    33    35    1
    26    33    36    1
    27    30    31   ar
    28    31    32   ar
    29     8     9   ar
    30     9    10   ar
    31    15    16    1
    32    16    17    1
    33    22    23   ar
    34    23    24    1
    35    23    19   ar
    36    17    12    1
    37    10     1   ar
    38    10     5   ar
    39    32    27   ar
    40     9    11    1
@<TRIPOS>MOLECULE
*****
 36 40 0 0 0
SMALL
GASTEIGER

@<TRIPOS>ATOM
      1 C         -29.6195   47.4358   -7.7261 C.ar    1  UNL1        0.1317
      2 C         -30.6258   47.3449   -6.7444 C.ar    1  UNL1        0.0286
      3 C         -30.6381   48.2320   -5.6525 C.ar    1  UNL1        0.0777
      4 C         -29.6484   49.2190   -5.5512 C.ar    1  UNL1        0.2969
      5 N         -28.7069   49.2895   -6.5277 N.ar    1  UNL1       -0.1229
      6 C         -27.6726   50.1342   -6.6769 C.ar    1  UNL1        0.2751
      7 I         -27.0932   51.5940   -5.2500 I       1  UNL1        0.0389
      8 C         -27.0263   49.7735   -7.8587 C.ar    1  UNL1        0.1314
      9 N         -27.6501   48.7114   -8.4226 N.ar    1  UNL1       -0.2939
     10 C         -28.6665   48.4509   -7.5771 C.ar    1  UNL1        0.3125
     11 H         -27.4159   48.2404   -9.2548 H       1  UNL1        0.1718
     12 N         -29.7312   46.3019  -11.5058 N.3     1  UNL1       -0.2647
     13 C         -30.6434   45.4068  -10.7715 C.3     1  UNL1        0.0941
     14 C         -30.8399   45.9586   -9.3558 C.3     1  UNL1        0.1084
     15 N         -29.5888   46.5362   -8.8475 N.pl3   1  UNL1       -0.2988
     16 C         -28.3113   46.1206   -9.4396 C.3     1  UNL1        0.1084
     17 C         -28.3487   46.2510  -10.9766 C.3     1  UNL1        0.0941
     18 C         -29.7955   46.1308  -12.9730 C.3     1  UNL1        0.1200
     19 N         -30.7459   48.8181  -15.2961 N.ar    1  UNL1       -0.3128
     20 C         -30.5330   49.4533  -14.1259 C.ar    1  UNL1        0.1780
     21 N         -30.1830   48.6117  -13.1314 N.ar    1  UNL1       -0.2273
     22 C         -30.1751   47.3925  -13.7094 C.ar    1  UNL1        0.0885
     23 C         -30.5254   47.5110  -15.0449 C.ar    1  UNL1        0.0537
     24 C         -30.5060   46.4191  -16.0762 C.3     1  UNL1        0.0514
     25 C         -29.7473   49.7735  -17.3256 C.3     1  UNL1        0.0265
     26 C         -31.0385   49.4637  -16.5771 C.3     1  UNL1        0.1073
     27 C         -25.8187   50.3885   -8.4459 C.ar    1  UNL1        0.0221
     28 C         -25.8873   50.9742   -9.7161 C.ar    1  UNL1        0.0013
     29 C         -24.7625   51.5787  -10.2840 C.ar    1  UNL1       -0.0042
     30 C         -23.5325   51.6270   -9.5868 C.ar    1  UNL1       -0.0228
     31 C         -23.4886   51.0557   -8.2957 C.ar    1  UNL1       -0.0042
     32 C         -24.6153   50.4518   -7.7329 C.ar    1  UNL1        0.0013
     33 C         -22.2658   52.2844  -10.1727 C.3     1  UNL1        0.0189
     34 C         -22.6523   53.5952  -10.8913 C.3     1  UNL1        0.0044
     35 C         -21.5331   51.3843  -11.1969 C.3     1  UNL1        0.0044
     36 C         -21.2731   52.5983   -9.0319 C.3     1  UNL1        0.0044
@<TRIPOS>BOND
     1    25    26    1
     2    26    19    1
     3    19    20   ar
     4    20    21   ar
     5    21    22   ar
     6    22    18    1
     7    18    12    1
     8    12    13    1
     9    13    14    1
    10    14    15    1
    11    15     1    1
    12     1     2   ar
    13     2     3   ar
    14     3     4   ar
    15     4     5   ar
    16     5     6   ar
    17     6     7    1
    18     6     8   ar
    19     8    27    1
    20    27    28   ar
    21    28    29   ar
    22    29    30   ar
    23    30    33    1
    24    33    34    1
    25    33    35    1
    26    33    36    1
    27    30    31   ar
    28    31    32   ar
    29     8     9   ar
    30     9    10   ar
    31    15    16    1
    32    16    17    1
    33    22    23   ar
    34    23    24    1
    35    23    19   ar
    36    17    12    1
    37    10     1   ar
    38    10     5   ar
    39    32    27   ar
    40     9    11    1
@<TRIPOS>MOLECULE
*****
 36 40 0 0 0
SMALL
GASTEIGER

@<TRIPOS>ATOM
      1 C         -29.9002   50.3494   -8.8602 C.ar    1  UNL1        0.1317
      2 C         -31.1288   50.1801   -9.5284 C.ar    1  UNL1        0.0286
      3 C         -31.2092   50.3422  -10.9236 C.ar    1  UNL1        0.0777
      4 C         -30.0548   50.6617  -11.6511 C.ar    1  UNL1        0.2969
      5 N         -28.8842   50.7961  -10.9752 N.ar    1  UNL1       -0.1229
      6 C         -27.6503   51.0809  -11.4244 C.ar    1  UNL1        0.2751
      7 I         -27.1853   51.5858  -13.4323 I       1  UNL1        0.0389
      8 C         -26.8097   51.0902  -10.3118 C.ar    1  UNL1        0.1314
      9 N         -27.5222   50.8258   -9.1904 N.ar    1  UNL1       -0.2939
     10 C         -28.7799   50.6547   -9.6428 C.ar    1  UNL1        0.3125
     11 H         -27.1974   50.7715   -8.2626 H       1  UNL1        0.1718
     12 N         -28.1623   49.8054   -5.3575 N.3     1  UNL1       -0.2647
     13 C         -29.2967   48.8661   -5.4141 C.3     1  UNL1        0.0941
     14 C         -29.8490   48.8473   -6.8431 C.3     1  UNL1        0.1084
     15 N         -29.7992   50.1908   -7.4346 N.pl3   1  UNL1       -0.2988
     16 C         -29.7312   51.3631   -6.5534 C.3     1  UNL1        0.1084
     17 C         -28.5908   51.2133   -5.5250 C.3     1  UNL1        0.0941
     18 C         -27.2898   49.6024   -4.1813 C.3     1  UNL1        0.1200
     19 N         -26.7826   46.1410   -3.0484 N.ar    1  UNL1       -0.3128
     20 C         -26.0027   46.2477   -4.1431 C.ar    1  UNL1        0.1780
     21 N         -26.0709   47.4673   -4.7157 N.ar    1  UNL1       -0.2273
     22 C         -26.9335   48.1557   -3.9395 C.ar    1  UNL1        0.0885
     23 C         -27.3806   47.3425   -2.9103 C.ar    1  UNL1        0.0537
     24 C         -28.2417   47.7565   -1.7513 C.3     1  UNL1        0.0514
     25 C         -25.5401   44.1999   -2.2015 C.3     1  UNL1        0.0265
     26 C         -26.8474   44.9823   -2.1559 C.3     1  UNL1        0.1073
     27 C         -25.3607   51.3741  -10.2831 C.ar    1  UNL1        0.0221
     28 C         -24.6604   51.5259  -11.4863 C.ar    1  UNL1        0.0013
     29 C         -23.2928   51.8136  -11.4837 C.ar    1  UNL1       -0.0042
     30 C         -22.5849   51.9722  -10.2691 C.ar    1  UNL1       -0.0228
     31 C         -23.3126   51.8428   -9.0654 C.ar    1  UNL1       -0.0042
     32 C         -24.6792   51.5544   -9.0732 C.ar    1  UNL1        0.0013
     33 C         -21.0764   52.2911  -10.2173 C.3     1  UNL1        0.0189
     34 C         -20.8168   53.6585  -10.8858 C.3     1  UNL1        0.0044
     35 C         -20.2079   51.2379  -10.9466 C.3     1  UNL1        0.0044
     36 C         -20.6108   52.3430   -8.7456 C.3     1  UNL1        0.0044
@<TRIPOS>BOND
     1    25    26    1
     2    26    19    1
     3    19    20   ar
     4    20    21   ar
     5    21    22   ar
     6    22    18    1
     7    18    12    1
     8    12    13    1
     9    13    14    1
    10    14    15    1
    11    15     1    1
    12     1     2   ar
    13     2     3   ar
    14     3     4   ar
    15     4     5   ar
    16     5     6   ar
    17     6     7    1
    18     6     8   ar
    19     8    27    1
    20    27    28   ar
    21    28    29   ar
    22    29    30   ar
    23    30    33    1
    24    33    34    1
    25    33    35    1
    26    33    36    1
    27    30    31   ar
    28    31    32   ar
    29     8     9   ar
    30     9    10   ar
    31    15    16    1
    32    16    17    1
    33    22    23   ar
    34    23    24    1
    35    23    19   ar
    36    17    12    1
    37    10     1   ar
    38    10     5   ar
    39    32    27   ar
    40     9    11    1
@<TRIPOS>MOLECULE
*****
 36 40 0 0 0
SMALL
GASTEIGER

@<TRIPOS>ATOM
      1 C         -29.5854   47.8319   -8.1622 C.ar    1  UNL1        0.1317
      2 C         -30.9202   47.6313   -8.5657 C.ar    1  UNL1        0.0286
      3 C         -31.4477   48.3401   -9.6606 C.ar    1  UNL1        0.0777
      4 C         -30.6330   49.2411  -10.3594 C.ar    1  UNL1        0.2969
      5 N         -29.3453   49.3925   -9.9545 N.ar    1  UNL1       -0.1229
      6 C         -28.3653   50.1676  -10.4488 C.ar    1  UNL1        0.2751
      7 I         -28.6190   51.5816  -12.0106 I       1  UNL1        0.0389
      8 C         -27.2353   49.9354   -9.6655 C.ar    1  UNL1        0.1314
      9 N         -27.5220   49.0364   -8.6934 N.ar    1  UNL1       -0.2939
     10 C         -28.8176   48.7347   -8.9080 C.ar    1  UNL1        0.3125
     11 H         -26.9240   48.6857   -7.9943 H       1  UNL1        0.1718
     12 N         -28.0552   47.3003   -4.5622 N.3     1  UNL1       -0.2647
     13 C         -27.1830   46.5723   -5.5011 C.3     1  UNL1        0.0941
     14 C         -27.5746   46.9535   -6.9325 C.3     1  UNL1        0.1084
     15 N         -29.0297   47.1189   -7.0440 N.pl3   1  UNL1       -0.2988
     16 C         -29.9048   46.4798   -6.0534 C.3     1  UNL1        0.1084
     17 C         -29.4579   46.8278   -4.6183 C.3     1  UNL1        0.0941
     18 C         -27.5186   47.3568   -3.1856 C.3     1  UNL1        0.1200
     19 N         -25.7475   50.5770   -3.0625 N.ar    1  UNL1       -0.3128
     20 C         -25.1531   49.8366   -2.1052 C.ar    1  UNL1        0.1780
     21 N         -25.6893   48.6040   -1.9906 N.ar    1  UNL1       -0.2273
     22 C         -26.6641   48.5730   -2.9229 C.ar    1  UNL1        0.0885
     23 C         -26.7092   49.7889   -3.5863 C.ar    1  UNL1        0.0537
     24 C         -27.5538   50.1262   -4.7817 C.3     1  UNL1        0.0514
     25 C         -24.4901   52.5827   -2.4106 C.3     1  UNL1        0.0265
     26 C         -25.3282   51.9121   -3.4928 C.3     1  UNL1        0.1073
     27 C         -25.9064   50.5663   -9.7963 C.ar    1  UNL1        0.0221
     28 C         -25.1489   50.8305   -8.6486 C.ar    1  UNL1        0.0013
     29 C         -23.8809   51.4095   -8.7490 C.ar    1  UNL1       -0.0042
     30 C         -23.3253   51.7302  -10.0099 C.ar    1  UNL1       -0.0228
     31 C         -24.0917   51.4317  -11.1583 C.ar    1  UNL1       -0.0042
     32 C         -25.3589   50.8538  -11.0526 C.ar    1  UNL1        0.0013
     33 C         -21.9300   52.3687  -10.1697 C.3     1  UNL1        0.0189
     34 C         -21.2614   52.4964   -8.7838 C.3     1  UNL1        0.0044
     35 C         -21.9774   53.7808  -10.8016 C.3     1  UNL1        0.0044
     36 C         -21.0567   51.4780  -11.0804 C.3     1  UNL1        0.0044
@<TRIPOS>BOND
     1    25    26    1
     2    26    19    1
     3    19    20   ar
     4    20    21   ar
     5    21    22   ar
     6    22    18    1
     7    18    12    1
     8    12    13    1
     9    13    14    1
    10    14    15    1
    11    15     1    1
    12     1     2   ar
    13     2     3   ar
    14     3     4   ar
    15     4     5   ar
    16     5     6   ar
    17     6     7    1
    18     6     8   ar
    19     8    27    1
    20    27    28   ar
    21    28    29   ar
    22    29    30   ar
    23    30    33    1
    24    33    34    1
    25    33    35    1
    26    33    36    1
    27    30    31   ar
    28    31    32   ar
    29     8     9   ar
    30     9    10   ar
    31    15    16    1
    32    16    17    1
    33    22    23   ar
    34    23    24    1
    35    23    19   ar
    36    17    12    1
    37    10     1   ar
    38    10     5   ar
    39    32    27   ar
    40     9    11    1
@<TRIPOS>MOLECULE
*****
 36 40 0 0 0
SMALL
GASTEIGER

@<TRIPOS>ATOM
      1 C         -29.8417   50.4030   -7.5275 C.ar    1  UNL1        0.1317
      2 C         -31.1634   50.0950   -7.9054 C.ar    1  UNL1        0.0286
      3 C         -31.5373   50.1049   -9.2617 C.ar    1  UNL1        0.0777
      4 C         -30.5826   50.4113  -10.2407 C.ar    1  UNL1        0.2969
      5 N         -29.3133   50.6823   -9.8401 N.ar    1  UNL1       -0.1229
      6 C         -28.2218   50.9879  -10.5617 C.ar    1  UNL1        0.2751
      7 I         -28.2140   51.3049  -12.6598 I       1  UNL1        0.0389
      8 C         -27.1764   51.1617   -9.6554 C.ar    1  UNL1        0.1314
      9 N         -27.6242   50.9765   -8.3902 N.ar    1  UNL1       -0.2939
     10 C         -28.9304   50.6876   -8.5518 C.ar    1  UNL1        0.3125
     11 H         -27.1148   51.0383   -7.5500 H       1  UNL1        0.1718
     12 N         -28.2524   49.0294   -4.1850 N.3     1  UNL1       -0.2647
     13 C         -29.5833   49.5553   -3.8323 C.3     1  UNL1        0.0941
     14 C         -30.3485   49.8634   -5.1235 C.3     1  UNL1        0.1084
     15 N         -29.4418   50.4008   -6.1463 N.pl3   1  UNL1       -0.2988
     16 C         -28.1700   51.0075   -5.7337 C.3     1  UNL1        0.1084
     17 C         -27.3863   50.0617   -4.8001 C.3     1  UNL1        0.0941
     18 C         -27.5933   48.3075   -3.0758 C.3     1  UNL1        0.1200
     19 N         -30.0620   46.4762   -1.0574 N.ar    1  UNL1       -0.3128
     20 C         -29.7844   47.5732   -0.3241 C.ar    1  UNL1        0.1780
     21 N         -28.8693   48.3737   -0.9084 N.ar    1  UNL1       -0.2273
     22 C         -28.5624   47.7472   -2.0632 C.ar    1  UNL1        0.0885
     23 C         -29.2916   46.5728   -2.1608 C.ar    1  UNL1        0.0537
     24 C         -29.3503   45.6507   -3.3451 C.3     1  UNL1        0.0514
     25 C         -31.1814   45.2712    0.7657 C.3     1  UNL1        0.0265
     26 C         -31.0810   45.4735   -0.7417 C.3     1  UNL1        0.1073
     27 C         -25.7780   51.5289   -9.9566 C.ar    1  UNL1        0.0221
     28 C         -25.1686   52.5739   -9.2511 C.ar    1  UNL1        0.0013
     29 C         -23.8405   52.9266   -9.5058 C.ar    1  UNL1       -0.0042
     30 C         -23.0749   52.2302  -10.4702 C.ar    1  UNL1       -0.0228
     31 C         -23.6968   51.1613  -11.1528 C.ar    1  UNL1       -0.0042
     32 C         -25.0248   50.8132  -10.8954 C.ar    1  UNL1        0.0013
     33 C         -21.6061   52.5830  -10.7839 C.3     1  UNL1        0.0189
     34 C         -21.5590   53.6133  -11.9329 C.3     1  UNL1        0.0044
     35 C         -20.7664   51.3568  -11.2162 C.3     1  UNL1        0.0044
     36 C         -20.9409   53.1855   -9.5270 C.3     1  UNL1        0.0044
@<TRIPOS>BOND
     1    25    26    1
     2    26    19    1
     3    19    20   ar
     4    20    21   ar
     5    21    22   ar
     6    22    18    1
     7    18    12    1
     8    12    13    1
     9    13    14    1
    10    14    15    1
    11    15     1    1
    12     1     2   ar
    13     2     3   ar
    14     3     4   ar
    15     4     5   ar
    16     5     6   ar
    17     6     7    1
    18     6     8   ar
    19     8    27    1
    20    27    28   ar
    21    28    29   ar
    22    29    30   ar
    23    30    33    1
    24    33    34    1
    25    33    35    1
    26    33    36    1
    27    30    31   ar
    28    31    32   ar
    29     8     9   ar
    30     9    10   ar
    31    15    16    1
    32    16    17    1
    33    22    23   ar
    34    23    24    1
    35    23    19   ar
    36    17    12    1
    37    10     1   ar
    38    10     5   ar
    39    32    27   ar
    40     9    11    1
