@<TRIPOS>MOLECULE
*****
 38 42 0 0 0
SMALL
GASTEIGER

@<TRIPOS>ATOM
      1 C         -22.6104   -8.8524  -10.2217 C.2     1  UNL1        0.2506
      2 O         -23.7121   -9.4232   -9.9973 O.2     1  UNL1       -0.2699
      3 N         -22.4225   -8.1013  -11.4381 N.am    1  UNL1       -0.2680
      4 C         -21.6706   -6.8432  -11.4114 C.3     1  UNL1        0.1412
      5 C         -20.2766   -7.0657  -11.9855 C.3     1  UNL1        0.2268
      6 O         -20.2936   -8.0796  -12.9868 O.3     1  UNL1       -0.4739
      7 C         -21.1462   -8.0251  -14.0911 C.ar    1  UNL1        0.1359
      8 C         -20.5608   -7.8585  -15.3444 C.ar    1  UNL1        0.0366
      9 C         -21.3451   -7.7388  -16.4828 C.ar    1  UNL1        0.0028
     10 C         -22.7390   -7.8194  -16.3999 C.ar    1  UNL1       -0.0040
     11 C         -23.3562   -8.0821  -15.1470 C.ar    1  UNL1       -0.0213
     12 C         -24.8551   -8.3028  -15.0720 C.3     1  UNL1        0.0309
     13 C         -22.5573   -8.1358  -13.9649 C.ar    1  UNL1        0.0277
     14 C         -23.2259   -8.4400  -12.6213 C.3     1  UNL1        0.1233
     15 C         -23.5195   -7.6149  -17.6424 C.ar    1  UNL1        0.0012
     16 C         -24.1711   -6.3751  -17.8789 C.ar    1  UNL1        0.0016
     17 C         -24.9278   -6.1736  -19.0486 C.ar    1  UNL1        0.0206
     18 C         -25.0175   -7.2289  -19.9515 C.ar    1  UNL1        0.0985
     19 N         -25.6827   -7.2588  -21.1203 N.ar    1  UNL1       -0.2241
     20 C         -25.4371   -8.5159  -21.5756 C.ar    1  UNL1        0.1750
     21 N         -24.6588   -9.2499  -20.7442 N.ar    1  UNL1       -0.3349
     22 C         -24.4028   -8.4219  -19.7249 C.ar    1  UNL1        0.0757
     23 C         -23.6462   -8.6640  -18.5819 C.ar    1  UNL1        0.0185
     24 H         -24.3353  -10.2343  -20.8724 H       1  UNL1        0.1675
     25 C         -20.2836   -9.5388   -9.5230 C.ar    1  UNL1        0.0503
     26 C         -19.2797   -9.5464   -8.5328 C.ar    1  UNL1        0.0328
     27 C         -19.5220   -9.0165   -7.2598 C.ar    1  UNL1        0.1069
     28 C         -20.7715   -8.4647   -6.9643 C.ar    1  UNL1        0.0186
     29 C         -21.7733   -8.4397   -7.9335 C.ar    1  UNL1        0.0071
     30 C         -21.5368   -8.9551   -9.2158 C.ar    1  UNL1        0.0667
     31 S         -18.2457   -9.0265   -6.0467 S.O2    1  UNL1        0.0105
     32 C         -18.9515   -9.3800   -4.4534 C.3     1  UNL1        0.1816
     33 O         -17.5689   -7.6850   -6.0130 O.2     1  UNL1       -0.1686
     34 O         -17.2227  -10.0748   -6.3842 O.2     1  UNL1       -0.1686
     35 N         -20.0587  -10.1457  -10.8158 N.pl3   1  UNL1       -0.3325
     36 H         -19.7549   -9.5480  -11.6166 H       1  UNL1        0.1468
     37 C         -21.2680  -11.7929  -12.1752 C.3     1  UNL1        0.0229
     38 C         -20.2090  -11.5724  -11.1011 C.3     1  UNL1        0.0871
@<TRIPOS>BOND
     1    37    38    1
     2    38    35    1
     3    35    25    1
     4    25    26   ar
     5    26    27   ar
     6    27    31    1
     7    31    32    1
     8    31    33    2
     9    31    34    2
    10    27    28   ar
    11    28    29   ar
    12    29    30   ar
    13    30     1    1
    14     1     2    2
    15     1     3   am
    16     3     4    1
    17     4     5    1
    18     5     6    1
    19     6     7    1
    20     7     8   ar
    21     8     9   ar
    22     9    10   ar
    23    10    15    1
    24    15    16   ar
    25    16    17   ar
    26    17    18   ar
    27    18    19   ar
    28    19    20   ar
    29    20    21   ar
    30    21    22   ar
    31    22    23   ar
    32    10    11   ar
    33    11    12    1
    34    11    13   ar
    35    13    14    1
    36    30    25   ar
    37    14     3    1
    38    13     7   ar
    39    23    15   ar
    40    22    18   ar
    41    35    36    1
    42    21    24    1
@<TRIPOS>MOLECULE
*****
 38 42 0 0 0
SMALL
GASTEIGER

@<TRIPOS>ATOM
      1 C         -21.8017   -8.2903   -9.4063 C.2     1  UNL1        0.2506
      2 O         -22.5608   -8.1977   -8.4037 O.2     1  UNL1       -0.2699
      3 N         -22.1371   -7.6050  -10.6298 N.am    1  UNL1       -0.2680
      4 C         -21.0815   -6.9714  -11.4256 C.3     1  UNL1        0.1412
      5 C         -20.7682   -7.8336  -12.6425 C.3     1  UNL1        0.2268
      6 O         -21.9292   -8.5313  -13.0854 O.3     1  UNL1       -0.4739
      7 C         -23.1235   -7.8761  -13.3915 C.ar    1  UNL1        0.1359
      8 C         -23.5366   -7.8862  -14.7220 C.ar    1  UNL1        0.0366
      9 C         -24.6828   -7.2093  -15.1135 C.ar    1  UNL1        0.0028
     10 C         -25.4673   -6.5327  -14.1736 C.ar    1  UNL1       -0.0040
     11 C         -25.1190   -6.5850  -12.7968 C.ar    1  UNL1       -0.0213
     12 C         -26.0364   -5.9669  -11.7589 C.3     1  UNL1        0.0309
     13 C         -23.9036   -7.2210  -12.4007 C.ar    1  UNL1        0.0277
     14 C         -23.5448   -7.2922  -10.9137 C.3     1  UNL1        0.1233
     15 C         -26.6394   -5.7734  -14.6681 C.ar    1  UNL1        0.0012
     16 C         -26.4530   -4.5592  -15.3811 C.ar    1  UNL1        0.0016
     17 C         -27.5589   -3.8211  -15.8431 C.ar    1  UNL1        0.0206
     18 C         -28.8294   -4.3191  -15.5701 C.ar    1  UNL1        0.0985
     19 N         -30.0152   -3.7825  -15.9099 N.ar    1  UNL1       -0.2241
     20 C         -30.9071   -4.6685  -15.3928 C.ar    1  UNL1        0.1750
     21 N         -30.3246   -5.7135  -14.7568 N.ar    1  UNL1       -0.3349
     22 C         -29.0135   -5.4771  -14.8789 C.ar    1  UNL1        0.0757
     23 C         -27.9487   -6.2372  -14.4034 C.ar    1  UNL1        0.0185
     24 H         -30.7938   -6.5163  -14.2819 H       1  UNL1        0.1675
     25 C         -19.6720   -8.9296   -8.2109 C.ar    1  UNL1        0.0503
     26 C         -18.5452   -9.7737   -8.1329 C.ar    1  UNL1        0.0328
     27 C         -18.2967  -10.7340   -9.1210 C.ar    1  UNL1        0.1069
     28 C         -19.1786  -10.8665  -10.1969 C.ar    1  UNL1        0.0186
     29 C         -20.3031  -10.0473  -10.2861 C.ar    1  UNL1        0.0071
     30 C         -20.5689   -9.0919   -9.2949 C.ar    1  UNL1        0.0667
     31 S         -16.8893  -11.7842   -8.9911 S.O2    1  UNL1        0.0105
     32 C         -16.5515  -12.1052   -7.2752 C.3     1  UNL1        0.1816
     33 O         -15.7002  -11.1174   -9.6239 O.2     1  UNL1       -0.1686
     34 O         -17.1488  -13.0833   -9.7013 O.2     1  UNL1       -0.1686
     35 N         -19.8947   -7.8925   -7.2287 N.pl3   1  UNL1       -0.3325
     36 H         -20.6568   -7.1952   -7.3834 H       1  UNL1        0.1468
     37 C         -19.7267   -8.6101   -4.8876 C.3     1  UNL1        0.0229
     38 C         -19.1303   -7.7432   -5.9906 C.3     1  UNL1        0.0871
@<TRIPOS>BOND
     1    37    38    1
     2    38    35    1
     3    35    25    1
     4    25    26   ar
     5    26    27   ar
     6    27    31    1
     7    31    32    1
     8    31    33    2
     9    31    34    2
    10    27    28   ar
    11    28    29   ar
    12    29    30   ar
    13    30     1    1
    14     1     2    2
    15     1     3   am
    16     3     4    1
    17     4     5    1
    18     5     6    1
    19     6     7    1
    20     7     8   ar
    21     8     9   ar
    22     9    10   ar
    23    10    15    1
    24    15    16   ar
    25    16    17   ar
    26    17    18   ar
    27    18    19   ar
    28    19    20   ar
    29    20    21   ar
    30    21    22   ar
    31    22    23   ar
    32    10    11   ar
    33    11    12    1
    34    11    13   ar
    35    13    14    1
    36    30    25   ar
    37    14     3    1
    38    13     7   ar
    39    23    15   ar
    40    22    18   ar
    41    35    36    1
    42    21    24    1
@<TRIPOS>MOLECULE
*****
 38 42 0 0 0
SMALL
GASTEIGER

@<TRIPOS>ATOM
      1 C         -22.1548   -7.9829   -9.5253 C.2     1  UNL1        0.2506
      2 O         -22.9338   -7.8046   -8.5499 O.2     1  UNL1       -0.2699
      3 N         -22.4082   -7.3199  -10.7804 N.am    1  UNL1       -0.2680
      4 C         -21.2899   -6.7868  -11.5642 C.3     1  UNL1        0.1412
      5 C         -21.0019   -7.7101  -12.7418 C.3     1  UNL1        0.2268
      6 O         -22.1947   -8.3435  -13.1967 O.3     1  UNL1       -0.4739
      7 C         -23.3326   -7.6207  -13.5604 C.ar    1  UNL1        0.1359
      8 C         -23.7078   -7.6497  -14.9019 C.ar    1  UNL1        0.0366
      9 C         -24.7938   -6.9115  -15.3502 C.ar    1  UNL1        0.0028
     10 C         -25.5565   -6.1514  -14.4576 C.ar    1  UNL1       -0.0040
     11 C         -25.2515   -6.1787  -13.0698 C.ar    1  UNL1       -0.0213
     12 C         -26.1536   -5.4645  -12.0813 C.3     1  UNL1        0.0309
     13 C         -24.0938   -6.8805  -12.6160 C.ar    1  UNL1        0.0277
     14 C         -23.7828   -6.9235  -11.1173 C.3     1  UNL1        0.1233
     15 C         -26.6599   -5.3329  -15.0123 C.ar    1  UNL1        0.0012
     16 C         -26.3749   -4.2548  -15.8919 C.ar    1  UNL1        0.0016
     17 C         -27.4133   -3.4606  -16.4139 C.ar    1  UNL1        0.0206
     18 C         -28.7163   -3.7658  -16.0320 C.ar    1  UNL1        0.0985
     19 N         -29.8504   -3.1444  -16.4025 N.ar    1  UNL1       -0.2241
     20 C         -30.8086   -3.8432  -15.7383 C.ar    1  UNL1        0.1750
     21 N         -30.3154   -4.8550  -14.9841 N.ar    1  UNL1       -0.3349
     22 C         -28.9937   -4.7919  -15.1819 C.ar    1  UNL1        0.0757
     23 C         -27.9979   -5.6010  -14.6422 C.ar    1  UNL1        0.0185
     24 H         -30.8470   -5.5270  -14.3874 H       1  UNL1        0.1675
     25 C         -20.7917  -10.0139  -10.1500 C.ar    1  UNL1        0.0503
     26 C         -19.6168  -10.7731   -9.9728 C.ar    1  UNL1        0.0328
     27 C         -18.6696  -10.4162   -9.0055 C.ar    1  UNL1        0.1069
     28 C         -18.8835   -9.2889   -8.2078 C.ar    1  UNL1        0.0186
     29 C         -20.0347   -8.5205   -8.3750 C.ar    1  UNL1        0.0071
     30 C         -20.9830   -8.8610   -9.3500 C.ar    1  UNL1        0.0667
     31 S         -17.2046  -11.3744   -8.8151 S.O2    1  UNL1        0.0105
     32 C         -17.4790  -13.0046   -9.4697 C.3     1  UNL1        0.1816
     33 O         -16.8471  -11.4684   -7.3583 O.2     1  UNL1       -0.1686
     34 O         -16.0655  -10.7254   -9.5505 O.2     1  UNL1       -0.1686
     35 N         -21.8029  -10.4181  -11.1009 N.pl3   1  UNL1       -0.3325
     36 H         -22.7046   -9.8929  -11.1445 H       1  UNL1        0.1468
     37 C         -22.9119  -11.6602  -12.9040 C.3     1  UNL1        0.0229
     38 C         -21.6583  -11.5240  -12.0474 C.3     1  UNL1        0.0871
@<TRIPOS>BOND
     1    37    38    1
     2    38    35    1
     3    35    25    1
     4    25    26   ar
     5    26    27   ar
     6    27    31    1
     7    31    32    1
     8    31    33    2
     9    31    34    2
    10    27    28   ar
    11    28    29   ar
    12    29    30   ar
    13    30     1    1
    14     1     2    2
    15     1     3   am
    16     3     4    1
    17     4     5    1
    18     5     6    1
    19     6     7    1
    20     7     8   ar
    21     8     9   ar
    22     9    10   ar
    23    10    15    1
    24    15    16   ar
    25    16    17   ar
    26    17    18   ar
    27    18    19   ar
    28    19    20   ar
    29    20    21   ar
    30    21    22   ar
    31    22    23   ar
    32    10    11   ar
    33    11    12    1
    34    11    13   ar
    35    13    14    1
    36    30    25   ar
    37    14     3    1
    38    13     7   ar
    39    23    15   ar
    40    22    18   ar
    41    35    36    1
    42    21    24    1
@<TRIPOS>MOLECULE
*****
 38 42 0 0 0
SMALL
GASTEIGER

@<TRIPOS>ATOM
      1 C         -19.3893   -8.7545  -10.9404 C.2     1  UNL1        0.2506
      2 O         -18.2841   -8.5557  -11.5139 O.2     1  UNL1       -0.2699
      3 N         -20.5838   -8.9469  -11.7248 N.am    1  UNL1       -0.2680
      4 C         -21.5823   -9.9349  -11.3054 C.3     1  UNL1        0.1412
      5 C         -22.7744   -9.2247  -10.6752 C.3     1  UNL1        0.2268
      6 O         -22.9735   -7.9425  -11.2643 O.3     1  UNL1       -0.4739
      7 C         -23.1220   -7.7677  -12.6416 C.ar    1  UNL1        0.1359
      8 C         -24.3630   -7.3326  -13.1016 C.ar    1  UNL1        0.0366
      9 C         -24.6050   -7.1897  -14.4604 C.ar    1  UNL1        0.0028
     10 C         -23.5960   -7.4448  -15.3949 C.ar    1  UNL1       -0.0040
     11 C         -22.2946   -7.7996  -14.9473 C.ar    1  UNL1       -0.0213
     12 C         -21.1634   -7.9474  -15.9471 C.3     1  UNL1        0.0309
     13 C         -22.0622   -8.0152  -13.5552 C.ar    1  UNL1        0.0277
     14 C         -20.6529   -8.3767  -13.0776 C.3     1  UNL1        0.1233
     15 C         -23.9404   -7.3396  -16.8320 C.ar    1  UNL1        0.0012
     16 C         -24.4215   -6.1127  -17.3617 C.ar    1  UNL1        0.0016
     17 C         -24.7661   -6.0042  -18.7221 C.ar    1  UNL1        0.0206
     18 C         -24.6253   -7.1372  -19.5180 C.ar    1  UNL1        0.0985
     19 N         -24.8952   -7.2611  -20.8300 N.ar    1  UNL1       -0.2241
     20 C         -24.5856   -8.5608  -21.0806 C.ar    1  UNL1        0.1750
     21 N         -24.1429   -9.2315  -19.9898 N.ar    1  UNL1       -0.3349
     22 C         -24.1738   -8.3177  -19.0131 C.ar    1  UNL1        0.0757
     23 C         -23.8230   -8.4690  -17.6745 C.ar    1  UNL1        0.0185
     24 H         -23.8469  -10.2310  -19.9289 H       1  UNL1        0.1675
     25 C         -18.6943   -9.7662   -8.7343 C.ar    1  UNL1        0.0503
     26 C         -18.7268   -9.7145   -7.3256 C.ar    1  UNL1        0.0328
     27 C         -19.4932   -8.7506   -6.6594 C.ar    1  UNL1        0.1069
     28 C         -20.2314   -7.8206   -7.3962 C.ar    1  UNL1        0.0186
     29 C         -20.2041   -7.8502   -8.7897 C.ar    1  UNL1        0.0071
     30 C         -19.4291   -8.8023   -9.4670 C.ar    1  UNL1        0.0667
     31 S         -19.5044   -8.7003   -4.8993 S.O2    1  UNL1        0.0105
     32 C         -18.5234   -7.3253   -4.3440 C.3     1  UNL1        0.1816
     33 O         -18.9360   -9.9799   -4.3528 O.2     1  UNL1       -0.1686
     34 O         -20.9128   -8.5449   -4.3975 O.2     1  UNL1       -0.1686
     35 N         -17.9582  -10.8016   -9.4245 N.pl3   1  UNL1       -0.3325
     36 H         -17.8070  -10.7229  -10.4549 H       1  UNL1        0.1468
     37 C         -15.8915  -12.0879   -9.1112 C.3     1  UNL1        0.0229
     38 C         -17.3751  -11.9773   -8.7786 C.3     1  UNL1        0.0871
@<TRIPOS>BOND
     1    37    38    1
     2    38    35    1
     3    35    25    1
     4    25    26   ar
     5    26    27   ar
     6    27    31    1
     7    31    32    1
     8    31    33    2
     9    31    34    2
    10    27    28   ar
    11    28    29   ar
    12    29    30   ar
    13    30     1    1
    14     1     2    2
    15     1     3   am
    16     3     4    1
    17     4     5    1
    18     5     6    1
    19     6     7    1
    20     7     8   ar
    21     8     9   ar
    22     9    10   ar
    23    10    15    1
    24    15    16   ar
    25    16    17   ar
    26    17    18   ar
    27    18    19   ar
    28    19    20   ar
    29    20    21   ar
    30    21    22   ar
    31    22    23   ar
    32    10    11   ar
    33    11    12    1
    34    11    13   ar
    35    13    14    1
    36    30    25   ar
    37    14     3    1
    38    13     7   ar
    39    23    15   ar
    40    22    18   ar
    41    35    36    1
    42    21    24    1
@<TRIPOS>MOLECULE
*****
 38 42 0 0 0
SMALL
GASTEIGER

@<TRIPOS>ATOM
      1 C         -19.6138   -8.5421  -11.1311 C.2     1  UNL1        0.2506
      2 O         -18.5009   -8.3897  -11.7040 O.2     1  UNL1       -0.2699
      3 N         -20.8070   -8.7410  -11.9159 N.am    1  UNL1       -0.2680
      4 C         -21.8289   -9.6903  -11.4643 C.3     1  UNL1        0.1412
      5 C         -23.0097   -8.9305  -10.8720 C.3     1  UNL1        0.2268
      6 O         -23.1779   -7.6693  -11.5137 O.3     1  UNL1       -0.4739
      7 C         -23.3137   -7.5472  -12.8980 C.ar    1  UNL1        0.1359
      8 C         -24.5423   -7.1053  -13.3842 C.ar    1  UNL1        0.0366
      9 C         -24.7723   -7.0124  -14.7494 C.ar    1  UNL1        0.0028
     10 C         -23.7629   -7.3260  -15.6654 C.ar    1  UNL1       -0.0040
     11 C         -22.4722   -7.6895  -15.1944 C.ar    1  UNL1       -0.0213
     12 C         -21.3380   -7.9012  -16.1791 C.3     1  UNL1        0.0309
     13 C         -22.2534   -7.8535  -13.7931 C.ar    1  UNL1        0.0277
     14 C         -20.8552   -8.2247  -13.2911 C.3     1  UNL1        0.1233
     15 C         -24.0957   -7.2718  -17.1081 C.ar    1  UNL1        0.0012
     16 C         -24.5928   -6.0706  -17.6803 C.ar    1  UNL1        0.0016
     17 C         -24.9265   -6.0108  -19.0464 C.ar    1  UNL1        0.0206
     18 C         -24.7589   -7.1655  -19.8051 C.ar    1  UNL1        0.0985
     19 N         -25.0145   -7.3351  -21.1148 N.ar    1  UNL1       -0.2241
     20 C         -24.6803   -8.6364  -21.3218 C.ar    1  UNL1        0.1750
     21 N         -24.2364   -9.2648  -20.2066 N.ar    1  UNL1       -0.3349
     22 C         -24.2920   -8.3216  -19.2593 C.ar    1  UNL1        0.0757
     23 C         -23.9511   -8.4248  -17.9137 C.ar    1  UNL1        0.0185
     24 H         -23.9238  -10.2566  -20.1117 H       1  UNL1        0.1675
     25 C         -20.5673   -7.6977   -8.9513 C.ar    1  UNL1        0.0503
     26 C         -20.6071   -7.7829   -7.5445 C.ar    1  UNL1        0.0328
     27 C         -19.7515   -8.6484   -6.8523 C.ar    1  UNL1        0.1069
     28 C         -18.8494   -9.4461   -7.5616 C.ar    1  UNL1        0.0186
     29 C         -18.8022   -9.3825   -8.9535 C.ar    1  UNL1        0.0071
     30 C         -19.6642   -8.5295   -9.6573 C.ar    1  UNL1        0.0667
     31 S         -19.8322   -8.7447   -5.0960 S.O2    1  UNL1        0.0105
     32 C         -18.9798   -7.3528   -4.3909 C.3     1  UNL1        0.1816
     33 O         -19.1892  -10.0205   -4.6290 O.2     1  UNL1       -0.1686
     34 O         -21.2661   -8.7339   -4.6450 O.2     1  UNL1       -0.1686
     35 N         -21.4017   -6.7566   -9.6641 N.pl3   1  UNL1       -0.3325
     36 H         -22.2303   -7.1061  -10.1951 H       1  UNL1        0.1468
     37 C         -21.1864   -4.7974  -11.1267 C.3     1  UNL1        0.0229
     38 C         -21.1861   -5.3100   -9.6911 C.3     1  UNL1        0.0871
@<TRIPOS>BOND
     1    37    38    1
     2    38    35    1
     3    35    25    1
     4    25    26   ar
     5    26    27   ar
     6    27    31    1
     7    31    32    1
     8    31    33    2
     9    31    34    2
    10    27    28   ar
    11    28    29   ar
    12    29    30   ar
    13    30     1    1
    14     1     2    2
    15     1     3   am
    16     3     4    1
    17     4     5    1
    18     5     6    1
    19     6     7    1
    20     7     8   ar
    21     8     9   ar
    22     9    10   ar
    23    10    15    1
    24    15    16   ar
    25    16    17   ar
    26    17    18   ar
    27    18    19   ar
    28    19    20   ar
    29    20    21   ar
    30    21    22   ar
    31    22    23   ar
    32    10    11   ar
    33    11    12    1
    34    11    13   ar
    35    13    14    1
    36    30    25   ar
    37    14     3    1
    38    13     7   ar
    39    23    15   ar
    40    22    18   ar
    41    35    36    1
    42    21    24    1
@<TRIPOS>MOLECULE
*****
 38 42 0 0 0
SMALL
GASTEIGER

@<TRIPOS>ATOM
      1 C         -22.3347   -9.4025  -11.1959 C.2     1  UNL1        0.2506
      2 O         -23.4001   -9.4557  -10.5236 O.2     1  UNL1       -0.2699
      3 N         -22.2298   -8.4921  -12.3092 N.am    1  UNL1       -0.2680
      4 C         -20.9733   -7.7773  -12.5528 C.3     1  UNL1        0.1412
      5 C         -20.2351   -8.4198  -13.7210 C.3     1  UNL1        0.2268
      6 O         -21.1522   -8.9688  -14.6635 O.3     1  UNL1       -0.4739
      7 C         -22.1739   -8.2118  -15.2403 C.ar    1  UNL1        0.1359
      8 C         -22.0910   -7.9615  -16.6084 C.ar    1  UNL1        0.0366
      9 C         -23.0379   -7.1701  -17.2427 C.ar    1  UNL1        0.0028
     10 C         -24.1158   -6.6371  -16.5283 C.ar    1  UNL1       -0.0040
     11 C         -24.2744   -6.9540  -15.1520 C.ar    1  UNL1       -0.0213
     12 C         -25.5101   -6.4896  -14.4048 C.3     1  UNL1        0.0309
     13 C         -23.2652   -7.7093  -14.4815 C.ar    1  UNL1        0.0277
     14 C         -23.4525   -8.0652  -13.0040 C.3     1  UNL1        0.1233
     15 C         -25.0522   -5.7450  -17.2509 C.ar    1  UNL1        0.0012
     16 C         -25.0564   -5.7159  -18.6709 C.ar    1  UNL1        0.0016
     17 C         -25.9310   -4.8618  -19.3688 C.ar    1  UNL1        0.0206
     18 C         -26.7776   -4.0498  -18.6199 C.ar    1  UNL1        0.0985
     19 N         -27.6832   -3.1642  -19.0729 N.ar    1  UNL1       -0.2241
     20 C         -28.2111   -2.6590  -17.9266 C.ar    1  UNL1        0.1750
     21 N         -27.6729   -3.1909  -16.8028 N.ar    1  UNL1       -0.3349
     22 C         -26.7707   -4.0671  -17.2590 C.ar    1  UNL1        0.0757
     23 C         -25.9220   -4.8950  -16.5296 C.ar    1  UNL1        0.0185
     24 H         -27.9099   -2.9665  -15.8110 H       1  UNL1        0.1675
     25 C         -21.0051  -11.5379  -11.4100 C.ar    1  UNL1        0.0503
     26 C         -19.8691  -12.2877  -11.0420 C.ar    1  UNL1        0.0328
     27 C         -18.9705  -11.8066  -10.0821 C.ar    1  UNL1        0.1069
     28 C         -19.1943  -10.5638   -9.4835 C.ar    1  UNL1        0.0186
     29 C         -20.3070   -9.8039   -9.8416 C.ar    1  UNL1        0.0071
     30 C         -21.2056  -10.2700  -10.8117 C.ar    1  UNL1        0.0667
     31 S         -17.5525  -12.7578   -9.6516 S.O2    1  UNL1        0.0105
     32 C         -16.2261  -11.6639   -9.1985 C.3     1  UNL1        0.1816
     33 O         -17.1341  -13.6011  -10.8232 O.2     1  UNL1       -0.1686
     34 O         -17.8715  -13.6631   -8.4948 O.2     1  UNL1       -0.1686
     35 N         -21.9701  -12.0616  -12.3505 N.pl3   1  UNL1       -0.3325
     36 H         -22.9601  -12.1976  -12.0469 H       1  UNL1        0.1468
     37 C         -22.7923  -11.9445  -14.6601 C.3     1  UNL1        0.0229
     38 C         -21.6711  -12.4118  -13.7389 C.3     1  UNL1        0.0871
@<TRIPOS>BOND
     1    37    38    1
     2    38    35    1
     3    35    25    1
     4    25    26   ar
     5    26    27   ar
     6    27    31    1
     7    31    32    1
     8    31    33    2
     9    31    34    2
    10    27    28   ar
    11    28    29   ar
    12    29    30   ar
    13    30     1    1
    14     1     2    2
    15     1     3   am
    16     3     4    1
    17     4     5    1
    18     5     6    1
    19     6     7    1
    20     7     8   ar
    21     8     9   ar
    22     9    10   ar
    23    10    15    1
    24    15    16   ar
    25    16    17   ar
    26    17    18   ar
    27    18    19   ar
    28    19    20   ar
    29    20    21   ar
    30    21    22   ar
    31    22    23   ar
    32    10    11   ar
    33    11    12    1
    34    11    13   ar
    35    13    14    1
    36    30    25   ar
    37    14     3    1
    38    13     7   ar
    39    23    15   ar
    40    22    18   ar
    41    35    36    1
    42    21    24    1
@<TRIPOS>MOLECULE
*****
 38 42 0 0 0
SMALL
GASTEIGER

@<TRIPOS>ATOM
      1 C         -26.6202   -7.8302  -12.4118 C.2     1  UNL1        0.2506
      2 O         -27.2119   -8.1425  -11.3430 O.2     1  UNL1       -0.2699
      3 N         -25.3614   -8.4491  -12.7459 N.am    1  UNL1       -0.2680
      4 C         -25.0739   -8.8167  -14.1356 C.3     1  UNL1        0.1412
      5 C         -24.1090   -7.8067  -14.7450 C.3     1  UNL1        0.2268
      6 O         -23.2282   -7.2819  -13.7552 O.3     1  UNL1       -0.4739
      7 C         -22.4435   -8.1023  -12.9425 C.ar    1  UNL1        0.1359
      8 C         -21.0624   -8.0426  -13.1161 C.ar    1  UNL1        0.0366
      9 C         -20.2199   -8.8684  -12.3854 C.ar    1  UNL1        0.0028
     10 C         -20.7379   -9.7522  -11.4331 C.ar    1  UNL1       -0.0040
     11 C         -22.1346   -9.7659  -11.1708 C.ar    1  UNL1       -0.0213
     12 C         -22.6865  -10.6242  -10.0485 C.3     1  UNL1        0.0309
     13 C         -23.0098   -8.9689  -11.9692 C.ar    1  UNL1        0.0277
     14 C         -24.5110   -8.9723  -11.6674 C.3     1  UNL1        0.1233
     15 C         -19.7902  -10.6538  -10.7374 C.ar    1  UNL1        0.0012
     16 C         -19.7308  -12.0300  -11.0840 C.ar    1  UNL1        0.0016
     17 C         -18.8452  -12.8997  -10.4202 C.ar    1  UNL1        0.0206
     18 C         -18.0435  -12.3650   -9.4162 C.ar    1  UNL1        0.0985
     19 N         -17.1371  -13.0060   -8.6566 N.ar    1  UNL1       -0.2241
     20 C         -16.6638  -12.0176   -7.8522 C.ar    1  UNL1        0.1750
     21 N         -17.2359  -10.8114   -8.0836 N.ar    1  UNL1       -0.3349
     22 C         -18.1035  -11.0490   -9.0739 C.ar    1  UNL1        0.0757
     23 C         -18.9650  -10.1549   -9.7034 C.ar    1  UNL1        0.0185
     24 H         -17.0421   -9.9071   -7.5989 H       1  UNL1        0.1675
     25 C         -26.5651   -5.6668  -13.7118 C.ar    1  UNL1        0.0503
     26 C         -27.1976   -4.7965  -14.6232 C.ar    1  UNL1        0.0328
     27 C         -28.4854   -5.0682  -15.1008 C.ar    1  UNL1        0.1069
     28 C         -29.1537   -6.2201  -14.6771 C.ar    1  UNL1        0.0186
     29 C         -28.5405   -7.0972  -13.7837 C.ar    1  UNL1        0.0071
     30 C         -27.2458   -6.8419  -13.3100 C.ar    1  UNL1        0.0667
     31 S         -29.2460   -3.9712  -16.2491 S.O2    1  UNL1        0.0105
     32 C         -28.0050   -3.2991  -17.3307 C.3     1  UNL1        0.1816
     33 O         -29.9279   -2.8557  -15.5078 O.2     1  UNL1       -0.1686
     34 O         -30.2727   -4.7082  -17.0629 O.2     1  UNL1       -0.1686
     35 N         -25.2636   -5.3546  -13.1652 N.pl3   1  UNL1       -0.3325
     36 H         -24.4258   -5.3831  -13.7881 H       1  UNL1        0.1468
     37 C         -23.5194   -4.9462  -11.4874 C.3     1  UNL1        0.0229
     38 C         -25.0163   -4.9741  -11.7746 C.3     1  UNL1        0.0871
@<TRIPOS>BOND
     1    37    38    1
     2    38    35    1
     3    35    25    1
     4    25    26   ar
     5    26    27   ar
     6    27    31    1
     7    31    32    1
     8    31    33    2
     9    31    34    2
    10    27    28   ar
    11    28    29   ar
    12    29    30   ar
    13    30     1    1
    14     1     2    2
    15     1     3   am
    16     3     4    1
    17     4     5    1
    18     5     6    1
    19     6     7    1
    20     7     8   ar
    21     8     9   ar
    22     9    10   ar
    23    10    15    1
    24    15    16   ar
    25    16    17   ar
    26    17    18   ar
    27    18    19   ar
    28    19    20   ar
    29    20    21   ar
    30    21    22   ar
    31    22    23   ar
    32    10    11   ar
    33    11    12    1
    34    11    13   ar
    35    13    14    1
    36    30    25   ar
    37    14     3    1
    38    13     7   ar
    39    23    15   ar
    40    22    18   ar
    41    35    36    1
    42    21    24    1
@<TRIPOS>MOLECULE
*****
 38 42 0 0 0
SMALL
GASTEIGER

@<TRIPOS>ATOM
      1 C         -22.1695   -9.3405  -11.1745 C.2     1  UNL1        0.2506
      2 O         -23.2233   -9.4331  -10.4882 O.2     1  UNL1       -0.2699
      3 N         -22.1089   -8.4183  -12.2812 N.am    1  UNL1       -0.2680
      4 C         -20.8793   -7.6618  -12.5357 C.3     1  UNL1        0.1412
      5 C         -20.1373   -8.2710  -13.7193 C.3     1  UNL1        0.2268
      6 O         -21.0494   -8.8413  -14.6539 O.3     1  UNL1       -0.4739
      7 C         -22.1024   -8.1126  -15.2103 C.ar    1  UNL1        0.1359
      8 C         -22.0465   -7.8487  -16.5772 C.ar    1  UNL1        0.0366
      9 C         -23.0267   -7.0828  -17.1919 C.ar    1  UNL1        0.0028
     10 C         -24.1110   -6.5902  -16.4584 C.ar    1  UNL1       -0.0040
     11 C         -24.2404   -6.9231  -15.0828 C.ar    1  UNL1       -0.0213
     12 C         -25.4799   -6.5044  -14.3151 C.3     1  UNL1        0.0309
     13 C         -23.1986   -7.6513  -14.4325 C.ar    1  UNL1        0.0277
     14 C         -23.3541   -8.0249  -12.9557 C.3     1  UNL1        0.1233
     15 C         -25.0851   -5.7225  -17.1606 C.ar    1  UNL1        0.0012
     16 C         -25.1145   -5.6874  -18.5802 C.ar    1  UNL1        0.0016
     17 C         -26.0254   -4.8561  -19.2589 C.ar    1  UNL1        0.0206
     18 C         -26.8822   -4.0723  -18.4918 C.ar    1  UNL1        0.0985
     19 N         -27.8207   -3.2115  -18.9250 N.ar    1  UNL1       -0.2241
     20 C         -28.3433   -2.7268  -17.7675 C.ar    1  UNL1        0.1750
     21 N         -27.7707   -3.2477  -16.6556 N.ar    1  UNL1       -0.3349
     22 C         -26.8514   -4.0953  -17.1313 C.ar    1  UNL1        0.0757
     23 C         -25.9667   -4.9014  -16.4205 C.ar    1  UNL1        0.0185
     24 H         -27.9971   -3.0346  -15.6588 H       1  UNL1        0.1675
     25 C         -20.0512   -9.7444   -9.8618 C.ar    1  UNL1        0.0503
     26 C         -19.0008  -10.6190   -9.5156 C.ar    1  UNL1        0.0328
     27 C         -18.8841  -11.8767  -10.1198 C.ar    1  UNL1        0.1069
     28 C         -19.8232  -12.2778  -11.0738 C.ar    1  UNL1        0.0186
     29 C         -20.8741  -11.4304  -11.4220 C.ar    1  UNL1        0.0071
     30 C         -21.0082  -10.1746  -10.8129 C.ar    1  UNL1        0.0667
     31 S         -17.5702  -12.9543   -9.6584 S.O2    1  UNL1        0.0105
     32 C         -16.1751  -11.9875   -9.1289 C.3     1  UNL1        0.1816
     33 O         -17.1781  -13.8061  -10.8330 O.2     1  UNL1       -0.1686
     34 O         -18.0108  -13.8527   -8.5367 O.2     1  UNL1       -0.1686
     35 N         -20.1358   -8.4194   -9.2897 N.pl3   1  UNL1       -0.3325
     36 H         -19.8954   -7.5907   -9.8781 H       1  UNL1        0.1468
     37 C         -19.3513   -8.0643   -6.9913 C.3     1  UNL1        0.0229
     38 C         -20.5589   -8.1320   -7.9192 C.3     1  UNL1        0.0871
@<TRIPOS>BOND
     1    37    38    1
     2    38    35    1
     3    35    25    1
     4    25    26   ar
     5    26    27   ar
     6    27    31    1
     7    31    32    1
     8    31    33    2
     9    31    34    2
    10    27    28   ar
    11    28    29   ar
    12    29    30   ar
    13    30     1    1
    14     1     2    2
    15     1     3   am
    16     3     4    1
    17     4     5    1
    18     5     6    1
    19     6     7    1
    20     7     8   ar
    21     8     9   ar
    22     9    10   ar
    23    10    15    1
    24    15    16   ar
    25    16    17   ar
    26    17    18   ar
    27    18    19   ar
    28    19    20   ar
    29    20    21   ar
    30    21    22   ar
    31    22    23   ar
    32    10    11   ar
    33    11    12    1
    34    11    13   ar
    35    13    14    1
    36    30    25   ar
    37    14     3    1
    38    13     7   ar
    39    23    15   ar
    40    22    18   ar
    41    35    36    1
    42    21    24    1
@<TRIPOS>MOLECULE
*****
 38 42 0 0 0
SMALL
GASTEIGER

@<TRIPOS>ATOM
      1 C         -20.2899   -8.7115  -10.4353 C.2     1  UNL1        0.2506
      2 O         -19.6277   -8.1491  -11.3492 O.2     1  UNL1       -0.2699
      3 N         -21.6985   -8.9612  -10.6152 N.am    1  UNL1       -0.2680
      4 C         -22.2877  -10.2111  -10.1255 C.3     1  UNL1        0.1412
      5 C         -23.0620   -9.9449   -8.8402 C.3     1  UNL1        0.2268
      6 O         -23.6162   -8.6320   -8.8417 O.3     1  UNL1       -0.4739
      7 C         -24.4357   -8.1679   -9.8724 C.ar    1  UNL1        0.1359
      8 C         -25.7698   -7.9111   -9.5634 C.ar    1  UNL1        0.0366
      9 C         -26.6590   -7.5017  -10.5468 C.ar    1  UNL1        0.0028
     10 C         -26.2258   -7.3031  -11.8618 C.ar    1  UNL1       -0.0040
     11 C         -24.8512   -7.4680  -12.1832 C.ar    1  UNL1       -0.0213
     12 C         -24.3518   -7.1260  -13.5741 C.3     1  UNL1        0.0309
     13 C         -23.9487   -7.9563  -11.1905 C.ar    1  UNL1        0.0277
     14 C         -22.4653   -8.1115  -11.5373 C.3     1  UNL1        0.1233
     15 C         -27.2397   -6.9325  -12.8764 C.ar    1  UNL1        0.0012
     16 C         -28.2440   -7.8635  -13.2537 C.ar    1  UNL1        0.0016
     17 C         -29.2039   -7.5285  -14.2271 C.ar    1  UNL1        0.0206
     18 C         -29.1266   -6.2648  -14.8048 C.ar    1  UNL1        0.0985
     19 N         -29.9294   -5.7394  -15.7476 N.ar    1  UNL1       -0.2241
     20 C         -29.4002   -4.5021  -15.9398 C.ar    1  UNL1        0.1750
     21 N         -28.3185   -4.2499  -15.1638 N.ar    1  UNL1       -0.3349
     22 C         -28.1605   -5.3727  -14.4536 C.ar    1  UNL1        0.0757
     23 C         -27.1918   -5.6629  -13.4970 C.ar    1  UNL1        0.0185
     24 H         -27.7432   -3.3792  -15.1304 H       1  UNL1        0.1675
     25 C         -18.7473  -10.2525   -9.1627 C.ar    1  UNL1        0.0503
     26 C         -18.0640  -10.5475   -7.9651 C.ar    1  UNL1        0.0328
     27 C         -18.2405   -9.7567   -6.8233 C.ar    1  UNL1        0.1069
     28 C         -19.0986   -8.6546   -6.8687 C.ar    1  UNL1        0.0186
     29 C         -19.7755   -8.3417   -8.0466 C.ar    1  UNL1        0.0071
     30 C         -19.5953   -9.1188   -9.1997 C.ar    1  UNL1        0.0667
     31 S         -17.3638  -10.1400   -5.3452 S.O2    1  UNL1        0.0105
     32 C         -16.8383   -8.6311   -4.5650 C.3     1  UNL1        0.1816
     33 O         -16.1640  -10.9839   -5.6727 O.2     1  UNL1       -0.1686
     34 O         -18.2508  -10.9068   -4.4045 O.2     1  UNL1       -0.1686
     35 N         -18.6193  -11.1059  -10.3225 N.pl3   1  UNL1       -0.3325
     36 H         -18.2310  -10.7120  -11.2084 H       1  UNL1        0.1468
     37 C         -20.0036  -12.7851  -11.4576 C.3     1  UNL1        0.0229
     38 C         -18.9834  -12.5223  -10.3558 C.3     1  UNL1        0.0871
@<TRIPOS>BOND
     1    37    38    1
     2    38    35    1
     3    35    25    1
     4    25    26   ar
     5    26    27   ar
     6    27    31    1
     7    31    32    1
     8    31    33    2
     9    31    34    2
    10    27    28   ar
    11    28    29   ar
    12    29    30   ar
    13    30     1    1
    14     1     2    2
    15     1     3   am
    16     3     4    1
    17     4     5    1
    18     5     6    1
    19     6     7    1
    20     7     8   ar
    21     8     9   ar
    22     9    10   ar
    23    10    15    1
    24    15    16   ar
    25    16    17   ar
    26    17    18   ar
    27    18    19   ar
    28    19    20   ar
    29    20    21   ar
    30    21    22   ar
    31    22    23   ar
    32    10    11   ar
    33    11    12    1
    34    11    13   ar
    35    13    14    1
    36    30    25   ar
    37    14     3    1
    38    13     7   ar
    39    23    15   ar
    40    22    18   ar
    41    35    36    1
    42    21    24    1
