@<TRIPOS>MOLECULE
*****
 61 65 0 0 0
SMALL
GASTEIGER

@<TRIPOS>ATOM
      1 C          50.4441   12.2580  -17.5360 C.ar    1  UNL1        0.0532
      2 C          51.6699   12.7896  -17.9521 C.ar    1  UNL1        0.0075
      3 C          51.9945   12.8520  -19.3028 C.ar    1  UNL1        0.0389
      4 C          51.0983   12.3791  -20.2739 C.ar    1  UNL1        0.1595
      5 C          49.8569   11.8542  -19.8747 C.ar    1  UNL1        0.0977
      6 C          49.5129   11.7922  -18.4997 C.ar    1  UNL1        0.0289
      7 N          49.2180   13.1438  -15.5135 N.am    1  UNL1       -0.3040
      8 C          50.1653   12.2255  -16.0883 C.2     1  UNL1        0.2456
      9 O          50.7291   11.3500  -15.3791 O.2     1  UNL1       -0.2702
     10 H          48.6772   13.7377  -16.1845 H       1  UNL1        0.1496
     11 C          47.9918   14.4737  -13.8237 C.3     1  UNL1        0.0196
     12 C          48.9931   13.3277  -14.0666 C.3     1  UNL1        0.0572
     13 C          48.4742   12.0192  -13.4386 C.3     1  UNL1        0.0196
     14 C          50.3304   13.6960  -13.3931 C.3     1  UNL1        0.0196
     15 C          48.1250   11.3427  -18.0824 C.3     1  UNL1        0.1651
     16 O          47.3568   12.4505  -17.7010 O.3     1  UNL1       -0.3772
     17 H          47.6292   12.6807  -16.7746 H       1  UNL1        0.2109
     18 N          48.9447   11.3917  -20.8782 N.pl3   1  UNL1       -0.2122
     19 H          48.0194   11.8646  -20.9802 H       1  UNL1        0.1738
     20 S          49.1177    9.7963  -21.5293 S.O2    1  UNL1        0.0745
     21 O          47.8033    9.0712  -21.4563 O.2     1  UNL1       -0.1499
     22 O          50.1156    9.0234  -20.7141 O.2     1  UNL1       -0.1499
     23 C          49.6474    9.9206  -23.2123 C.ar    1  UNL1        0.1356
     24 C          50.6359    9.0367  -23.6692 C.ar    1  UNL1        0.0207
     25 C          51.0350    9.0447  -25.0064 C.ar    1  UNL1       -0.0028
     26 C          50.4360    9.9241  -25.9166 C.ar    1  UNL1       -0.0216
     27 C          49.4647   10.8273  -25.4630 C.ar    1  UNL1        0.0085
     28 C          49.0556   10.8224  -24.1241 C.ar    1  UNL1        0.0762
     29 CL         47.7723   11.9327  -23.6558 Cl      1  UNL1       -0.0809
     30 C          50.8836    9.9455  -27.3529 C.3     1  UNL1        0.0224
     31 C          52.0831   10.8413  -27.6345 C.3     1  UNL1        0.0047
     32 C          52.2539    9.3336  -27.6148 C.3     1  UNL1        0.0047
     33 O          51.3901   12.4635  -21.6462 O.3     1  UNL1       -0.4513
     34 C          50.8680   13.4320  -22.5115 C.ar    1  UNL1        0.1580
     35 C          49.8791   14.2979  -22.0340 C.ar    1  UNL1        0.0677
     36 C          49.3776   15.3186  -22.8463 C.ar    1  UNL1        0.1398
     37 F          48.4700   16.1876  -22.3335 F       1  UNL1       -0.2044
     38 C          49.8415   15.4631  -24.1656 C.ar    1  UNL1        0.0175
     39 C          50.8017   14.5645  -24.6581 C.ar    1  UNL1        0.0130
     40 C          51.3093   13.5480  -23.8432 C.ar    1  UNL1        0.0919
     41 CL         52.4860   12.4312  -24.5192 Cl      1  UNL1       -0.0791
     42 C          49.4398   16.6528  -24.9953 C.3     1  UNL1        0.1382
     43 C          49.0431   16.1704  -26.3523 C.2     1  UNL1        0.3234
     44 O          49.9096   16.0565  -27.2615 O.2     1  UNL1       -0.2497
     45 O          47.7233   15.7588  -26.5641 O.3     1  UNL1       -0.4215
     46 C          47.2301   14.4694  -26.2039 C.3     1  UNL1        0.3207
     47 O          46.9881   13.7503  -27.3998 O.3     1  UNL1       -0.3070
     48 C          46.5726   12.4257  -27.1150 C.3     1  UNL1        0.2456
     49 C          45.2017   12.4331  -26.4097 C.3     1  UNL1        0.1781
     50 O          44.8211   11.1148  -26.1059 O.3     1  UNL1       -0.3790
     51 C          45.2918   13.2590  -25.1164 C.3     1  UNL1        0.1733
     52 O          44.0027   13.4214  -24.5820 O.3     1  UNL1       -0.3793
     53 C          45.9179   14.6358  -25.4049 C.3     1  UNL1        0.2106
     54 O          46.1853   15.2948  -24.1934 O.3     1  UNL1       -0.3766
     55 H          43.8371   11.1223  -25.9743 H       1  UNL1        0.2106
     56 H          44.1118   13.6071  -23.6129 H       1  UNL1        0.2105
     57 H          45.3559   15.7732  -23.9324 H       1  UNL1        0.2107
     58 C          46.4816   11.6604  -28.4065 C.2     1  UNL1        0.3439
     59 O          46.4151   10.4024  -28.3914 O.2     1  UNL1       -0.2475
     60 O          46.5193   12.3250  -29.6295 O.3     1  UNL1       -0.4785
     61 H          46.5994   13.3336  -29.6787 H       1  UNL1        0.2951
@<TRIPOS>BOND
     1    11    12    1
     2    12    13    1
     3    12    14    1
     4    12     7    1
     5     7     8   am
     6     8     9    2
     7     8     1    1
     8     1     2   ar
     9     2     3   ar
    10     3     4   ar
    11     4    33    1
    12    33    34    1
    13    34    35   ar
    14    35    36   ar
    15    36    37    1
    16    36    38   ar
    17    38    42    1
    18    42    43    1
    19    43    44    2
    20    43    45    1
    21    45    46    1
    22    46    47    1
    23    47    48    1
    24    48    58    1
    25    58    59    2
    26    58    60    1
    27    48    49    1
    28    49    50    1
    29    49    51    1
    30    51    52    1
    31    51    53    1
    32    53    54    1
    33    38    39   ar
    34    39    40   ar
    35    40    41    1
    36     4     5   ar
    37     5    18    1
    38    18    20    1
    39    20    21    2
    40    20    22    2
    41    20    23    1
    42    23    24   ar
    43    24    25   ar
    44    25    26   ar
    45    26    30    1
    46    30    31    1
    47    31    32    1
    48    26    27   ar
    49    27    28   ar
    50    28    29    1
    51     5     6   ar
    52     6    15    1
    53    15    16    1
    54     6     1   ar
    55    40    34   ar
    56    28    23   ar
    57    53    46    1
    58    32    30    1
    59     7    10    1
    60    60    61    1
    61    50    55    1
    62    52    56    1
    63    54    57    1
    64    18    19    1
    65    16    17    1
@<TRIPOS>MOLECULE
*****
 61 65 0 0 0
SMALL
GASTEIGER

@<TRIPOS>ATOM
      1 C          48.9810   12.8104  -17.7865 C.ar    1  UNL1        0.0532
      2 C          47.7753   12.9835  -18.4754 C.ar    1  UNL1        0.0075
      3 C          47.7408   12.9495  -19.8650 C.ar    1  UNL1        0.0389
      4 C          48.9170   12.7440  -20.6026 C.ar    1  UNL1        0.1595
      5 C          50.1350   12.5548  -19.9267 C.ar    1  UNL1        0.0977
      6 C          50.1803   12.5808  -18.5089 C.ar    1  UNL1        0.0289
      7 N          49.8573   12.0558  -15.5412 N.am    1  UNL1       -0.3040
      8 C          48.9432   12.8557  -16.3130 C.2     1  UNL1        0.2456
      9 O          48.1366   13.6417  -15.7484 O.2     1  UNL1       -0.2702
     10 H          50.5978   11.5455  -16.0765 H       1  UNL1        0.1496
     11 C          48.3320   11.7127  -13.6220 C.3     1  UNL1        0.0196
     12 C          49.7948   11.8795  -14.0773 C.3     1  UNL1        0.0572
     13 C          50.6320   10.6570  -13.6528 C.3     1  UNL1        0.0196
     14 C          50.3794   13.1326  -13.3949 C.3     1  UNL1        0.0196
     15 C          51.4715   12.2516  -17.7831 C.3     1  UNL1        0.1651
     16 O          52.4396   13.2254  -18.0614 O.3     1  UNL1       -0.3772
     17 H          52.8132   13.0084  -18.9551 H       1  UNL1        0.2109
     18 N          51.3247   12.3281  -20.6923 N.pl3   1  UNL1       -0.2122
     19 H          51.7622   11.3801  -20.6822 H       1  UNL1        0.1738
     20 S          52.3064   13.6706  -21.1755 S.O2    1  UNL1        0.0745
     21 O          53.7162   13.2096  -21.4175 O.2     1  UNL1       -0.1499
     22 O          52.3392   14.6940  -20.0757 O.2     1  UNL1       -0.1499
     23 C          51.6344   14.3656  -22.6565 C.ar    1  UNL1        0.1356
     24 C          51.4294   15.7521  -22.7114 C.ar    1  UNL1        0.0207
     25 C          50.9715   16.3582  -23.8820 C.ar    1  UNL1       -0.0028
     26 C          50.7306   15.5895  -25.0273 C.ar    1  UNL1       -0.0216
     27 C          50.9097   14.2003  -24.9736 C.ar    1  UNL1        0.0085
     28 C          51.3732   13.5852  -23.8044 C.ar    1  UNL1        0.0762
     29 CL         51.6494   11.8472  -23.8475 Cl      1  UNL1       -0.0809
     30 C          50.2163   16.2427  -26.2814 C.3     1  UNL1        0.0224
     31 C          49.4836   17.5599  -26.0608 C.3     1  UNL1        0.0047
     32 C          50.8836   17.5626  -26.6461 C.3     1  UNL1        0.0047
     33 O          48.9010   12.6714  -22.0060 O.3     1  UNL1       -0.4513
     34 C          48.0389   13.4045  -22.8299 C.ar    1  UNL1        0.1580
     35 C          48.0941   14.8012  -22.7877 C.ar    1  UNL1        0.0677
     36 C          47.2952   15.5687  -23.6398 C.ar    1  UNL1        0.1398
     37 F          47.4207   16.9200  -23.6266 F       1  UNL1       -0.2044
     38 C          46.4030   14.9409  -24.5265 C.ar    1  UNL1        0.0175
     39 C          46.3164   13.5393  -24.5356 C.ar    1  UNL1        0.0130
     40 C          47.1210   12.7709  -23.6887 C.ar    1  UNL1        0.0919
     41 CL         46.9501   11.0219  -23.7178 Cl      1  UNL1       -0.0791
     42 C          45.6617   15.7398  -25.5644 C.3     1  UNL1        0.1382
     43 C          46.1427   15.3214  -26.9154 C.2     1  UNL1        0.3234
     44 O          47.1284   15.9037  -27.4443 O.2     1  UNL1       -0.2497
     45 O          45.5459   14.2177  -27.5334 O.3     1  UNL1       -0.4215
     46 C          46.1851   13.4342  -28.5399 C.3     1  UNL1        0.3207
     47 O          45.3881   13.4995  -29.7088 O.3     1  UNL1       -0.3070
     48 C          46.0077   12.8079  -30.7794 C.3     1  UNL1        0.2456
     49 C          46.0819   11.2989  -30.4721 C.3     1  UNL1        0.1781
     50 O          46.7278   10.6343  -31.5286 O.3     1  UNL1       -0.3790
     51 C          46.8603   11.0768  -29.1653 C.3     1  UNL1        0.1733
     52 O          46.7597    9.7260  -28.7924 O.3     1  UNL1       -0.3793
     53 C          46.2951   11.9733  -28.0484 C.3     1  UNL1        0.2106
     54 O          47.1390   11.9167  -26.9267 O.3     1  UNL1       -0.3766
     55 H          46.4676    9.6781  -31.4691 H       1  UNL1        0.2106
     56 H          47.5341    9.5294  -28.2031 H       1  UNL1        0.2105
     57 H          46.8535   11.1348  -26.3862 H       1  UNL1        0.2107
     58 C          45.2058   13.0383  -32.0308 C.2     1  UNL1        0.3439
     59 O          45.4338   14.0476  -32.7496 O.2     1  UNL1       -0.2475
     60 O          44.1746   12.1714  -32.3827 O.3     1  UNL1       -0.4785
     61 H          43.9467   11.3652  -31.8133 H       1  UNL1        0.2951
@<TRIPOS>BOND
     1    11    12    1
     2    12    13    1
     3    12    14    1
     4    12     7    1
     5     7     8   am
     6     8     9    2
     7     8     1    1
     8     1     2   ar
     9     2     3   ar
    10     3     4   ar
    11     4    33    1
    12    33    34    1
    13    34    35   ar
    14    35    36   ar
    15    36    37    1
    16    36    38   ar
    17    38    42    1
    18    42    43    1
    19    43    44    2
    20    43    45    1
    21    45    46    1
    22    46    47    1
    23    47    48    1
    24    48    58    1
    25    58    59    2
    26    58    60    1
    27    48    49    1
    28    49    50    1
    29    49    51    1
    30    51    52    1
    31    51    53    1
    32    53    54    1
    33    38    39   ar
    34    39    40   ar
    35    40    41    1
    36     4     5   ar
    37     5    18    1
    38    18    20    1
    39    20    21    2
    40    20    22    2
    41    20    23    1
    42    23    24   ar
    43    24    25   ar
    44    25    26   ar
    45    26    30    1
    46    30    31    1
    47    31    32    1
    48    26    27   ar
    49    27    28   ar
    50    28    29    1
    51     5     6   ar
    52     6    15    1
    53    15    16    1
    54     6     1   ar
    55    40    34   ar
    56    28    23   ar
    57    53    46    1
    58    32    30    1
    59     7    10    1
    60    60    61    1
    61    50    55    1
    62    52    56    1
    63    54    57    1
    64    18    19    1
    65    16    17    1
@<TRIPOS>MOLECULE
*****
 61 65 0 0 0
SMALL
GASTEIGER

@<TRIPOS>ATOM
      1 C          50.0724   12.5124  -18.2572 C.ar    1  UNL1        0.0532
      2 C          51.3533   12.7262  -18.7788 C.ar    1  UNL1        0.0075
      3 C          51.5216   13.1993  -20.0755 C.ar    1  UNL1        0.0389
      4 C          50.4081   13.4681  -20.8865 C.ar    1  UNL1        0.1595
      5 C          49.1138   13.2719  -20.3742 C.ar    1  UNL1        0.0977
      6 C          48.9307   12.7960  -19.0503 C.ar    1  UNL1        0.0289
      7 N          49.8573   12.9367  -15.7768 N.am    1  UNL1       -0.3040
      8 C          49.9685   12.0120  -16.8740 C.2     1  UNL1        0.2456
      9 O          49.9265   10.7682  -16.6779 O.2     1  UNL1       -0.2702
     10 H          49.7454   13.9467  -16.0270 H       1  UNL1        0.1496
     11 C          48.7687   11.6207  -13.9850 C.3     1  UNL1        0.0196
     12 C          49.9301   12.5654  -14.3503 C.3     1  UNL1        0.0572
     13 C          51.2840   11.8955  -14.0437 C.3     1  UNL1        0.0196
     14 C          49.8110   13.8411  -13.4924 C.3     1  UNL1        0.0196
     15 C          47.5355   12.7060  -18.4606 C.3     1  UNL1        0.1651
     16 O          46.7759   11.7649  -19.1677 O.3     1  UNL1       -0.3772
     17 H          46.4648   12.2145  -19.9963 H       1  UNL1        0.2109
     18 N          47.9863   13.5675  -21.2074 N.pl3   1  UNL1       -0.2122
     19 H          47.4491   14.4475  -21.0417 H       1  UNL1        0.1738
     20 S          47.2084   12.2945  -22.0869 S.O2    1  UNL1        0.0745
     21 O          45.7844   12.1542  -21.6272 O.2     1  UNL1       -0.1499
     22 O          47.9093   10.9929  -21.8175 O.2     1  UNL1       -0.1499
     23 C          47.2518   12.6827  -23.8119 C.ar    1  UNL1        0.1356
     24 C          47.3933   11.6321  -24.7304 C.ar    1  UNL1        0.0207
     25 C          47.3588   11.8778  -26.1037 C.ar    1  UNL1       -0.0028
     26 C          47.1603   13.1781  -26.5834 C.ar    1  UNL1       -0.0216
     27 C          47.0424   14.2370  -25.6725 C.ar    1  UNL1        0.0085
     28 C          47.0713   13.9982  -24.2932 C.ar    1  UNL1        0.0762
     29 CL         46.8338   15.3724  -23.2190 Cl      1  UNL1       -0.0809
     30 C          47.1453   13.4431  -28.0645 C.3     1  UNL1        0.0224
     31 C          46.0587   12.7033  -28.8344 C.3     1  UNL1        0.0047
     32 C          45.9222   14.1926  -28.5773 C.3     1  UNL1        0.0047
     33 O          50.5530   13.9794  -22.1875 O.3     1  UNL1       -0.4513
     34 C          50.7509   13.1971  -23.3313 C.ar    1  UNL1        0.1580
     35 C          50.9999   11.8298  -23.1764 C.ar    1  UNL1        0.0677
     36 C          51.1400   11.0032  -24.2946 C.ar    1  UNL1        0.1398
     37 F          51.3106    9.6689  -24.1146 F       1  UNL1       -0.2044
     38 C          51.0639   11.5474  -25.5886 C.ar    1  UNL1        0.0175
     39 C          50.8589   12.9281  -25.7419 C.ar    1  UNL1        0.0130
     40 C          50.7110   13.7542  -24.6235 C.ar    1  UNL1        0.0919
     41 CL         50.4881   15.4799  -24.8710 Cl      1  UNL1       -0.0791
     42 C          51.0435   10.6524  -26.7985 C.3     1  UNL1        0.1382
     43 C          52.2980   10.8810  -27.5767 C.2     1  UNL1        0.3234
     44 O          53.2639   11.4994  -27.0523 O.2     1  UNL1       -0.2497
     45 O          52.4152   10.3162  -28.8509 O.3     1  UNL1       -0.4215
     46 C          53.0731    9.0767  -29.1084 C.3     1  UNL1        0.3207
     47 O          54.4238    9.3624  -29.4243 O.3     1  UNL1       -0.3070
     48 C          55.1604    8.1663  -29.6120 C.3     1  UNL1        0.2456
     49 C          54.6475    7.4093  -30.8533 C.3     1  UNL1        0.1781
     50 O          55.3664    6.2113  -31.0048 O.3     1  UNL1       -0.3790
     51 C          53.1511    7.0996  -30.6863 C.3     1  UNL1        0.1733
     52 O          52.6491    6.5847  -31.8932 O.3     1  UNL1       -0.3793
     53 C          52.3818    8.3761  -30.2997 C.3     1  UNL1        0.2106
     54 O          51.0629    8.0430  -29.9486 O.3     1  UNL1       -0.3766
     55 H          55.2606    5.9297  -31.9509 H       1  UNL1        0.2106
     56 H          51.8358    6.0614  -31.6691 H       1  UNL1        0.2105
     57 H          50.5328    8.0278  -30.7875 H       1  UNL1        0.2107
     58 C          56.6124    8.5165  -29.7877 C.2     1  UNL1        0.3439
     59 O          57.4736    7.6030  -29.8941 O.2     1  UNL1       -0.2475
     60 O          57.0274    9.8456  -29.7853 O.3     1  UNL1       -0.4785
     61 H          56.3650   10.6041  -29.6749 H       1  UNL1        0.2951
@<TRIPOS>BOND
     1    11    12    1
     2    12    13    1
     3    12    14    1
     4    12     7    1
     5     7     8   am
     6     8     9    2
     7     8     1    1
     8     1     2   ar
     9     2     3   ar
    10     3     4   ar
    11     4    33    1
    12    33    34    1
    13    34    35   ar
    14    35    36   ar
    15    36    37    1
    16    36    38   ar
    17    38    42    1
    18    42    43    1
    19    43    44    2
    20    43    45    1
    21    45    46    1
    22    46    47    1
    23    47    48    1
    24    48    58    1
    25    58    59    2
    26    58    60    1
    27    48    49    1
    28    49    50    1
    29    49    51    1
    30    51    52    1
    31    51    53    1
    32    53    54    1
    33    38    39   ar
    34    39    40   ar
    35    40    41    1
    36     4     5   ar
    37     5    18    1
    38    18    20    1
    39    20    21    2
    40    20    22    2
    41    20    23    1
    42    23    24   ar
    43    24    25   ar
    44    25    26   ar
    45    26    30    1
    46    30    31    1
    47    31    32    1
    48    26    27   ar
    49    27    28   ar
    50    28    29    1
    51     5     6   ar
    52     6    15    1
    53    15    16    1
    54     6     1   ar
    55    40    34   ar
    56    28    23   ar
    57    53    46    1
    58    32    30    1
    59     7    10    1
    60    60    61    1
    61    50    55    1
    62    52    56    1
    63    54    57    1
    64    18    19    1
    65    16    17    1
@<TRIPOS>MOLECULE
*****
 61 65 0 0 0
SMALL
GASTEIGER

@<TRIPOS>ATOM
      1 C          50.3298   12.3220  -17.9336 C.ar    1  UNL1        0.0532
      2 C          51.5760   12.8564  -18.2796 C.ar    1  UNL1        0.0075
      3 C          51.9218   13.0447  -19.6132 C.ar    1  UNL1        0.0389
      4 C          51.0270   12.6984  -20.6375 C.ar    1  UNL1        0.1595
      5 C          49.7656   12.1728  -20.3078 C.ar    1  UNL1        0.0977
      6 C          49.4000   11.9830  -18.9501 C.ar    1  UNL1        0.0289
      7 N          49.3017   13.1699  -15.7882 N.am    1  UNL1       -0.3040
      8 C          50.0291   12.1523  -16.4999 C.2     1  UNL1        0.2456
      9 O          50.3730   11.0837  -15.9279 O.2     1  UNL1       -0.2702
     10 H          48.9170   13.9563  -16.3616 H       1  UNL1        0.1496
     11 C          48.2056   14.3873  -13.9324 C.3     1  UNL1        0.0196
     12 C          49.1019   13.1971  -14.3262 C.3     1  UNL1        0.0572
     13 C          48.4745   11.8720  -13.8506 C.3     1  UNL1        0.0196
     14 C          50.4700   13.3657  -13.6351 C.3     1  UNL1        0.0196
     15 C          47.9941   11.5350  -18.5966 C.3     1  UNL1        0.1651
     16 O          47.7855   10.2205  -19.0342 O.3     1  UNL1       -0.3772
     17 H          47.5924   10.2712  -20.0066 H       1  UNL1        0.2109
     18 N          48.8555   11.8406  -21.3634 N.pl3   1  UNL1       -0.2122
     19 H          48.0543   12.4797  -21.5632 H       1  UNL1        0.1738
     20 S          48.7514   10.2067  -21.9280 S.O2    1  UNL1        0.0745
     21 O          47.3238    9.7400  -21.8765 O.2     1  UNL1       -0.1499
     22 O          49.5611    9.3107  -21.0338 O.2     1  UNL1       -0.1499
     23 C          49.3509   10.1377  -23.5906 C.ar    1  UNL1        0.1356
     24 C          49.1288   11.2409  -24.4279 C.ar    1  UNL1        0.0207
     25 C          49.6456   11.2664  -25.7239 C.ar    1  UNL1       -0.0028
     26 C          50.4133   10.1961  -26.1989 C.ar    1  UNL1       -0.0216
     27 C          50.6195    9.0793  -25.3772 C.ar    1  UNL1        0.0085
     28 C          50.1083    9.0480  -24.0741 C.ar    1  UNL1        0.0762
     29 CL         50.4827    7.6437  -23.0809 Cl      1  UNL1       -0.0809
     30 C          50.9510   10.2167  -27.6040 C.3     1  UNL1        0.0224
     31 C          52.3586   10.7830  -27.7407 C.3     1  UNL1        0.0047
     32 C          52.1305    9.2877  -27.8613 C.3     1  UNL1        0.0047
     33 O          51.3410   12.9117  -21.9907 O.3     1  UNL1       -0.4513
     34 C          50.7785   13.9150  -22.7884 C.ar    1  UNL1        0.1580
     35 C          49.8135   14.7581  -22.2282 C.ar    1  UNL1        0.0677
     36 C          49.2741   15.8114  -22.9717 C.ar    1  UNL1        0.1398
     37 F          48.3920   16.6561  -22.3800 F       1  UNL1       -0.2044
     38 C          49.6749   16.0125  -24.3042 C.ar    1  UNL1        0.0175
     39 C          50.6104   15.1374  -24.8794 C.ar    1  UNL1        0.0130
     40 C          51.1560   14.0882  -24.1334 C.ar    1  UNL1        0.0919
     41 CL         52.2992   13.0033  -24.9113 Cl      1  UNL1       -0.0791
     42 C          49.2344   17.2356  -25.0627 C.3     1  UNL1        0.1382
     43 C          47.7807   17.0983  -25.3777 C.2     1  UNL1        0.3234
     44 O          46.9275   17.7651  -24.7313 O.2     1  UNL1       -0.2497
     45 O          47.3960   16.2975  -26.4581 O.3     1  UNL1       -0.4215
     46 C          46.5038   15.1902  -26.3428 C.3     1  UNL1        0.3207
     47 O          46.8069   14.5156  -25.1349 O.3     1  UNL1       -0.3070
     48 C          45.9012   13.4482  -24.9140 C.3     1  UNL1        0.2456
     49 C          46.0784   12.3617  -25.9933 C.3     1  UNL1        0.1781
     50 O          45.1512   11.3279  -25.7778 O.3     1  UNL1       -0.3790
     51 C          45.8570   12.9765  -27.3847 C.3     1  UNL1        0.1733
     52 O          46.2063   12.0340  -28.3663 O.3     1  UNL1       -0.3793
     53 C          46.7113   14.2468  -27.5490 C.3     1  UNL1        0.2106
     54 O          46.3467   14.9098  -28.7327 O.3     1  UNL1       -0.3766
     55 H          45.4984   10.5266  -26.2500 H       1  UNL1        0.2106
     56 H          45.7229   12.2866  -29.1959 H       1  UNL1        0.2105
     57 H          46.8784   14.5076  -29.4678 H       1  UNL1        0.2107
     58 C          46.1639   12.8668  -23.5520 C.2     1  UNL1        0.3439
     59 O          46.8783   13.4938  -22.7251 O.2     1  UNL1       -0.2475
     60 O          45.6654   11.6133  -23.2071 O.3     1  UNL1       -0.4785
     61 H          45.1100   11.0701  -23.8573 H       1  UNL1        0.2951
@<TRIPOS>BOND
     1    11    12    1
     2    12    13    1
     3    12    14    1
     4    12     7    1
     5     7     8   am
     6     8     9    2
     7     8     1    1
     8     1     2   ar
     9     2     3   ar
    10     3     4   ar
    11     4    33    1
    12    33    34    1
    13    34    35   ar
    14    35    36   ar
    15    36    37    1
    16    36    38   ar
    17    38    42    1
    18    42    43    1
    19    43    44    2
    20    43    45    1
    21    45    46    1
    22    46    47    1
    23    47    48    1
    24    48    58    1
    25    58    59    2
    26    58    60    1
    27    48    49    1
    28    49    50    1
    29    49    51    1
    30    51    52    1
    31    51    53    1
    32    53    54    1
    33    38    39   ar
    34    39    40   ar
    35    40    41    1
    36     4     5   ar
    37     5    18    1
    38    18    20    1
    39    20    21    2
    40    20    22    2
    41    20    23    1
    42    23    24   ar
    43    24    25   ar
    44    25    26   ar
    45    26    30    1
    46    30    31    1
    47    31    32    1
    48    26    27   ar
    49    27    28   ar
    50    28    29    1
    51     5     6   ar
    52     6    15    1
    53    15    16    1
    54     6     1   ar
    55    40    34   ar
    56    28    23   ar
    57    53    46    1
    58    32    30    1
    59     7    10    1
    60    60    61    1
    61    50    55    1
    62    52    56    1
    63    54    57    1
    64    18    19    1
    65    16    17    1
@<TRIPOS>MOLECULE
*****
 61 65 0 0 0
SMALL
GASTEIGER

@<TRIPOS>ATOM
      1 C          48.9503   11.7044  -18.8476 C.ar    1  UNL1        0.0532
      2 C          47.7832   11.0571  -19.2689 C.ar    1  UNL1        0.0075
      3 C          47.4029   11.0789  -20.6062 C.ar    1  UNL1        0.0389
      4 C          48.1822   11.7543  -21.5581 C.ar    1  UNL1        0.1595
      5 C          49.3648   12.3986  -21.1550 C.ar    1  UNL1        0.0977
      6 C          49.7656   12.3768  -19.7942 C.ar    1  UNL1        0.0289
      7 N          48.7903   12.6316  -16.5039 N.am    1  UNL1       -0.3040
      8 C          49.2940   11.6382  -17.4152 C.2     1  UNL1        0.2456
      9 O          49.9886   10.6727  -16.9996 O.2     1  UNL1       -0.2702
     10 H          48.0977   13.3133  -16.8925 H       1  UNL1        0.1496
     11 C          48.7602   11.5469  -14.2791 C.3     1  UNL1        0.0196
     12 C          49.2090   12.7741  -15.0959 C.3     1  UNL1        0.0572
     13 C          50.7384   12.9458  -15.0109 C.3     1  UNL1        0.0196
     14 C          48.5425   14.0296  -14.4982 C.3     1  UNL1        0.0196
     15 C          51.1038   12.9642  -19.3861 C.3     1  UNL1        0.1651
     16 O          52.0825   12.6296  -20.3309 O.3     1  UNL1       -0.3772
     17 H          52.3611   11.6972  -20.1346 H       1  UNL1        0.2109
     18 N          50.1597   13.0688  -22.1408 N.pl3   1  UNL1       -0.2122
     19 H          51.0368   12.6151  -22.4802 H       1  UNL1        0.1738
     20 S          49.9879   14.7769  -22.3693 S.O2    1  UNL1        0.0745
     21 O          51.3443   15.4209  -22.4348 O.2     1  UNL1       -0.1499
     22 O          49.2522   15.3712  -21.2016 O.2     1  UNL1       -0.1499
     23 C          49.1075   15.0659  -23.8758 C.ar    1  UNL1        0.1356
     24 C          47.8807   15.7430  -23.8140 C.ar    1  UNL1        0.0207
     25 C          47.1835   16.0607  -24.9803 C.ar    1  UNL1       -0.0028
     26 C          47.7124   15.7252  -26.2325 C.ar    1  UNL1       -0.0216
     27 C          48.9260   15.0270  -26.3021 C.ar    1  UNL1        0.0085
     28 C          49.6338   14.7086  -25.1368 C.ar    1  UNL1        0.0762
     29 CL         51.1890   13.9039  -25.3174 Cl      1  UNL1       -0.0809
     30 C          46.9481   16.0497  -27.4873 C.3     1  UNL1        0.0224
     31 C          45.9248   14.9998  -27.9011 C.3     1  UNL1        0.0047
     32 C          45.4599   16.3095  -27.2918 C.3     1  UNL1        0.0047
     33 O          47.8361   11.7606  -22.9203 O.3     1  UNL1       -0.4513
     34 C          48.6455   11.2630  -23.9482 C.ar    1  UNL1        0.1580
     35 C          49.8165   10.5773  -23.6103 C.ar    1  UNL1        0.0677
     36 C          50.6186   10.0106  -24.6047 C.ar    1  UNL1        0.1398
     37 F          51.7111    9.2907  -24.2439 F       1  UNL1       -0.2044
     38 C          50.2706   10.1539  -25.9592 C.ar    1  UNL1        0.0175
     39 C          49.1185   10.8816  -26.2988 C.ar    1  UNL1        0.0130
     40 C          48.3116   11.4421  -25.3039 C.ar    1  UNL1        0.0919
     41 CL         46.8985   12.3698  -25.7849 Cl      1  UNL1       -0.0791
     42 C          51.0251    9.4116  -27.0291 C.3     1  UNL1        0.1382
     43 C          51.9670   10.3639  -27.6905 C.2     1  UNL1        0.3234
     44 O          52.3650   11.3901  -27.0750 O.2     1  UNL1       -0.2497
     45 O          52.4699   10.0471  -28.9566 O.3     1  UNL1       -0.4215
     46 C          53.2109    8.8610  -29.2385 C.3     1  UNL1        0.3207
     47 O          54.5563    9.2374  -29.4709 O.3     1  UNL1       -0.3070
     48 C          55.3697    8.0953  -29.6770 C.3     1  UNL1        0.2456
     49 C          54.9627    7.3741  -30.9775 C.3     1  UNL1        0.1781
     50 O          55.7570    6.2274  -31.1486 O.3     1  UNL1       -0.3790
     51 C          53.4807    6.9731  -30.9022 C.3     1  UNL1        0.1733
     52 O          53.0687    6.4922  -32.1563 O.3     1  UNL1       -0.3793
     53 C          52.6202    8.1834  -30.4955 C.3     1  UNL1        0.2106
     54 O          51.3076    7.7598  -30.2287 O.3     1  UNL1       -0.3766
     55 H          55.7137    5.9882  -32.1112 H       1  UNL1        0.2106
     56 H          52.2774    5.9135  -31.9993 H       1  UNL1        0.2105
     57 H          50.8206    7.7571  -31.0934 H       1  UNL1        0.2107
     58 C          56.8056    8.5347  -29.7614 C.2     1  UNL1        0.3439
     59 O          57.7282    7.6769  -29.7776 O.2     1  UNL1       -0.2475
     60 O          57.1345    9.8876  -29.7725 O.3     1  UNL1       -0.4785
     61 H          56.4193   10.6040  -29.7334 H       1  UNL1        0.2951
@<TRIPOS>BOND
     1    11    12    1
     2    12    13    1
     3    12    14    1
     4    12     7    1
     5     7     8   am
     6     8     9    2
     7     8     1    1
     8     1     2   ar
     9     2     3   ar
    10     3     4   ar
    11     4    33    1
    12    33    34    1
    13    34    35   ar
    14    35    36   ar
    15    36    37    1
    16    36    38   ar
    17    38    42    1
    18    42    43    1
    19    43    44    2
    20    43    45    1
    21    45    46    1
    22    46    47    1
    23    47    48    1
    24    48    58    1
    25    58    59    2
    26    58    60    1
    27    48    49    1
    28    49    50    1
    29    49    51    1
    30    51    52    1
    31    51    53    1
    32    53    54    1
    33    38    39   ar
    34    39    40   ar
    35    40    41    1
    36     4     5   ar
    37     5    18    1
    38    18    20    1
    39    20    21    2
    40    20    22    2
    41    20    23    1
    42    23    24   ar
    43    24    25   ar
    44    25    26   ar
    45    26    30    1
    46    30    31    1
    47    31    32    1
    48    26    27   ar
    49    27    28   ar
    50    28    29    1
    51     5     6   ar
    52     6    15    1
    53    15    16    1
    54     6     1   ar
    55    40    34   ar
    56    28    23   ar
    57    53    46    1
    58    32    30    1
    59     7    10    1
    60    60    61    1
    61    50    55    1
    62    52    56    1
    63    54    57    1
    64    18    19    1
    65    16    17    1
@<TRIPOS>MOLECULE
*****
 61 65 0 0 0
SMALL
GASTEIGER

@<TRIPOS>ATOM
      1 C          50.4224   12.2276  -17.6601 C.ar    1  UNL1        0.0532
      2 C          51.6300   12.8488  -17.9980 C.ar    1  UNL1        0.0075
      3 C          52.0012   13.0017  -19.3293 C.ar    1  UNL1        0.0389
      4 C          51.1714   12.5321  -20.3592 C.ar    1  UNL1        0.1595
      5 C          49.9484   11.9177  -20.0385 C.ar    1  UNL1        0.0977
      6 C          49.5569   11.7627  -18.6837 C.ar    1  UNL1        0.0289
      7 N          49.2883   13.1051  -15.5811 N.am    1  UNL1       -0.3040
      8 C          50.0914   12.1017  -16.2286 C.2     1  UNL1        0.2456
      9 O          50.4786   11.0798  -15.6016 O.2     1  UNL1       -0.2702
     10 H          48.8762   13.8432  -16.1982 H       1  UNL1        0.1496
     11 C          48.1065   14.3608  -13.8052 C.3     1  UNL1        0.0196
     12 C          49.0461   13.1826  -14.1274 C.3     1  UNL1        0.0572
     13 C          48.4421   11.8593  -13.6177 C.3     1  UNL1        0.0196
     14 C          50.3887   13.4166  -13.4061 C.3     1  UNL1        0.0196
     15 C          48.1828   11.2142  -18.3471 C.3     1  UNL1        0.1651
     16 O          47.4239   12.1920  -17.6908 O.3     1  UNL1       -0.3772
     17 H          47.7229   12.1969  -16.7442 H       1  UNL1        0.2109
     18 N          49.1033   11.4593  -21.1009 N.pl3   1  UNL1       -0.2122
     19 H          48.1835   11.9284  -21.2566 H       1  UNL1        0.1738
     20 S          49.3254    9.8705  -21.7532 S.O2    1  UNL1        0.0745
     21 O          48.0329    9.1068  -21.6854 O.2     1  UNL1       -0.1499
     22 O          50.3431    9.1265  -20.9354 O.2     1  UNL1       -0.1499
     23 C          49.8568   10.0124  -23.4342 C.ar    1  UNL1        0.1356
     24 C          51.0450    9.3723  -23.8163 C.ar    1  UNL1        0.0207
     25 C          51.4683    9.3920  -25.1458 C.ar    1  UNL1       -0.0028
     26 C          50.6983   10.0352  -26.1224 C.ar    1  UNL1       -0.0216
     27 C          49.5222   10.6980  -25.7449 C.ar    1  UNL1        0.0085
     28 C          49.0883   10.6790  -24.4139 C.ar    1  UNL1        0.0762
     29 CL         47.5587   11.4659  -24.0399 Cl      1  UNL1       -0.0809
     30 C          51.1683   10.0733  -27.5513 C.3     1  UNL1        0.0224
     31 C          52.4100   10.9222  -27.7925 C.3     1  UNL1        0.0047
     32 C          52.5143    9.4084  -27.8097 C.3     1  UNL1        0.0047
     33 O          51.5094   12.7064  -21.7122 O.3     1  UNL1       -0.4513
     34 C          50.7815   13.4856  -22.6192 C.ar    1  UNL1        0.1580
     35 C          51.0234   13.3274  -23.9875 C.ar    1  UNL1        0.0677
     36 C          50.2738   14.0401  -24.9273 C.ar    1  UNL1        0.1398
     37 F          50.4818   13.8144  -26.2493 F       1  UNL1       -0.2044
     38 C          49.2892   14.9493  -24.5022 C.ar    1  UNL1        0.0175
     39 C          49.0788   15.1402  -23.1269 C.ar    1  UNL1        0.0130
     40 C          49.8234   14.4216  -22.1865 C.ar    1  UNL1        0.0919
     41 CL         49.5420   14.7219  -20.4778 Cl      1  UNL1       -0.0791
     42 C          48.3613   15.5966  -25.4947 C.3     1  UNL1        0.1382
     43 C          47.2233   14.6646  -25.7554 C.2     1  UNL1        0.3234
     44 O          46.0485   14.9966  -25.4394 O.2     1  UNL1       -0.2497
     45 O          47.4714   13.4698  -26.4388 O.3     1  UNL1       -0.4215
     46 C          46.6356   12.9666  -27.4798 C.3     1  UNL1        0.3207
     47 O          47.2588   11.8125  -28.0140 O.3     1  UNL1       -0.3070
     48 C          46.4401   11.2103  -29.0017 C.3     1  UNL1        0.2456
     49 C          46.2946   12.1435  -30.2203 C.3     1  UNL1        0.1781
     50 O          45.4542   11.5449  -31.1743 O.3     1  UNL1       -0.3790
     51 C          45.6975   13.4872  -29.7720 C.3     1  UNL1        0.1733
     52 O          45.7462   14.3941  -30.8438 O.3     1  UNL1       -0.3793
     53 C          46.4850   14.0479  -28.5736 C.3     1  UNL1        0.2106
     54 O          45.8094   15.1605  -28.0451 O.3     1  UNL1       -0.3766
     55 H          45.6457   11.9852  -32.0433 H       1  UNL1        0.2106
     56 H          45.0519   15.0827  -30.6728 H       1  UNL1        0.2105
     57 H          46.1085   15.9547  -28.5597 H       1  UNL1        0.2107
     58 C          47.0689    9.9105  -29.4226 C.2     1  UNL1        0.3439
     59 O          48.0514    9.4485  -28.7833 O.2     1  UNL1       -0.2475
     60 O          46.6081    9.2302  -30.5466 O.3     1  UNL1       -0.4785
     61 H          45.8378    9.5870  -31.0993 H       1  UNL1        0.2951
@<TRIPOS>BOND
     1    11    12    1
     2    12    13    1
     3    12    14    1
     4    12     7    1
     5     7     8   am
     6     8     9    2
     7     8     1    1
     8     1     2   ar
     9     2     3   ar
    10     3     4   ar
    11     4    33    1
    12    33    34    1
    13    34    35   ar
    14    35    36   ar
    15    36    37    1
    16    36    38   ar
    17    38    42    1
    18    42    43    1
    19    43    44    2
    20    43    45    1
    21    45    46    1
    22    46    47    1
    23    47    48    1
    24    48    58    1
    25    58    59    2
    26    58    60    1
    27    48    49    1
    28    49    50    1
    29    49    51    1
    30    51    52    1
    31    51    53    1
    32    53    54    1
    33    38    39   ar
    34    39    40   ar
    35    40    41    1
    36     4     5   ar
    37     5    18    1
    38    18    20    1
    39    20    21    2
    40    20    22    2
    41    20    23    1
    42    23    24   ar
    43    24    25   ar
    44    25    26   ar
    45    26    30    1
    46    30    31    1
    47    31    32    1
    48    26    27   ar
    49    27    28   ar
    50    28    29    1
    51     5     6   ar
    52     6    15    1
    53    15    16    1
    54     6     1   ar
    55    40    34   ar
    56    28    23   ar
    57    53    46    1
    58    32    30    1
    59     7    10    1
    60    60    61    1
    61    50    55    1
    62    52    56    1
    63    54    57    1
    64    18    19    1
    65    16    17    1
@<TRIPOS>MOLECULE
*****
 61 65 0 0 0
SMALL
GASTEIGER

@<TRIPOS>ATOM
      1 C          49.1561   12.8239  -17.7834 C.ar    1  UNL1        0.0532
      2 C          47.9831   12.9336  -18.5386 C.ar    1  UNL1        0.0075
      3 C          48.0210   12.8426  -19.9256 C.ar    1  UNL1        0.0389
      4 C          49.2388   12.6422  -20.5940 C.ar    1  UNL1        0.1595
      5 C          50.4251   12.5163  -19.8504 C.ar    1  UNL1        0.0977
      6 C          50.3968   12.6007  -18.4345 C.ar    1  UNL1        0.0289
      7 N          50.1325   12.5127  -15.4751 N.am    1  UNL1       -0.3040
      8 C          49.0414   12.9273  -16.3169 C.2     1  UNL1        0.2456
      9 O          47.9980   13.4308  -15.8217 O.2     1  UNL1       -0.2702
     10 H          51.0219   12.2489  -15.9596 H       1  UNL1        0.1496
     11 C          48.7904   11.6458  -13.5844 C.3     1  UNL1        0.0196
     12 C          50.0675   12.3987  -14.0051 C.3     1  UNL1        0.0572
     13 C          51.3187   11.6732  -13.4723 C.3     1  UNL1        0.0196
     14 C          50.0252   13.8133  -13.3929 C.3     1  UNL1        0.0196
     15 C          51.6575   12.3392  -17.6316 C.3     1  UNL1        0.1651
     16 O          52.7710   12.8576  -18.3053 O.3     1  UNL1       -0.3772
     17 H          53.0087   12.2008  -19.0106 H       1  UNL1        0.2109
     18 N          51.6583   12.2940  -20.5452 N.pl3   1  UNL1       -0.2122
     19 H          52.1927   11.4155  -20.3631 H       1  UNL1        0.1738
     20 S          52.5095   13.6335  -21.2383 S.O2    1  UNL1        0.0745
     21 O          53.9143   13.2226  -21.5798 O.2     1  UNL1       -0.1499
     22 O          52.5875   14.7537  -20.2399 O.2     1  UNL1       -0.1499
     23 C          51.6599   14.1559  -22.6990 C.ar    1  UNL1        0.1356
     24 C          51.0880   15.4364  -22.7181 C.ar    1  UNL1        0.0207
     25 C          50.4718   15.9237  -23.8715 C.ar    1  UNL1       -0.0028
     26 C          50.4354   15.1455  -25.0349 C.ar    1  UNL1       -0.0216
     27 C          50.9831   13.8553  -25.0170 C.ar    1  UNL1        0.0085
     28 C          51.6072   13.3610  -23.8653 C.ar    1  UNL1        0.0762
     29 CL         52.3414   11.7635  -23.9532 Cl      1  UNL1       -0.0809
     30 C          49.7513   15.6648  -26.2703 C.3     1  UNL1        0.0224
     31 C          48.7780   16.8111  -26.0270 C.3     1  UNL1        0.0047
     32 C          50.1247   17.0866  -26.6698 C.3     1  UNL1        0.0047
     33 O          49.2968   12.5126  -21.9922 O.3     1  UNL1       -0.4513
     34 C          48.2383   12.8008  -22.8617 C.ar    1  UNL1        0.1580
     35 C          47.6729   14.0795  -22.8326 C.ar    1  UNL1        0.0677
     36 C          46.6573   14.4265  -23.7278 C.ar    1  UNL1        0.1398
     37 F          46.1763   15.6955  -23.7241 F       1  UNL1       -0.2044
     38 C          46.1719   13.4791  -24.6462 C.ar    1  UNL1        0.0175
     39 C          46.7097   12.1819  -24.6435 C.ar    1  UNL1        0.0130
     40 C          47.7311   11.8367  -23.7532 C.ar    1  UNL1        0.0919
     41 CL         48.3466   10.1906  -23.7704 Cl      1  UNL1       -0.0791
     42 C          45.2024   13.8814  -25.7248 C.3     1  UNL1        0.1382
     43 C          45.9813   14.3701  -26.9021 C.2     1  UNL1        0.3234
     44 O          45.8702   15.5678  -27.2812 O.2     1  UNL1       -0.2497
     45 O          46.9006   13.5083  -27.5092 O.3     1  UNL1       -0.4215
     46 C          46.5268   12.3378  -28.2342 C.3     1  UNL1        0.3207
     47 O          47.6109   11.4284  -28.1743 O.3     1  UNL1       -0.3070
     48 C          47.2767   10.2050  -28.8067 C.3     1  UNL1        0.2456
     49 C          47.0657   10.4223  -30.3184 C.3     1  UNL1        0.1781
     50 O          46.7035    9.2065  -30.9230 O.3     1  UNL1       -0.3790
     51 C          45.9566   11.4633  -30.5396 C.3     1  UNL1        0.1733
     52 O          45.9022   11.7968  -31.9032 O.3     1  UNL1       -0.3793
     53 C          46.2336   12.7247  -29.7013 C.3     1  UNL1        0.2106
     54 O          45.1175   13.5765  -29.7490 O.3     1  UNL1       -0.3766
     55 H          46.9019    9.2963  -31.8916 H       1  UNL1        0.2106
     56 H          44.9909   12.1491  -32.0795 H       1  UNL1        0.2105
     57 H          45.2173   14.1429  -30.5578 H       1  UNL1        0.2107
     58 C          48.3939    9.2238  -28.5800 C.2     1  UNL1        0.3439
     59 O          49.4152    9.5698  -27.9285 O.2     1  UNL1       -0.2475
     60 O          48.3364    7.9442  -29.1257 O.3     1  UNL1       -0.4785
     61 H          47.5424    7.6419  -29.6775 H       1  UNL1        0.2951
@<TRIPOS>BOND
     1    11    12    1
     2    12    13    1
     3    12    14    1
     4    12     7    1
     5     7     8   am
     6     8     9    2
     7     8     1    1
     8     1     2   ar
     9     2     3   ar
    10     3     4   ar
    11     4    33    1
    12    33    34    1
    13    34    35   ar
    14    35    36   ar
    15    36    37    1
    16    36    38   ar
    17    38    42    1
    18    42    43    1
    19    43    44    2
    20    43    45    1
    21    45    46    1
    22    46    47    1
    23    47    48    1
    24    48    58    1
    25    58    59    2
    26    58    60    1
    27    48    49    1
    28    49    50    1
    29    49    51    1
    30    51    52    1
    31    51    53    1
    32    53    54    1
    33    38    39   ar
    34    39    40   ar
    35    40    41    1
    36     4     5   ar
    37     5    18    1
    38    18    20    1
    39    20    21    2
    40    20    22    2
    41    20    23    1
    42    23    24   ar
    43    24    25   ar
    44    25    26   ar
    45    26    30    1
    46    30    31    1
    47    31    32    1
    48    26    27   ar
    49    27    28   ar
    50    28    29    1
    51     5     6   ar
    52     6    15    1
    53    15    16    1
    54     6     1   ar
    55    40    34   ar
    56    28    23   ar
    57    53    46    1
    58    32    30    1
    59     7    10    1
    60    60    61    1
    61    50    55    1
    62    52    56    1
    63    54    57    1
    64    18    19    1
    65    16    17    1
@<TRIPOS>MOLECULE
*****
 61 65 0 0 0
SMALL
GASTEIGER

@<TRIPOS>ATOM
      1 C          50.9895   12.7794  -18.6929 C.ar    1  UNL1        0.0532
      2 C          51.3563   14.0087  -19.2520 C.ar    1  UNL1        0.0075
      3 C          51.0650   14.2993  -20.5802 C.ar    1  UNL1        0.0389
      4 C          50.3999   13.3621  -21.3858 C.ar    1  UNL1        0.1595
      5 C          50.0121   12.1274  -20.8369 C.ar    1  UNL1        0.0977
      6 C          50.2983   11.8234  -19.4810 C.ar    1  UNL1        0.0289
      7 N          50.3472   12.7723  -16.2504 N.am    1  UNL1       -0.3040
      8 C          51.3279   12.5399  -17.2777 C.2     1  UNL1        0.2456
      9 O          52.4663   12.0815  -16.9929 O.2     1  UNL1       -0.2702
     10 H          49.3793   13.0054  -16.5730 H       1  UNL1        0.1496
     11 C          49.6313   13.6568  -14.0520 C.3     1  UNL1        0.0196
     12 C          50.6217   12.7437  -14.8005 C.3     1  UNL1        0.0572
     13 C          50.5269   11.2997  -14.2699 C.3     1  UNL1        0.0196
     14 C          52.0515   13.2635  -14.5495 C.3     1  UNL1        0.0196
     15 C          49.7680   10.5446  -18.8600 C.3     1  UNL1        0.1651
     16 O          50.3312    9.4321  -19.4986 O.3     1  UNL1       -0.3772
     17 H          49.8279    9.3042  -20.3447 H       1  UNL1        0.2109
     18 N          49.3179   11.1875  -21.6662 N.pl3   1  UNL1       -0.2122
     19 H          49.8175   10.7597  -22.4772 H       1  UNL1        0.1738
     20 S          47.5863   11.1596  -21.6725 S.O2    1  UNL1        0.0745
     21 O          47.0585   12.0529  -20.5852 O.2     1  UNL1       -0.1499
     22 O          47.1026    9.7639  -21.3968 O.2     1  UNL1       -0.1499
     23 C          47.0118   11.7206  -23.2484 C.ar    1  UNL1        0.1356
     24 C          45.8922   12.5645  -23.2904 C.ar    1  UNL1        0.0207
     25 C          45.4447   13.0936  -24.5016 C.ar    1  UNL1       -0.0028
     26 C          46.1232   12.8047  -25.6919 C.ar    1  UNL1       -0.0216
     27 C          47.2283   11.9427  -25.6620 C.ar    1  UNL1        0.0085
     28 C          47.6863   11.4115  -24.4503 C.ar    1  UNL1        0.0762
     29 CL         49.1294   10.4043  -24.4910 Cl      1  UNL1       -0.0809
     30 C          45.6255   13.3590  -26.9991 C.3     1  UNL1        0.0224
     31 C          46.5858   14.3164  -27.6935 C.3     1  UNL1        0.0047
     32 C          46.4001   12.9097  -28.2315 C.3     1  UNL1        0.0047
     33 O          50.0644   13.6471  -22.7205 O.3     1  UNL1       -0.4513
     34 C          50.7869   13.2022  -23.8339 C.ar    1  UNL1        0.1580
     35 C          51.8205   12.2803  -23.6406 C.ar    1  UNL1        0.0677
     36 C          52.5236   11.7638  -24.7324 C.ar    1  UNL1        0.1398
     37 F          53.4738   10.8181  -24.5209 F       1  UNL1       -0.2044
     38 C          52.2179   12.1930  -26.0358 C.ar    1  UNL1        0.0175
     39 C          51.2101   13.1526  -26.2241 C.ar    1  UNL1        0.0130
     40 C          50.5013   13.6639  -25.1327 C.ar    1  UNL1        0.0919
     41 CL         49.2717   14.8861  -25.4211 Cl      1  UNL1       -0.0791
     42 C          52.8449   11.5269  -27.2310 C.3     1  UNL1        0.1382
     43 C          52.1084   10.2564  -27.5045 C.2     1  UNL1        0.3234
     44 O          50.8626   10.1946  -27.3184 O.2     1  UNL1       -0.2497
     45 O          52.8049    9.1773  -28.0583 O.3     1  UNL1       -0.4215
     46 C          52.7267    8.8087  -29.4343 C.3     1  UNL1        0.3207
     47 O          51.5240    8.0840  -29.6194 O.3     1  UNL1       -0.3070
     48 C          51.3397    7.7556  -30.9856 C.3     1  UNL1        0.2456
     49 C          52.4328    6.7744  -31.4540 C.3     1  UNL1        0.1781
     50 O          52.2539    6.4858  -32.8177 O.3     1  UNL1       -0.3790
     51 C          53.8183    7.4028  -31.2333 C.3     1  UNL1        0.1733
     52 O          54.8077    6.4365  -31.4805 O.3     1  UNL1       -0.3793
     53 C          53.9436    7.9255  -29.7905 C.3     1  UNL1        0.2106
     54 O          55.1237    8.6770  -29.6626 O.3     1  UNL1       -0.3766
     55 H          52.7319    5.6343  -32.9969 H       1  UNL1        0.2106
     56 H          55.6430    6.9262  -31.6997 H       1  UNL1        0.2105
     57 H          55.8540    8.0393  -29.4507 H       1  UNL1        0.2107
     58 C          49.9823    7.1298  -31.1525 C.2     1  UNL1        0.3439
     59 O          49.1546    7.1551  -30.2030 O.2     1  UNL1       -0.2475
     60 O          49.6428    6.4751  -32.3335 O.3     1  UNL1       -0.4785
     61 H          50.2939    6.4124  -33.1070 H       1  UNL1        0.2951
@<TRIPOS>BOND
     1    11    12    1
     2    12    13    1
     3    12    14    1
     4    12     7    1
     5     7     8   am
     6     8     9    2
     7     8     1    1
     8     1     2   ar
     9     2     3   ar
    10     3     4   ar
    11     4    33    1
    12    33    34    1
    13    34    35   ar
    14    35    36   ar
    15    36    37    1
    16    36    38   ar
    17    38    42    1
    18    42    43    1
    19    43    44    2
    20    43    45    1
    21    45    46    1
    22    46    47    1
    23    47    48    1
    24    48    58    1
    25    58    59    2
    26    58    60    1
    27    48    49    1
    28    49    50    1
    29    49    51    1
    30    51    52    1
    31    51    53    1
    32    53    54    1
    33    38    39   ar
    34    39    40   ar
    35    40    41    1
    36     4     5   ar
    37     5    18    1
    38    18    20    1
    39    20    21    2
    40    20    22    2
    41    20    23    1
    42    23    24   ar
    43    24    25   ar
    44    25    26   ar
    45    26    30    1
    46    30    31    1
    47    31    32    1
    48    26    27   ar
    49    27    28   ar
    50    28    29    1
    51     5     6   ar
    52     6    15    1
    53    15    16    1
    54     6     1   ar
    55    40    34   ar
    56    28    23   ar
    57    53    46    1
    58    32    30    1
    59     7    10    1
    60    60    61    1
    61    50    55    1
    62    52    56    1
    63    54    57    1
    64    18    19    1
    65    16    17    1
@<TRIPOS>MOLECULE
*****
 61 65 0 0 0
SMALL
GASTEIGER

@<TRIPOS>ATOM
      1 C          52.7417   10.4152  -27.8986 C.ar    1  UNL1        0.0532
      2 C          53.5685   11.4109  -27.3662 C.ar    1  UNL1        0.0075
      3 C          53.1977   12.1023  -26.2182 C.ar    1  UNL1        0.0389
      4 C          51.9842   11.8157  -25.5739 C.ar    1  UNL1        0.1595
      5 C          51.1476   10.8093  -26.0872 C.ar    1  UNL1        0.0977
      6 C          51.5196   10.0930  -27.2540 C.ar    1  UNL1        0.0289
      7 N          53.8623    8.4477  -29.0173 N.am    1  UNL1       -0.3040
      8 C          53.1990    9.7210  -29.1165 C.2     1  UNL1        0.2456
      9 O          52.9526   10.2358  -30.2397 O.2     1  UNL1       -0.2702
     10 H          53.8957    8.0114  -28.0665 H       1  UNL1        0.1496
     11 C          53.4799    7.3475  -31.2015 C.3     1  UNL1        0.0196
     12 C          54.5207    7.7501  -30.1389 C.3     1  UNL1        0.0572
     13 C          55.6042    8.6514  -30.7629 C.3     1  UNL1        0.0196
     14 C          55.1967    6.4703  -29.6071 C.3     1  UNL1        0.0196
     15 C          50.6762    8.9252  -27.7307 C.3     1  UNL1        0.1651
     16 O          49.3671    9.3526  -27.9877 O.3     1  UNL1       -0.3772
     17 H          48.9075    9.4072  -27.1095 H       1  UNL1        0.2109
     18 N          49.9204   10.5151  -25.4088 N.pl3   1  UNL1       -0.2122
     19 H          49.0501   11.0177  -25.6924 H       1  UNL1        0.1738
     20 S          49.9579    9.7766  -23.8427 S.O2    1  UNL1        0.0745
     21 O          51.3435    9.8708  -23.2683 O.2     1  UNL1       -0.1499
     22 O          49.6073    8.3203  -23.9625 O.2     1  UNL1       -0.1499
     23 C          48.8083   10.6119  -22.7896 C.ar    1  UNL1        0.1356
     24 C          47.8850   11.4922  -23.3727 C.ar    1  UNL1        0.0207
     25 C          46.9099   12.1185  -22.5953 C.ar    1  UNL1       -0.0028
     26 C          46.8275   11.8584  -21.2219 C.ar    1  UNL1       -0.0216
     27 C          47.7616   10.9989  -20.6273 C.ar    1  UNL1        0.0085
     28 C          48.7399   10.3630  -21.4010 C.ar    1  UNL1        0.0762
     29 CL         49.8213    9.2359  -20.5893 Cl      1  UNL1       -0.0809
     30 C          45.7890   12.5518  -20.3825 C.3     1  UNL1        0.0224
     31 C          44.6700   11.6499  -19.8776 C.3     1  UNL1        0.0047
     32 C          45.7467   12.1265  -18.9204 C.3     1  UNL1        0.0047
     33 O          51.6049   12.4772  -24.3934 O.3     1  UNL1       -0.4513
     34 C          50.8737   13.6701  -24.3507 C.ar    1  UNL1        0.1580
     35 C          50.6331   14.3548  -25.5460 C.ar    1  UNL1        0.0677
     36 C          49.8540   15.5150  -25.5544 C.ar    1  UNL1        0.1398
     37 F          49.5784   16.1192  -26.7380 F       1  UNL1       -0.2044
     38 C          49.3312   16.0229  -24.3522 C.ar    1  UNL1        0.0175
     39 C          49.6115   15.3590  -23.1469 C.ar    1  UNL1        0.0130
     40 C          50.3846   14.1939  -23.1391 C.ar    1  UNL1        0.0919
     41 CL         50.7317   13.4203  -21.5997 Cl      1  UNL1       -0.0791
     42 C          48.3555   17.1688  -24.3620 C.3     1  UNL1        0.1382
     43 C          46.9868   16.6264  -24.1095 C.2     1  UNL1        0.3234
     44 O          46.0629   17.3940  -23.7252 O.2     1  UNL1       -0.2497
     45 O          46.7284   15.2825  -24.3988 O.3     1  UNL1       -0.4215
     46 C          46.1147   14.8382  -25.6077 C.3     1  UNL1        0.3207
     47 O          46.7769   13.6557  -26.0187 O.3     1  UNL1       -0.3070
     48 C          46.1630   13.1110  -27.1740 C.3     1  UNL1        0.2456
     49 C          46.3376   14.0630  -28.3741 C.3     1  UNL1        0.1781
     50 O          45.6953   13.5228  -29.5013 O.3     1  UNL1       -0.3790
     51 C          45.7298   15.4340  -28.0370 C.3     1  UNL1        0.1733
     52 O          46.0601   16.3473  -29.0522 O.3     1  UNL1       -0.3793
     53 C          46.2650   15.9370  -26.6838 C.3     1  UNL1        0.2106
     54 O          45.5508   17.0811  -26.2906 O.3     1  UNL1       -0.3766
     55 H          46.0955   13.9600  -30.2978 H       1  UNL1        0.2106
     56 H          45.3830   17.0727  -29.0213 H       1  UNL1        0.2105
     57 H          45.9972   17.8620  -26.7101 H       1  UNL1        0.2107
     58 C          46.7981   11.7816  -27.4765 C.2     1  UNL1        0.3439
     59 O          47.8326   11.4203  -26.8547 O.2     1  UNL1       -0.2475
     60 O          46.2835   10.9600  -28.4759 O.3     1  UNL1       -0.4785
     61 H          45.4691   11.2316  -29.0137 H       1  UNL1        0.2951
@<TRIPOS>BOND
     1    11    12    1
     2    12    13    1
     3    12    14    1
     4    12     7    1
     5     7     8   am
     6     8     9    2
     7     8     1    1
     8     1     2   ar
     9     2     3   ar
    10     3     4   ar
    11     4    33    1
    12    33    34    1
    13    34    35   ar
    14    35    36   ar
    15    36    37    1
    16    36    38   ar
    17    38    42    1
    18    42    43    1
    19    43    44    2
    20    43    45    1
    21    45    46    1
    22    46    47    1
    23    47    48    1
    24    48    58    1
    25    58    59    2
    26    58    60    1
    27    48    49    1
    28    49    50    1
    29    49    51    1
    30    51    52    1
    31    51    53    1
    32    53    54    1
    33    38    39   ar
    34    39    40   ar
    35    40    41    1
    36     4     5   ar
    37     5    18    1
    38    18    20    1
    39    20    21    2
    40    20    22    2
    41    20    23    1
    42    23    24   ar
    43    24    25   ar
    44    25    26   ar
    45    26    30    1
    46    30    31    1
    47    31    32    1
    48    26    27   ar
    49    27    28   ar
    50    28    29    1
    51     5     6   ar
    52     6    15    1
    53    15    16    1
    54     6     1   ar
    55    40    34   ar
    56    28    23   ar
    57    53    46    1
    58    32    30    1
    59     7    10    1
    60    60    61    1
    61    50    55    1
    62    52    56    1
    63    54    57    1
    64    18    19    1
    65    16    17    1
