@<TRIPOS>MOLECULE
*****
 46 51 0 0 0
SMALL
GASTEIGER

@<TRIPOS>ATOM
      1 C         -64.1337  -52.1730  -24.4725 C.ar    1  UNL1        0.0702
      2 C         -63.5642  -52.7192  -23.3170 C.ar    1  UNL1        0.0191
      3 C         -64.2370  -53.7100  -22.6008 C.ar    1  UNL1        0.0356
      4 C         -65.5026  -54.1419  -23.0341 C.ar    1  UNL1        0.1318
      5 N         -66.0463  -53.5772  -24.1489 N.ar    1  UNL1       -0.2279
      6 C         -65.4067  -52.6149  -24.8647 C.ar    1  UNL1        0.1149
      7 N         -66.2313  -55.1664  -22.3230 N.pl3   1  UNL1       -0.2932
      8 C         -65.7478  -55.6257  -21.0118 C.3     1  UNL1        0.0923
      9 C         -66.9315  -56.0309  -20.1301 C.3     1  UNL1        0.0252
     10 C         -67.7922  -57.1488  -20.7750 C.3     1  UNL1        0.0472
     11 C         -67.6584  -57.1968  -22.3179 C.3     1  UNL1        0.0252
     12 C         -67.4066  -55.8139  -22.9315 C.3     1  UNL1        0.0923
     13 C         -69.2656  -57.0178  -20.3540 C.3     1  UNL1        0.2054
     14 O         -69.5523  -55.6649  -20.0043 O.3     1  UNL1       -0.4755
     15 C         -70.3294  -55.2770  -18.9032 C.ar    1  UNL1        0.1388
     16 C         -70.2592  -55.9353  -17.6614 C.ar    1  UNL1        0.0369
     17 C         -71.0552  -55.5101  -16.5959 C.ar    1  UNL1        0.0033
     18 C         -71.9256  -54.4295  -16.7550 C.ar    1  UNL1        0.0066
     19 C         -72.0090  -53.7596  -17.9883 C.ar    1  UNL1        0.0785
     20 C         -71.2039  -54.1939  -19.0565 C.ar    1  UNL1        0.0433
     21 C         -72.9291  -52.6141  -18.1639 C.2     1  UNL1        0.3381
     22 O         -74.0058  -52.5537  -17.5104 O.2     1  UNL1       -0.2451
     23 O         -72.6140  -51.5905  -19.0540 O.3     1  UNL1       -0.4771
     24 H         -73.2370  -50.8019  -19.1817 H       1  UNL1        0.2954
     25 C         -63.8468  -49.7581  -25.2067 C.2     1  UNL1        0.2839
     26 O         -64.8290  -49.3722  -24.5183 O.2     1  UNL1       -0.2665
     27 N         -63.4370  -51.1368  -25.1842 N.am    1  UNL1       -0.2766
     28 H         -62.6168  -51.4266  -25.7598 H       1  UNL1        0.1553
     29 C         -61.0194  -45.8190  -28.7568 C.ar    1  UNL1        0.0003
     30 C         -60.4995  -45.4326  -27.4916 C.ar    1  UNL1        0.0031
     31 C         -60.8945  -46.0964  -26.3167 C.ar    1  UNL1        0.0375
     32 C         -61.8062  -47.1401  -26.4320 C.ar    1  UNL1        0.1452
     33 O         -62.2978  -47.8796  -25.4680 O.2     1  UNL1       -0.4492
     34 C         -63.1209  -48.7597  -26.0106 C.ar    1  UNL1        0.1946
     35 C         -63.1849  -48.5643  -27.3960 C.ar    1  UNL1        0.0202
     36 C         -64.0324  -49.2796  -28.4040 C.3     1  UNL1        0.0345
     37 C         -62.3142  -47.5223  -27.6435 C.ar    1  UNL1        0.0337
     38 C         -61.9468  -46.8860  -28.8290 C.ar    1  UNL1        0.0028
     39 C         -61.1118  -43.6492  -31.8851 C.ar    1  UNL1        0.1387
     40 C         -59.7914  -43.7749  -32.3291 C.ar    1  UNL1        0.0369
     41 C         -58.8770  -44.5554  -31.6198 C.ar    1  UNL1        0.0031
     42 C         -59.2737  -45.2199  -30.4576 C.ar    1  UNL1        0.0002
     43 C         -60.5956  -45.1104  -29.9911 C.ar    1  UNL1        0.0030
     44 C         -61.5110  -44.3203  -30.7123 C.ar    1  UNL1        0.0369
     45 C         -62.4919  -43.1946  -33.9206 C.3     1  UNL1        0.2525
     46 O         -61.9913  -42.8516  -32.6325 O.3     1  UNL1       -0.4714
@<TRIPOS>BOND
     1    45    46    1
     2    46    39    1
     3    39    40   ar
     4    40    41   ar
     5    41    42   ar
     6    42    43   ar
     7    43    29    1
     8    29    30   ar
     9    30    31   ar
    10    31    32   ar
    11    32    33   ar
    12    33    34   ar
    13    34    25    1
    14    25    26    2
    15    25    27   am
    16    27     1    1
    17     1     2   ar
    18     2     3   ar
    19     3     4   ar
    20     4     7    1
    21     7     8    1
    22     8     9    1
    23     9    10    1
    24    10    13    1
    25    13    14    1
    26    14    15    1
    27    15    16   ar
    28    16    17   ar
    29    17    18   ar
    30    18    19   ar
    31    19    21    1
    32    21    22    2
    33    21    23    1
    34    19    20   ar
    35    10    11    1
    36    11    12    1
    37     4     5   ar
    38     5     6   ar
    39    34    35   ar
    40    35    36    1
    41    35    37   ar
    42    37    38   ar
    43    43    44   ar
    44    44    39   ar
    45    38    29   ar
    46    37    32   ar
    47     6     1   ar
    48    12     7    1
    49    20    15   ar
    50    27    28    1
    51    23    24    1
@<TRIPOS>MOLECULE
*****
 46 51 0 0 0
SMALL
GASTEIGER

@<TRIPOS>ATOM
      1 C         -64.1723  -52.1718  -24.5022 C.ar    1  UNL1        0.0702
      2 C         -63.6529  -52.6468  -23.2930 C.ar    1  UNL1        0.0191
      3 C         -64.3258  -53.6391  -22.5788 C.ar    1  UNL1        0.0356
      4 C         -65.5421  -54.1445  -23.0698 C.ar    1  UNL1        0.1318
      5 N         -66.0390  -53.6481  -24.2378 N.ar    1  UNL1       -0.2279
      6 C         -65.3981  -52.6859  -24.9524 C.ar    1  UNL1        0.1149
      7 N         -66.2689  -55.1731  -22.3628 N.pl3   1  UNL1       -0.2932
      8 C         -65.7233  -55.7193  -21.1107 C.3     1  UNL1        0.0923
      9 C         -66.8649  -56.1199  -20.1731 C.3     1  UNL1        0.0252
     10 C         -67.8146  -57.1661  -20.8132 C.3     1  UNL1        0.0472
     11 C         -67.7826  -57.1398  -22.3621 C.3     1  UNL1        0.0252
     12 C         -67.5088  -55.7387  -22.9227 C.3     1  UNL1        0.0923
     13 C         -69.2505  -56.9957  -20.2893 C.3     1  UNL1        0.2054
     14 O         -69.3953  -55.7158  -19.6765 O.3     1  UNL1       -0.4755
     15 C         -70.0025  -55.4956  -18.4317 C.ar    1  UNL1        0.1388
     16 C         -71.2169  -54.7973  -18.2980 C.ar    1  UNL1        0.0369
     17 C         -71.7799  -54.6043  -17.0349 C.ar    1  UNL1        0.0033
     18 C         -71.1424  -55.1025  -15.8965 C.ar    1  UNL1        0.0066
     19 C         -69.9286  -55.8029  -16.0107 C.ar    1  UNL1        0.0785
     20 C         -69.3681  -55.9931  -17.2864 C.ar    1  UNL1        0.0433
     21 C         -69.2477  -56.3333  -14.8089 C.2     1  UNL1        0.3381
     22 O         -69.9161  -56.8399  -13.8674 O.2     1  UNL1       -0.2451
     23 O         -67.8600  -56.2779  -14.7063 O.3     1  UNL1       -0.4771
     24 H         -67.3839  -56.6382  -13.8878 H       1  UNL1        0.2954
     25 C         -63.8783  -49.7513  -25.2151 C.2     1  UNL1        0.2839
     26 O         -64.8487  -49.3660  -24.5097 O.2     1  UNL1       -0.2665
     27 N         -63.4778  -51.1330  -25.2123 N.am    1  UNL1       -0.2766
     28 H         -62.6673  -51.4222  -25.8017 H       1  UNL1        0.1553
     29 C         -61.0620  -45.8015  -28.7621 C.ar    1  UNL1        0.0003
     30 C         -60.5594  -45.4011  -27.4943 C.ar    1  UNL1        0.0031
     31 C         -60.9583  -46.0621  -26.3192 C.ar    1  UNL1        0.0375
     32 C         -61.8565  -47.1172  -26.4368 C.ar    1  UNL1        0.1452
     33 O         -62.3491  -47.8563  -25.4729 O.2     1  UNL1       -0.4492
     34 C         -63.1562  -48.7495  -26.0181 C.ar    1  UNL1        0.1946
     35 C         -63.2085  -48.5637  -27.4053 C.ar    1  UNL1        0.0202
     36 C         -64.0374  -49.2953  -28.4170 C.3     1  UNL1        0.0345
     37 C         -62.3478  -47.5130  -27.6508 C.ar    1  UNL1        0.0337
     38 C         -61.9760  -46.8799  -28.8367 C.ar    1  UNL1        0.0028
     39 C         -61.1463  -43.6459  -31.9003 C.ar    1  UNL1        0.1387
     40 C         -59.8223  -43.7657  -32.3351 C.ar    1  UNL1        0.0369
     41 C         -58.9081  -44.5379  -31.6164 C.ar    1  UNL1        0.0031
     42 C         -59.3086  -45.1996  -30.4540 C.ar    1  UNL1        0.0002
     43 C         -60.6341  -45.0958  -29.9966 C.ar    1  UNL1        0.0030
     44 C         -61.5494  -44.3142  -30.7272 C.ar    1  UNL1        0.0369
     45 C         -62.4620  -43.1748  -33.9745 C.3     1  UNL1        0.2525
     46 O         -62.0255  -42.8566  -32.6570 O.3     1  UNL1       -0.4714
@<TRIPOS>BOND
     1    45    46    1
     2    46    39    1
     3    39    40   ar
     4    40    41   ar
     5    41    42   ar
     6    42    43   ar
     7    43    29    1
     8    29    30   ar
     9    30    31   ar
    10    31    32   ar
    11    32    33   ar
    12    33    34   ar
    13    34    25    1
    14    25    26    2
    15    25    27   am
    16    27     1    1
    17     1     2   ar
    18     2     3   ar
    19     3     4   ar
    20     4     7    1
    21     7     8    1
    22     8     9    1
    23     9    10    1
    24    10    13    1
    25    13    14    1
    26    14    15    1
    27    15    16   ar
    28    16    17   ar
    29    17    18   ar
    30    18    19   ar
    31    19    21    1
    32    21    22    2
    33    21    23    1
    34    19    20   ar
    35    10    11    1
    36    11    12    1
    37     4     5   ar
    38     5     6   ar
    39    34    35   ar
    40    35    36    1
    41    35    37   ar
    42    37    38   ar
    43    43    44   ar
    44    44    39   ar
    45    38    29   ar
    46    37    32   ar
    47     6     1   ar
    48    12     7    1
    49    20    15   ar
    50    27    28    1
    51    23    24    1
@<TRIPOS>MOLECULE
*****
 46 51 0 0 0
SMALL
GASTEIGER

@<TRIPOS>ATOM
      1 C         -61.6202  -45.4242  -22.2400 C.ar    1  UNL1        0.0702
      2 C         -60.8928  -46.2252  -21.3528 C.ar    1  UNL1        0.0191
      3 C         -60.6905  -47.5781  -21.6293 C.ar    1  UNL1        0.0356
      4 C         -61.2413  -48.1387  -22.7948 C.ar    1  UNL1        0.1318
      5 N         -61.9661  -47.3427  -23.6306 N.ar    1  UNL1       -0.2279
      6 C         -62.1710  -46.0219  -23.3840 C.ar    1  UNL1        0.1149
      7 N         -61.0536  -49.5336  -23.1191 N.pl3   1  UNL1       -0.2932
      8 C         -60.2802  -50.3939  -22.2105 C.3     1  UNL1        0.0923
      9 C         -60.8263  -51.8232  -22.2518 C.3     1  UNL1        0.0252
     10 C         -60.7892  -52.4281  -23.6798 C.3     1  UNL1        0.0472
     11 C         -60.7861  -51.3482  -24.7909 C.3     1  UNL1        0.0252
     12 C         -61.5584  -50.0856  -24.3885 C.3     1  UNL1        0.0923
     13 C         -61.9432  -53.4241  -23.8833 C.3     1  UNL1        0.2054
     14 O         -63.1319  -52.9207  -23.2763 O.3     1  UNL1       -0.4755
     15 C         -64.3780  -53.5627  -23.3185 C.ar    1  UNL1        0.1388
     16 C         -65.2596  -53.4276  -24.4069 C.ar    1  UNL1        0.0369
     17 C         -66.4899  -54.0877  -24.3996 C.ar    1  UNL1        0.0033
     18 C         -66.8538  -54.8861  -23.3129 C.ar    1  UNL1        0.0066
     19 C         -65.9858  -55.0331  -22.2167 C.ar    1  UNL1        0.0785
     20 C         -64.7484  -54.3649  -22.2318 C.ar    1  UNL1        0.0433
     21 C         -66.3650  -55.8772  -21.0621 C.2     1  UNL1        0.3381
     22 O         -67.0281  -56.9356  -21.2351 O.2     1  UNL1       -0.2451
     23 O         -65.9924  -55.5100  -19.7715 O.3     1  UNL1       -0.4771
     24 H         -66.2469  -56.0807  -18.9741 H       1  UNL1        0.2954
     25 C         -62.7505  -43.5737  -20.9166 C.2     1  UNL1        0.2839
     26 O         -63.3656  -44.3945  -20.1849 O.2     1  UNL1       -0.2665
     27 N         -61.8384  -44.0385  -21.9273 N.am    1  UNL1       -0.2766
     28 H         -61.3388  -43.3360  -22.5146 H       1  UNL1        0.1553
     29 C         -63.9244  -37.7811  -19.8295 C.ar    1  UNL1        0.0003
     30 C         -62.7817  -37.6516  -20.6648 C.ar    1  UNL1        0.0031
     31 C         -62.1333  -38.7877  -21.1806 C.ar    1  UNL1        0.0375
     32 C         -62.6448  -40.0377  -20.8492 C.ar    1  UNL1        0.1452
     33 O         -62.1914  -41.2094  -21.2226 O.2     1  UNL1       -0.4492
     34 C         -62.9723  -42.1347  -20.6931 C.ar    1  UNL1        0.1946
     35 C         -63.9693  -41.5319  -19.9157 C.ar    1  UNL1        0.0202
     36 C         -65.0289  -42.1856  -19.0814 C.3     1  UNL1        0.0345
     37 C         -63.7440  -40.1765  -20.0465 C.ar    1  UNL1        0.0337
     38 C         -64.4113  -39.0727  -19.5157 C.ar    1  UNL1        0.0028
     39 C         -66.5278  -35.0669  -19.2315 C.ar    1  UNL1        0.1387
     40 C         -65.8760  -34.2870  -18.2705 C.ar    1  UNL1        0.0369
     41 C         -64.6030  -34.6383  -17.8182 C.ar    1  UNL1        0.0031
     42 C         -63.9672  -35.7744  -18.3228 C.ar    1  UNL1        0.0002
     43 C         -64.6009  -36.5743  -19.2900 C.ar    1  UNL1        0.0030
     44 C         -65.8852  -36.2130  -19.7400 C.ar    1  UNL1        0.0369
     45 C         -68.8513  -34.2618  -18.7751 C.3     1  UNL1        0.2525
     46 O         -67.8069  -34.6722  -19.6517 O.3     1  UNL1       -0.4714
@<TRIPOS>BOND
     1    45    46    1
     2    46    39    1
     3    39    40   ar
     4    40    41   ar
     5    41    42   ar
     6    42    43   ar
     7    43    29    1
     8    29    30   ar
     9    30    31   ar
    10    31    32   ar
    11    32    33   ar
    12    33    34   ar
    13    34    25    1
    14    25    26    2
    15    25    27   am
    16    27     1    1
    17     1     2   ar
    18     2     3   ar
    19     3     4   ar
    20     4     7    1
    21     7     8    1
    22     8     9    1
    23     9    10    1
    24    10    13    1
    25    13    14    1
    26    14    15    1
    27    15    16   ar
    28    16    17   ar
    29    17    18   ar
    30    18    19   ar
    31    19    21    1
    32    21    22    2
    33    21    23    1
    34    19    20   ar
    35    10    11    1
    36    11    12    1
    37     4     5   ar
    38     5     6   ar
    39    34    35   ar
    40    35    36    1
    41    35    37   ar
    42    37    38   ar
    43    43    44   ar
    44    44    39   ar
    45    38    29   ar
    46    37    32   ar
    47     6     1   ar
    48    12     7    1
    49    20    15   ar
    50    27    28    1
    51    23    24    1
