@<TRIPOS>MOLECULE
*****
 48 53 0 0 0
SMALL
GASTEIGER

@<TRIPOS>ATOM
      1 C          60.7035   88.2927    8.7796 C.ar    1  UNL1        0.0702
      2 C          60.0646   87.1431    9.2702 C.ar    1  UNL1        0.0191
      3 C          60.2960   86.7172   10.5790 C.ar    1  UNL1        0.0356
      4 C          61.1649   87.4499   11.4038 C.ar    1  UNL1        0.1318
      5 N          61.7512   88.5771   10.9137 N.ar    1  UNL1       -0.2279
      6 C          61.5401   89.0113    9.6432 C.ar    1  UNL1        0.1149
      7 N          61.4294   87.0422   12.7610 N.pl3   1  UNL1       -0.2927
      8 C          60.4198   86.2719   13.4970 C.3     1  UNL1        0.0923
      9 C          60.3092   86.7743   14.9394 C.3     1  UNL1        0.0258
     10 C          61.6812   86.8409   15.6436 C.3     1  UNL1        0.0577
     11 C          62.7076   87.6493   14.8035 C.3     1  UNL1        0.1222
     12 C          62.7752   87.1604   13.3405 C.3     1  UNL1        0.1033
     13 C          62.4104   89.1304   14.8861 C.2     1  UNL1        0.3151
     14 O          62.2803   89.7011   16.0021 O.2     1  UNL1       -0.2502
     15 O          62.3352   89.8931   13.7239 O.3     1  UNL1       -0.4801
     16 H          62.4689   89.4741   12.8113 H       1  UNL1        0.2951
     17 C          62.2011   85.4278   15.9987 C.3     1  UNL1        0.2059
     18 O          63.2846   85.0468   15.1487 O.3     1  UNL1       -0.4754
     19 C          63.3935   83.8309   14.4536 C.ar    1  UNL1        0.1388
     20 C          63.3425   82.6454   15.1941 C.ar    1  UNL1        0.0369
     21 C          63.4407   81.4070   14.5580 C.ar    1  UNL1        0.0033
     22 C          63.5949   81.3401   13.1721 C.ar    1  UNL1        0.0066
     23 C          63.6559   82.5175   12.4061 C.ar    1  UNL1        0.0785
     24 C          63.5579   83.7619   13.0552 C.ar    1  UNL1        0.0433
     25 C          63.8214   82.4517   10.9367 C.2     1  UNL1        0.3381
     26 O          62.8407   82.1705   10.1956 O.2     1  UNL1       -0.2451
     27 O          65.0631   82.7009   10.3575 O.3     1  UNL1       -0.4771
     28 H          65.1866   82.6588    9.3530 H       1  UNL1        0.2954
     29 C          59.8538   90.0389    7.1514 C.2     1  UNL1        0.2839
     30 O          59.0670   90.5648    7.9840 O.2     1  UNL1       -0.2665
     31 N          60.4709   88.7768    7.4457 N.am    1  UNL1       -0.2766
     32 H          60.6607   88.1300    6.6478 H       1  UNL1        0.1553
     33 C          57.5913   91.2608    5.1894 C.3     1  UNL1        0.0345
     34 C          59.0786   91.2392    5.0037 C.ar    1  UNL1        0.0202
     35 C          60.0559   90.7019    5.8510 C.ar    1  UNL1        0.1946
     36 O          61.2533   90.8556    5.3136 O.2     1  UNL1       -0.4492
     37 C          61.1056   91.4841    4.1731 C.ar    1  UNL1        0.1452
     38 C          62.1026   91.8611    3.2801 C.ar    1  UNL1        0.0375
     39 C          61.7183   92.5366    2.1085 C.ar    1  UNL1        0.0031
     40 C          60.3506   92.8234    1.8480 C.ar    1  UNL1        0.0002
     41 C          59.3672   92.4199    2.7829 C.ar    1  UNL1        0.0028
     42 C          59.7852   91.7516    3.9340 C.ar    1  UNL1        0.0337
     43 C          59.9563   93.5386    0.6078 C.ar    1  UNL1        0.0000
     44 C          60.9184   94.2195   -0.1624 C.ar    1  UNL1        0.0000
     45 C          60.5444   94.8920   -1.3299 C.ar    1  UNL1        0.0000
     46 C          59.2100   94.8920   -1.7420 C.ar    1  UNL1        0.0000
     47 C          58.2463   94.2198   -0.9871 C.ar    1  UNL1        0.0000
     48 C          58.6144   93.5465    0.1817 C.ar    1  UNL1        0.0000
@<TRIPOS>BOND
     1    33    34    1
     2    34    35   ar
     3    35    29    1
     4    29    30    2
     5    29    31   am
     6    31     1    1
     7     1     2   ar
     8     2     3   ar
     9     3     4   ar
    10     4     7    1
    11     7     8    1
    12     8     9    1
    13     9    10    1
    14    10    17    1
    15    17    18    1
    16    18    19    1
    17    19    20   ar
    18    20    21   ar
    19    21    22   ar
    20    22    23   ar
    21    23    25    1
    22    25    26    2
    23    25    27    1
    24    23    24   ar
    25    10    11    1
    26    11    13    1
    27    13    14    2
    28    13    15    1
    29    11    12    1
    30     4     5   ar
    31     5     6   ar
    32    35    36   ar
    33    36    37   ar
    34    37    38   ar
    35    38    39   ar
    36    39    40   ar
    37    40    43    1
    38    43    44   ar
    39    44    45   ar
    40    45    46   ar
    41    46    47   ar
    42    47    48   ar
    43    40    41   ar
    44    41    42   ar
    45    42    34   ar
    46     6     1   ar
    47    42    37   ar
    48    12     7    1
    49    48    43   ar
    50    24    19   ar
    51    31    32    1
    52    27    28    1
    53    15    16    1
@<TRIPOS>MOLECULE
*****
 48 53 0 0 0
SMALL
GASTEIGER

@<TRIPOS>ATOM
      1 C          59.4817   91.4192    5.2569 C.ar    1  UNL1        0.0702
      2 C          60.7117   91.4409    4.5809 C.ar    1  UNL1        0.0191
      3 C          60.7854   91.9283    3.2751 C.ar    1  UNL1        0.0356
      4 C          59.6237   92.4038    2.6454 C.ar    1  UNL1        0.1318
      5 N          58.4476   92.3979    3.3320 N.ar    1  UNL1       -0.2279
      6 C          58.3523   91.9291    4.6041 C.ar    1  UNL1        0.1149
      7 N          59.6590   92.9149    1.2979 N.pl3   1  UNL1       -0.2927
      8 C          59.8807   94.3480    1.0711 C.3     1  UNL1        0.0923
      9 C          58.9576   94.8642   -0.0363 C.3     1  UNL1        0.0258
     10 C          59.0434   94.0075   -1.3176 C.3     1  UNL1        0.0577
     11 C          58.8224   92.5021   -1.0050 C.3     1  UNL1        0.1222
     12 C          59.7282   92.0075    0.1434 C.3     1  UNL1        0.1033
     13 C          57.3614   92.2282   -0.7240 C.2     1  UNL1        0.3151
     14 O          56.5314   93.1732   -0.6446 O.2     1  UNL1       -0.2502
     15 O          56.9067   90.9176   -0.6074 O.3     1  UNL1       -0.4801
     16 H          57.5397   90.1320   -0.7000 H       1  UNL1        0.2951
     17 C          60.3688   94.2583   -2.0749 C.3     1  UNL1        0.2059
     18 O          61.3338   94.8915   -1.2326 O.3     1  UNL1       -0.4754
     19 C          62.5404   94.3210   -0.7945 C.ar    1  UNL1        0.1388
     20 C          63.5354   94.0791   -1.7472 C.ar    1  UNL1        0.0369
     21 C          64.7568   93.5185   -1.3706 C.ar    1  UNL1        0.0033
     22 C          64.9961   93.1896   -0.0351 C.ar    1  UNL1        0.0066
     23 C          64.0094   93.4165    0.9405 C.ar    1  UNL1        0.0785
     24 C          62.7802   93.9804    0.5523 C.ar    1  UNL1        0.0433
     25 C          64.2577   93.0676    2.3574 C.2     1  UNL1        0.3381
     26 O          64.3726   93.9730    3.2274 O.2     1  UNL1       -0.2451
     27 O          64.3660   91.7341    2.7440 O.3     1  UNL1       -0.4771
     28 H          64.5353   91.4848    3.7112 H       1  UNL1        0.2954
     29 C          59.6213   89.5916    7.0069 C.2     1  UNL1        0.2839
     30 O          59.4827   88.6563    6.1734 O.2     1  UNL1       -0.2665
     31 N          59.3707   90.9483    6.6111 N.am    1  UNL1       -0.2766
     32 H          58.9814   91.6006    7.3280 H       1  UNL1        0.1553
     33 C          60.7219   86.7688    8.1391 C.3     1  UNL1        0.0345
     34 C          60.4452   88.0351    8.8918 C.ar    1  UNL1        0.0202
     35 C          59.9606   89.2540    8.4006 C.ar    1  UNL1        0.1946
     36 O          59.8220   90.1171    9.3916 O.2     1  UNL1       -0.4492
     37 C          60.2124   89.5290   10.4958 C.ar    1  UNL1        0.1452
     38 C          60.2446   90.0704   11.7763 C.ar    1  UNL1        0.0375
     39 C          60.7084   89.2571   12.8251 C.ar    1  UNL1        0.0031
     40 C          61.1307   87.9221   12.5802 C.ar    1  UNL1        0.0002
     41 C          61.0797   87.4097   11.2616 C.ar    1  UNL1        0.0028
     42 C          60.6136   88.2450   10.2460 C.ar    1  UNL1        0.0337
     43 C          61.6200   87.0726   13.6955 C.ar    1  UNL1        0.0000
     44 C          62.9852   86.7440   13.7992 C.ar    1  UNL1        0.0000
     45 C          63.4433   85.9440   14.8506 C.ar    1  UNL1        0.0000
     46 C          62.5473   85.4649   15.8086 C.ar    1  UNL1        0.0000
     47 C          61.1908   85.7842   15.7173 C.ar    1  UNL1        0.0000
     48 C          60.7269   86.5830   14.6676 C.ar    1  UNL1        0.0000
@<TRIPOS>BOND
     1    33    34    1
     2    34    35   ar
     3    35    29    1
     4    29    30    2
     5    29    31   am
     6    31     1    1
     7     1     2   ar
     8     2     3   ar
     9     3     4   ar
    10     4     7    1
    11     7     8    1
    12     8     9    1
    13     9    10    1
    14    10    17    1
    15    17    18    1
    16    18    19    1
    17    19    20   ar
    18    20    21   ar
    19    21    22   ar
    20    22    23   ar
    21    23    25    1
    22    25    26    2
    23    25    27    1
    24    23    24   ar
    25    10    11    1
    26    11    13    1
    27    13    14    2
    28    13    15    1
    29    11    12    1
    30     4     5   ar
    31     5     6   ar
    32    35    36   ar
    33    36    37   ar
    34    37    38   ar
    35    38    39   ar
    36    39    40   ar
    37    40    43    1
    38    43    44   ar
    39    44    45   ar
    40    45    46   ar
    41    46    47   ar
    42    47    48   ar
    43    40    41   ar
    44    41    42   ar
    45    42    34   ar
    46     6     1   ar
    47    42    37   ar
    48    12     7    1
    49    48    43   ar
    50    24    19   ar
    51    31    32    1
    52    27    28    1
    53    15    16    1
@<TRIPOS>MOLECULE
*****
 48 53 0 0 0
SMALL
GASTEIGER

@<TRIPOS>ATOM
      1 C          62.0063   86.8764   10.5640 C.ar    1  UNL1        0.0702
      2 C          60.9924   86.8287    9.5943 C.ar    1  UNL1        0.0191
      3 C          60.2819   85.6465    9.3807 C.ar    1  UNL1        0.0356
      4 C          60.5819   84.5085   10.1470 C.ar    1  UNL1        0.1318
      5 N          61.5510   84.5879   11.1006 N.ar    1  UNL1       -0.2279
      6 C          62.2549   85.7282   11.3267 C.ar    1  UNL1        0.1149
      7 N          59.8705   83.2693    9.9562 N.pl3   1  UNL1       -0.2927
      8 C          60.6015   82.0722    9.5239 C.3     1  UNL1        0.0923
      9 C          59.7978   81.3051    8.4701 C.3     1  UNL1        0.0258
     10 C          58.3506   81.0232    8.9274 C.3     1  UNL1        0.0577
     11 C          57.6424   82.3252    9.3921 C.3     1  UNL1        0.1222
     12 C          58.4849   83.1102   10.4206 C.3     1  UNL1        0.1033
     13 C          57.2725   83.1812    8.2008 C.2     1  UNL1        0.3151
     14 O          57.3348   82.7191    7.0300 O.2     1  UNL1       -0.2502
     15 O          56.8012   84.4771    8.3918 O.3     1  UNL1       -0.4801
     16 H          56.7054   84.8694    9.3210 H       1  UNL1        0.2951
     17 C          58.3069   79.9171   10.0081 C.3     1  UNL1        0.2059
     18 O          59.6078   79.6651   10.5430 O.3     1  UNL1       -0.4754
     19 C          60.0411   79.9974   11.8372 C.ar    1  UNL1        0.1388
     20 C          59.0791   80.0834   12.8489 C.ar    1  UNL1        0.0369
     21 C          59.4504   80.4051   14.1553 C.ar    1  UNL1        0.0033
     22 C          60.7899   80.6482   14.4646 C.ar    1  UNL1        0.0066
     23 C          61.7749   80.5747   13.4641 C.ar    1  UNL1        0.0785
     24 C          61.3922   80.2516   12.1493 C.ar    1  UNL1        0.0433
     25 C          63.1961   80.8337   13.7867 C.2     1  UNL1        0.3381
     26 O          63.8689   81.6487   13.0988 O.2     1  UNL1       -0.2451
     27 O          63.8046   80.1797   14.8550 O.3     1  UNL1       -0.4771
     28 H          64.7765   80.3503   15.0843 H       1  UNL1        0.2954
     29 C          62.4825   88.9459   11.9471 C.2     1  UNL1        0.2839
     30 O          61.3353   88.9732   12.4684 O.2     1  UNL1       -0.2665
     31 N          62.7426   88.0826   10.8302 N.am    1  UNL1       -0.2766
     32 H          63.4306   88.4067   10.1143 H       1  UNL1        0.1553
     33 C          64.3086   88.6071   14.5951 C.3     1  UNL1        0.0345
     34 C          64.3101   89.7224   13.5936 C.ar    1  UNL1        0.0202
     35 C          63.5124   89.8710   12.4520 C.ar    1  UNL1        0.1946
     36 O          63.7969   91.0112   11.8476 O.2     1  UNL1       -0.4492
     37 C          64.7526   91.5989   12.5251 C.ar    1  UNL1        0.1452
     38 C          65.3649   92.8149   12.2422 C.ar    1  UNL1        0.0375
     39 C          66.3806   93.2593   13.1068 C.ar    1  UNL1        0.0031
     40 C          66.7670   92.4862   14.2352 C.ar    1  UNL1        0.0002
     41 C          66.1162   91.2546   14.4877 C.ar    1  UNL1        0.0028
     42 C          65.1130   90.8456   13.6089 C.ar    1  UNL1        0.0337
     43 C          67.8420   92.9647   15.1409 C.ar    1  UNL1        0.0000
     44 C          68.6205   92.0490   15.8743 C.ar    1  UNL1        0.0000
     45 C          69.6323   92.5024   16.7264 C.ar    1  UNL1        0.0000
     46 C          69.8792   93.8708   16.8554 C.ar    1  UNL1        0.0000
     47 C          69.1145   94.7893   16.1329 C.ar    1  UNL1        0.0000
     48 C          68.1007   94.3417   15.2801 C.ar    1  UNL1        0.0000
@<TRIPOS>BOND
     1    33    34    1
     2    34    35   ar
     3    35    29    1
     4    29    30    2
     5    29    31   am
     6    31     1    1
     7     1     2   ar
     8     2     3   ar
     9     3     4   ar
    10     4     7    1
    11     7     8    1
    12     8     9    1
    13     9    10    1
    14    10    17    1
    15    17    18    1
    16    18    19    1
    17    19    20   ar
    18    20    21   ar
    19    21    22   ar
    20    22    23   ar
    21    23    25    1
    22    25    26    2
    23    25    27    1
    24    23    24   ar
    25    10    11    1
    26    11    13    1
    27    13    14    2
    28    13    15    1
    29    11    12    1
    30     4     5   ar
    31     5     6   ar
    32    35    36   ar
    33    36    37   ar
    34    37    38   ar
    35    38    39   ar
    36    39    40   ar
    37    40    43    1
    38    43    44   ar
    39    44    45   ar
    40    45    46   ar
    41    46    47   ar
    42    47    48   ar
    43    40    41   ar
    44    41    42   ar
    45    42    34   ar
    46     6     1   ar
    47    42    37   ar
    48    12     7    1
    49    48    43   ar
    50    24    19   ar
    51    31    32    1
    52    27    28    1
    53    15    16    1
@<TRIPOS>MOLECULE
*****
 48 53 0 0 0
SMALL
GASTEIGER

@<TRIPOS>ATOM
      1 C          59.7406   88.5942    7.3234 C.ar    1  UNL1        0.0702
      2 C          59.0550   87.3779    7.4683 C.ar    1  UNL1        0.0191
      3 C          58.9564   86.7740    8.7228 C.ar    1  UNL1        0.0356
      4 C          59.5398   87.3945    9.8393 C.ar    1  UNL1        0.1318
      5 N          60.1757   88.5879    9.6778 N.ar    1  UNL1       -0.2279
      6 C          60.2833   89.1947    8.4665 C.ar    1  UNL1        0.1149
      7 N          59.4594   86.8024   11.1513 N.pl3   1  UNL1       -0.2927
      8 C          59.4444   85.3411   11.2881 C.3     1  UNL1        0.0923
      9 C          58.4234   84.9125   12.3458 C.3     1  UNL1        0.0258
     10 C          58.6123   85.6638   13.6810 C.3     1  UNL1        0.0577
     11 C          58.6416   87.2015   13.4634 C.3     1  UNL1        0.1222
     12 C          59.6430   87.6141   12.3630 C.3     1  UNL1        0.1033
     13 C          57.2503   87.7231   13.1788 C.2     1  UNL1        0.3151
     14 O          57.0691   88.9196   12.8272 O.2     1  UNL1       -0.2502
     15 O          56.1559   86.8654   13.2467 O.3     1  UNL1       -0.4801
     16 H          56.2684   85.8890   13.4925 H       1  UNL1        0.2951
     17 C          59.8613   85.1575   14.4402 C.3     1  UNL1        0.2059
     18 O          60.5100   86.2230   15.1372 O.3     1  UNL1       -0.4754
     19 C          61.8786   86.5326   15.0721 C.ar    1  UNL1        0.1388
     20 C          62.2517   87.8776   15.1613 C.ar    1  UNL1        0.0369
     21 C          63.5970   88.2456   15.1074 C.ar    1  UNL1        0.0033
     22 C          64.5858   87.2712   14.9601 C.ar    1  UNL1        0.0066
     23 C          64.2362   85.9131   14.8612 C.ar    1  UNL1        0.0785
     24 C          62.8778   85.5505   14.9146 C.ar    1  UNL1        0.0433
     25 C          65.2809   84.8766   14.7028 C.2     1  UNL1        0.3381
     26 O          64.9623   83.6640   14.5680 O.2     1  UNL1       -0.2451
     27 O          66.6277   85.2310   14.7001 O.3     1  UNL1       -0.4771
     28 H          67.3502   84.5293   14.5919 H       1  UNL1        0.2954
     29 C          59.3913   90.6014    5.8163 C.2     1  UNL1        0.2839
     30 O          58.4772   91.0940    6.5308 O.2     1  UNL1       -0.2665
     31 N          59.8416   89.2591    6.0524 N.am    1  UNL1       -0.2766
     32 H          60.1590   88.7002    5.2290 H       1  UNL1        0.1553
     33 C          62.3338   90.4203    4.4860 C.3     1  UNL1        0.0345
     34 C          61.1907   91.3146    4.1112 C.ar    1  UNL1        0.0202
     35 C          59.9199   91.3970    4.6943 C.ar    1  UNL1        0.1946
     36 O          59.2082   92.3356    4.0951 O.2     1  UNL1       -0.4492
     37 C          59.9431   92.8504    3.1398 C.ar    1  UNL1        0.1452
     38 C          59.5891   93.8603    2.2519 C.ar    1  UNL1        0.0375
     39 C          60.5381   94.2598    1.2946 C.ar    1  UNL1        0.0031
     40 C          61.8198   93.6477    1.2393 C.ar    1  UNL1        0.0002
     41 C          62.1399   92.6244    2.1636 C.ar    1  UNL1        0.0028
     42 C          61.1739   92.2540    3.0995 C.ar    1  UNL1        0.0337
     43 C          62.8138   94.0768    0.2231 C.ar    1  UNL1        0.0000
     44 C          62.4308   94.2623   -1.1191 C.ar    1  UNL1        0.0000
     45 C          63.3688   94.6666   -2.0740 C.ar    1  UNL1        0.0000
     46 C          64.6960   94.8910   -1.7017 C.ar    1  UNL1        0.0000
     47 C          65.0884   94.7112   -0.3736 C.ar    1  UNL1        0.0000
     48 C          64.1549   94.3060    0.5854 C.ar    1  UNL1        0.0000
@<TRIPOS>BOND
     1    33    34    1
     2    34    35   ar
     3    35    29    1
     4    29    30    2
     5    29    31   am
     6    31     1    1
     7     1     2   ar
     8     2     3   ar
     9     3     4   ar
    10     4     7    1
    11     7     8    1
    12     8     9    1
    13     9    10    1
    14    10    17    1
    15    17    18    1
    16    18    19    1
    17    19    20   ar
    18    20    21   ar
    19    21    22   ar
    20    22    23   ar
    21    23    25    1
    22    25    26    2
    23    25    27    1
    24    23    24   ar
    25    10    11    1
    26    11    13    1
    27    13    14    2
    28    13    15    1
    29    11    12    1
    30     4     5   ar
    31     5     6   ar
    32    35    36   ar
    33    36    37   ar
    34    37    38   ar
    35    38    39   ar
    36    39    40   ar
    37    40    43    1
    38    43    44   ar
    39    44    45   ar
    40    45    46   ar
    41    46    47   ar
    42    47    48   ar
    43    40    41   ar
    44    41    42   ar
    45    42    34   ar
    46     6     1   ar
    47    42    37   ar
    48    12     7    1
    49    48    43   ar
    50    24    19   ar
    51    31    32    1
    52    27    28    1
    53    15    16    1
@<TRIPOS>MOLECULE
*****
 48 53 0 0 0
SMALL
GASTEIGER

@<TRIPOS>ATOM
      1 C          60.2342   87.6505    8.3609 C.ar    1  UNL1        0.0702
      2 C          59.2403   87.2546    9.2696 C.ar    1  UNL1        0.0191
      3 C          59.5846   86.5388   10.4173 C.ar    1  UNL1        0.0356
      4 C          60.9315   86.2246   10.6610 C.ar    1  UNL1        0.1318
      5 N          61.8803   86.6437    9.7785 N.ar    1  UNL1       -0.2279
      6 C          61.5685   87.3424    8.6553 C.ar    1  UNL1        0.1149
      7 N          61.3270   85.4870   11.8348 N.pl3   1  UNL1       -0.2927
      8 C          60.2992   84.9216   12.7169 C.3     1  UNL1        0.0923
      9 C          60.6815   85.1269   14.1854 C.3     1  UNL1        0.0258
     10 C          62.1111   84.6326   14.4935 C.3     1  UNL1        0.0577
     11 C          63.1448   85.2499   13.5121 C.3     1  UNL1        0.1222
     12 C          62.7233   85.0742   12.0372 C.3     1  UNL1        0.1033
     13 C          63.3979   86.7019   13.8533 C.2     1  UNL1        0.3151
     14 O          63.8898   87.0267   14.9672 O.2     1  UNL1       -0.2502
     15 O          63.1423   87.6950   12.9119 O.3     1  UNL1       -0.4801
     16 H          62.7791   87.4674   11.9939 H       1  UNL1        0.2951
     17 C          62.1795   83.0874   14.5179 C.3     1  UNL1        0.2059
     18 O          60.8992   82.5089   14.2574 O.3     1  UNL1       -0.4754
     19 C          60.6219   81.5349   13.2839 C.ar    1  UNL1        0.1388
     20 C          59.3539   80.9445   13.2896 C.ar    1  UNL1        0.0369
     21 C          59.0190   79.9742   12.3439 C.ar    1  UNL1        0.0033
     22 C          59.9512   79.5801   11.3823 C.ar    1  UNL1        0.0066
     23 C          61.2347   80.1534   11.3598 C.ar    1  UNL1        0.0785
     24 C          61.5650   81.1296   12.3177 C.ar    1  UNL1        0.0433
     25 C          62.2271   79.7373   10.3435 C.2     1  UNL1        0.3381
     26 O          63.1106   80.5443    9.9457 O.2     1  UNL1       -0.2451
     27 O          62.1953   78.4486    9.8167 O.3     1  UNL1       -0.4771
     28 H          62.8703   78.1539    9.1212 H       1  UNL1        0.2954
     29 C          59.9554   89.8444    7.1235 C.2     1  UNL1        0.2839
     30 O          59.7893   90.5211    8.1739 O.2     1  UNL1       -0.2665
     31 N          59.9215   88.4106    7.1810 N.am    1  UNL1       -0.2766
     32 H          59.5437   87.8990    6.3524 H       1  UNL1        0.1553
     33 C          57.5967   90.9724    5.2195 C.3     1  UNL1        0.0345
     34 C          59.0800   91.0497    5.0176 C.ar    1  UNL1        0.0202
     35 C          60.0995   90.5531    5.8396 C.ar    1  UNL1        0.1946
     36 O          61.2782   90.7962    5.2939 O.2     1  UNL1       -0.4492
     37 C          61.0773   91.4441    4.1725 C.ar    1  UNL1        0.1452
     38 C          62.0376   91.9069    3.2797 C.ar    1  UNL1        0.0375
     39 C          61.5972   92.5875    2.1309 C.ar    1  UNL1        0.0031
     40 C          60.2111   92.7941    1.8928 C.ar    1  UNL1        0.0002
     41 C          59.2666   92.3047    2.8268 C.ar    1  UNL1        0.0028
     42 C          59.7398   91.6339    3.9548 C.ar    1  UNL1        0.0337
     43 C          59.7574   93.5155    0.6768 C.ar    1  UNL1        0.0000
     44 C          58.4051   93.8751    0.5206 C.ar    1  UNL1        0.0000
     45 C          57.9806   94.5544   -0.6254 C.ar    1  UNL1        0.0000
     46 C          58.8981   94.8831   -1.6257 C.ar    1  UNL1        0.0000
     47 C          60.2423   94.5326   -1.4825 C.ar    1  UNL1        0.0000
     48 C          60.6723   93.8523   -0.3390 C.ar    1  UNL1        0.0000
@<TRIPOS>BOND
     1    33    34    1
     2    34    35   ar
     3    35    29    1
     4    29    30    2
     5    29    31   am
     6    31     1    1
     7     1     2   ar
     8     2     3   ar
     9     3     4   ar
    10     4     7    1
    11     7     8    1
    12     8     9    1
    13     9    10    1
    14    10    17    1
    15    17    18    1
    16    18    19    1
    17    19    20   ar
    18    20    21   ar
    19    21    22   ar
    20    22    23   ar
    21    23    25    1
    22    25    26    2
    23    25    27    1
    24    23    24   ar
    25    10    11    1
    26    11    13    1
    27    13    14    2
    28    13    15    1
    29    11    12    1
    30     4     5   ar
    31     5     6   ar
    32    35    36   ar
    33    36    37   ar
    34    37    38   ar
    35    38    39   ar
    36    39    40   ar
    37    40    43    1
    38    43    44   ar
    39    44    45   ar
    40    45    46   ar
    41    46    47   ar
    42    47    48   ar
    43    40    41   ar
    44    41    42   ar
    45    42    34   ar
    46     6     1   ar
    47    42    37   ar
    48    12     7    1
    49    48    43   ar
    50    24    19   ar
    51    31    32    1
    52    27    28    1
    53    15    16    1
@<TRIPOS>MOLECULE
*****
 48 53 0 0 0
SMALL
GASTEIGER

@<TRIPOS>ATOM
      1 C          60.1872   87.7653    8.5222 C.ar    1  UNL1        0.0702
      2 C          60.9045   86.5749    8.3249 C.ar    1  UNL1        0.0191
      3 C          61.2712   85.7882    9.4179 C.ar    1  UNL1        0.0356
      4 C          60.9113   86.1906   10.7143 C.ar    1  UNL1        0.1318
      5 N          60.1916   87.3352   10.8775 N.ar    1  UNL1       -0.2279
      6 C          59.8228   88.1163    9.8283 C.ar    1  UNL1        0.1149
      7 N          61.2714   85.4053   11.8684 N.pl3   1  UNL1       -0.2927
      8 C          60.2243   84.9451   12.7883 C.3     1  UNL1        0.0923
      9 C          60.6835   85.0962   14.2413 C.3     1  UNL1        0.0258
     10 C          62.0631   84.4500   14.4902 C.3     1  UNL1        0.0577
     11 C          63.1176   84.9620   13.4711 C.3     1  UNL1        0.1222
     12 C          62.6225   84.8445   12.0134 C.3     1  UNL1        0.1033
     13 C          63.5373   86.3759   13.8081 C.2     1  UNL1        0.3151
     14 O          64.0387   86.6497   14.9314 O.2     1  UNL1       -0.2502
     15 O          63.4267   87.3831   12.8536 O.3     1  UNL1       -0.4801
     16 H          63.0602   87.1920   11.9286 H       1  UNL1        0.2951
     17 C          61.9672   82.9061   14.5055 C.3     1  UNL1        0.2059
     18 O          62.6192   82.3363   13.3688 O.3     1  UNL1       -0.4754
     19 C          62.0219   81.4922   12.4180 C.ar    1  UNL1        0.1388
     20 C          62.7507   81.1843   11.2647 C.ar    1  UNL1        0.0369
     21 C          62.2110   80.3472   10.2870 C.ar    1  UNL1        0.0033
     22 C          60.9327   79.8103   10.4503 C.ar    1  UNL1        0.0066
     23 C          60.1772   80.1102   11.5974 C.ar    1  UNL1        0.0785
     24 C          60.7277   80.9563   12.5775 C.ar    1  UNL1        0.0433
     25 C          58.8206   79.5451   11.7741 C.2     1  UNL1        0.3381
     26 O          58.4876   79.0138   12.8680 O.2     1  UNL1       -0.2451
     27 O          57.8973   79.5956   10.7327 O.3     1  UNL1       -0.4771
     28 H          56.9663   79.2122   10.8437 H       1  UNL1        0.2954
     29 C          60.1578   89.9614    7.2578 C.2     1  UNL1        0.2839
     30 O          60.4690   90.6512    8.2658 O.2     1  UNL1       -0.2665
     31 N          59.7700   88.5889    7.4198 N.am    1  UNL1       -0.2766
     32 H          59.0592   88.2027    6.7589 H       1  UNL1        0.1553
     33 C          57.5526   90.6310    5.4617 C.3     1  UNL1        0.0345
     34 C          58.9940   90.9120    5.1611 C.ar    1  UNL1        0.0202
     35 C          60.1212   90.6136    5.9369 C.ar    1  UNL1        0.1946
     36 O          61.2176   90.9958    5.3059 O.2     1  UNL1       -0.4492
     37 C          60.8589   91.5465    4.1720 C.ar    1  UNL1        0.1452
     38 C          61.6871   92.0953    3.1993 C.ar    1  UNL1        0.0375
     39 C          61.0855   92.6421    2.0522 C.ar    1  UNL1        0.0031
     40 C          59.6728   92.6320    1.8951 C.ar    1  UNL1        0.0002
     41 C          58.8664   92.0614    2.9090 C.ar    1  UNL1        0.0028
     42 C          59.4978   91.5280    4.0329 C.ar    1  UNL1        0.0337
     43 C          59.0482   93.2135    0.6799 C.ar    1  UNL1        0.0000
     44 C          57.8722   92.6557    0.1428 C.ar    1  UNL1        0.0000
     45 C          57.2861   93.2053   -1.0015 C.ar    1  UNL1        0.0000
     46 C          57.8640   94.3156   -1.6209 C.ar    1  UNL1        0.0000
     47 C          59.0300   94.8786   -1.0976 C.ar    1  UNL1        0.0000
     48 C          59.6211   94.3325    0.0459 C.ar    1  UNL1        0.0000
@<TRIPOS>BOND
     1    33    34    1
     2    34    35   ar
     3    35    29    1
     4    29    30    2
     5    29    31   am
     6    31     1    1
     7     1     2   ar
     8     2     3   ar
     9     3     4   ar
    10     4     7    1
    11     7     8    1
    12     8     9    1
    13     9    10    1
    14    10    17    1
    15    17    18    1
    16    18    19    1
    17    19    20   ar
    18    20    21   ar
    19    21    22   ar
    20    22    23   ar
    21    23    25    1
    22    25    26    2
    23    25    27    1
    24    23    24   ar
    25    10    11    1
    26    11    13    1
    27    13    14    2
    28    13    15    1
    29    11    12    1
    30     4     5   ar
    31     5     6   ar
    32    35    36   ar
    33    36    37   ar
    34    37    38   ar
    35    38    39   ar
    36    39    40   ar
    37    40    43    1
    38    43    44   ar
    39    44    45   ar
    40    45    46   ar
    41    46    47   ar
    42    47    48   ar
    43    40    41   ar
    44    41    42   ar
    45    42    34   ar
    46     6     1   ar
    47    42    37   ar
    48    12     7    1
    49    48    43   ar
    50    24    19   ar
    51    31    32    1
    52    27    28    1
    53    15    16    1
@<TRIPOS>MOLECULE
*****
 48 53 0 0 0
SMALL
GASTEIGER

@<TRIPOS>ATOM
      1 C          62.0953   87.4997   10.4631 C.ar    1  UNL1        0.0702
      2 C          62.3105   86.2700   11.1048 C.ar    1  UNL1        0.0191
      3 C          61.5832   85.1423   10.7208 C.ar    1  UNL1        0.0356
      4 C          60.6416   85.2439    9.6839 C.ar    1  UNL1        0.1318
      5 N          60.4708   86.4414    9.0583 N.ar    1  UNL1       -0.2279
      6 C          61.1682   87.5522    9.4145 C.ar    1  UNL1        0.1149
      7 N          59.8710   84.1021    9.2587 N.pl3   1  UNL1       -0.2927
      8 C          60.3924   83.2279    8.2011 C.3     1  UNL1        0.0923
      9 C          59.2742   82.8341    7.2319 C.3     1  UNL1        0.0258
     10 C          58.0393   82.2643    7.9621 C.3     1  UNL1        0.0577
     11 C          57.5528   83.2255    9.0812 C.3     1  UNL1        0.1222
     12 C          58.7002   83.6490   10.0235 C.3     1  UNL1        0.1033
     13 C          56.8490   84.4232    8.4819 C.2     1  UNL1        0.3151
     14 O          55.6066   84.4030    8.2718 O.2     1  UNL1       -0.2502
     15 O          57.5618   85.5874    8.2092 O.3     1  UNL1       -0.4801
     16 H          58.5553   85.6511    8.3976 H       1  UNL1        0.2951
     17 C          58.3088   80.8371    8.4946 C.3     1  UNL1        0.2059
     18 O          57.9030   80.7090    9.8587 O.3     1  UNL1       -0.4754
     19 C          58.7528   80.4469   10.9461 C.ar    1  UNL1        0.1388
     20 C          60.1041   80.7846   10.8187 C.ar    1  UNL1        0.0369
     21 C          60.9952   80.5523   11.8674 C.ar    1  UNL1        0.0033
     22 C          60.5450   79.9754   13.0563 C.ar    1  UNL1        0.0066
     23 C          59.1929   79.6206   13.2066 C.ar    1  UNL1        0.0785
     24 C          58.3013   79.8565   12.1441 C.ar    1  UNL1        0.0433
     25 C          58.7112   79.0068   14.4645 C.2     1  UNL1        0.3381
     26 O          58.6212   77.7535   14.5698 O.2     1  UNL1       -0.2451
     27 O          58.3532   79.8085   15.5455 O.3     1  UNL1       -0.4771
     28 H          58.0229   79.3982   16.4107 H       1  UNL1        0.2954
     29 C          62.6461   89.4145   12.0291 C.2     1  UNL1        0.2839
     30 O          61.5312   89.3762   12.6157 O.2     1  UNL1       -0.2665
     31 N          62.8429   88.6771   10.8134 N.am    1  UNL1       -0.2766
     32 H          63.4871   89.0815   10.0977 H       1  UNL1        0.1553
     33 C          64.4903   88.8997   14.6360 C.3     1  UNL1        0.0345
     34 C          64.5068   90.0650   13.6932 C.ar    1  UNL1        0.0202
     35 C          63.7014   90.2897   12.5696 C.ar    1  UNL1        0.1946
     36 O          64.0053   91.4531   12.0216 O.2     1  UNL1       -0.4492
     37 C          64.9805   91.9840   12.7177 C.ar    1  UNL1        0.1452
     38 C          65.6169   93.1994   12.4910 C.ar    1  UNL1        0.0375
     39 C          66.6508   93.5763   13.3660 C.ar    1  UNL1        0.0031
     40 C          67.0310   92.7377   14.4489 C.ar    1  UNL1        0.0002
     41 C          66.3554   91.5092   14.6450 C.ar    1  UNL1        0.0028
     42 C          65.3346   91.1681   13.7574 C.ar    1  UNL1        0.0337
     43 C          68.1253   93.1454   15.3661 C.ar    1  UNL1        0.0000
     44 C          68.8852   92.1764   16.0489 C.ar    1  UNL1        0.0000
     45 C          69.9152   92.5630   16.9120 C.ar    1  UNL1        0.0000
     46 C          70.1991   93.9171   17.1023 C.ar    1  UNL1        0.0000
     47 C          69.4531   94.8879   16.4304 C.ar    1  UNL1        0.0000
     48 C          68.4213   94.5071   15.5670 C.ar    1  UNL1        0.0000
@<TRIPOS>BOND
     1    33    34    1
     2    34    35   ar
     3    35    29    1
     4    29    30    2
     5    29    31   am
     6    31     1    1
     7     1     2   ar
     8     2     3   ar
     9     3     4   ar
    10     4     7    1
    11     7     8    1
    12     8     9    1
    13     9    10    1
    14    10    17    1
    15    17    18    1
    16    18    19    1
    17    19    20   ar
    18    20    21   ar
    19    21    22   ar
    20    22    23   ar
    21    23    25    1
    22    25    26    2
    23    25    27    1
    24    23    24   ar
    25    10    11    1
    26    11    13    1
    27    13    14    2
    28    13    15    1
    29    11    12    1
    30     4     5   ar
    31     5     6   ar
    32    35    36   ar
    33    36    37   ar
    34    37    38   ar
    35    38    39   ar
    36    39    40   ar
    37    40    43    1
    38    43    44   ar
    39    44    45   ar
    40    45    46   ar
    41    46    47   ar
    42    47    48   ar
    43    40    41   ar
    44    41    42   ar
    45    42    34   ar
    46     6     1   ar
    47    42    37   ar
    48    12     7    1
    49    48    43   ar
    50    24    19   ar
    51    31    32    1
    52    27    28    1
    53    15    16    1
