@<TRIPOS>MOLECULE
*****
 45 51 0 0 0
SMALL
GASTEIGER

@<TRIPOS>ATOM
      1 N          63.0470   89.4845   11.6427 N.am    1  UNL1       -0.0905
      2 C          63.2967   90.4398   10.6823 C.2     1  UNL1        0.4229
      3 O          62.9353   90.2638    9.4852 O.2     1  UNL1       -0.2135
      4 C          63.9138   91.6435   11.0152 C.2     1  UNL1        0.1157
      5 C          64.2157   91.9168   12.3387 C.2     1  UNL1        0.0173
      6 C          63.9915   90.9477   13.3164 C.ar    1  UNL1        0.0828
      7 C          64.2349   91.2485   14.6594 C.ar    1  UNL1        0.1047
      8 N          64.0379   90.3117   15.6150 N.ar    1  UNL1       -0.2434
      9 C          63.6732   89.0416   15.3124 C.ar    1  UNL1        0.0870
     10 C          63.5650   88.1068   16.3460 C.ar    1  UNL1        0.0193
     11 C          63.3258   86.7647   16.0608 C.ar    1  UNL1        0.0016
     12 C          63.2412   86.3284   14.7313 C.ar    1  UNL1        0.0018
     13 C          63.3419   87.2727   13.6936 C.ar    1  UNL1        0.0075
     14 C          63.4646   88.6552   13.9624 C.ar    1  UNL1        0.0810
     15 C          63.4964   89.6687   12.9459 C.ar    1  UNL1        0.2297
     16 C          63.0623   84.8865   14.4190 C.ar    1  UNL1        0.0192
     17 C          62.7624   83.9675   15.4393 C.ar    1  UNL1        0.0988
     18 N          62.5957   82.6492   15.1558 N.ar    1  UNL1       -0.2438
     19 C          62.7091   82.1678   13.8911 C.ar    1  UNL1        0.0813
     20 C          62.5294   80.8027   13.6405 C.ar    1  UNL1        0.0191
     21 C          62.6460   80.3105   12.3369 C.ar    1  UNL1        0.0015
     22 C          62.9419   81.1791   11.2811 C.ar    1  UNL1        0.0001
     23 C          63.1236   82.5449   11.5227 C.ar    1  UNL1        0.0015
     24 C          63.0095   83.0468   12.8282 C.ar    1  UNL1        0.0177
     25 C          63.1852   84.4093   13.1025 C.ar    1  UNL1        0.0030
     26 C          60.2638   86.4277   10.6151 C.ar    1  UNL1        0.0522
     27 C          59.8933   87.4750   11.4701 C.ar    1  UNL1        0.0206
     28 C          60.8076   88.4694   11.8123 C.ar    1  UNL1        0.0703
     29 C          62.1090   88.4405   11.2963 C.ar    1  UNL1        0.2271
     30 C          62.4820   87.4062   10.4225 C.ar    1  UNL1        0.0742
     31 C          61.5832   86.3706   10.1001 C.ar    1  UNL1        0.0906
     32 C          57.9407   81.6923    9.0916 C.2     1  UNL1        0.2257
     33 O          57.9575   81.3984    7.8646 O.2     1  UNL1       -0.2749
     34 N          58.0435   83.0806    9.4903 N.am    1  UNL1       -0.2760
     35 C          57.7796   83.5387   10.8653 C.3     1  UNL1        0.1148
     36 C          58.9175   84.4469   11.3378 C.3     1  UNL1        0.1123
     37 N          59.2948   85.4165   10.3015 N.pl3   1  UNL1       -0.3041
     38 C          58.5427   85.4870    9.0459 C.3     1  UNL1        0.1123
     39 C          58.3764   84.0795    8.4578 C.3     1  UNL1        0.1148
     40 C          59.2416   80.2963   10.7075 C.3     1  UNL1        0.0101
     41 C          57.8735   80.5599   10.0830 C.3     1  UNL1        0.0853
     42 C          62.0274   85.2516    9.1802 C.3     1  UNL1        0.4199
     43 F          61.5962   85.4823    7.8867 F       1  UNL1       -0.1658
     44 F          63.4065   85.1656    9.1928 F       1  UNL1       -0.1658
     45 F          61.5076   84.0334    9.5837 F       1  UNL1       -0.1658
@<TRIPOS>BOND
     1    40    41    1
     2    41    32    1
     3    32    33    2
     4    32    34   am
     5    34    35    1
     6    35    36    1
     7    36    37    1
     8    37    26    1
     9    26    27   ar
    10    27    28   ar
    11    28    29   ar
    12    29     1    1
    13     1     2    1
    14     2     3    2
    15     2     4    1
    16     4     5    2
    17     5     6    1
    18     6     7   ar
    19     7     8   ar
    20     8     9   ar
    21     9    10   ar
    22    10    11   ar
    23    11    12   ar
    24    12    16    1
    25    16    17   ar
    26    17    18   ar
    27    18    19   ar
    28    19    20   ar
    29    20    21   ar
    30    21    22   ar
    31    22    23   ar
    32    23    24   ar
    33    24    25   ar
    34    12    13   ar
    35    13    14   ar
    36    14    15   ar
    37    29    30   ar
    38    30    31   ar
    39    31    42    1
    40    42    43    1
    41    42    44    1
    42    42    45    1
    43    37    38    1
    44    38    39    1
    45    39    34    1
    46    31    26   ar
    47    15     1    1
    48    15     6   ar
    49    14     9   ar
    50    25    16   ar
    51    24    19   ar
@<TRIPOS>MOLECULE
*****
 45 51 0 0 0
SMALL
GASTEIGER

@<TRIPOS>ATOM
      1 N          63.1756   89.3246   12.5545 N.am    1  UNL1       -0.0905
      2 C          63.5334   90.3411   11.6966 C.2     1  UNL1        0.4229
      3 O          63.3605   90.2273   10.4509 O.2     1  UNL1       -0.2135
      4 C          64.0531   91.5380   12.1841 C.2     1  UNL1        0.1157
      5 C          64.1451   91.7399   13.5509 C.2     1  UNL1        0.0173
      6 C          63.8103   90.7093   14.4291 C.ar    1  UNL1        0.0828
      7 C          63.8406   90.9360   15.8079 C.ar    1  UNL1        0.1047
      8 N          63.5350   89.9396   16.6701 N.ar    1  UNL1       -0.2434
      9 C          63.2623   88.6809   16.2468 C.ar    1  UNL1        0.0870
     10 C          63.0328   87.6841   17.1995 C.ar    1  UNL1        0.0193
     11 C          62.8840   86.3558   16.8084 C.ar    1  UNL1        0.0016
     12 C          63.0132   85.9970   15.4594 C.ar    1  UNL1        0.0018
     13 C          63.2357   87.0033   14.5021 C.ar    1  UNL1        0.0075
     14 C          63.2704   88.3701   14.8617 C.ar    1  UNL1        0.0810
     15 C          63.4193   89.4425   13.9187 C.ar    1  UNL1        0.2297
     16 C          62.9314   84.5721   15.0451 C.ar    1  UNL1        0.0192
     17 C          64.0291   83.7128   15.2249 C.ar    1  UNL1        0.0988
     18 N          63.9558   82.4092   14.8494 N.ar    1  UNL1       -0.2438
     19 C          62.8336   81.8855   14.2921 C.ar    1  UNL1        0.0813
     20 C          62.7981   80.5370   13.9195 C.ar    1  UNL1        0.0191
     21 C          61.6406   80.0007   13.3468 C.ar    1  UNL1        0.0015
     22 C          60.5167   80.8086   13.1449 C.ar    1  UNL1        0.0001
     23 C          60.5437   82.1576   13.5140 C.ar    1  UNL1        0.0015
     24 C          61.7017   82.7039   14.0883 C.ar    1  UNL1        0.0177
     25 C          61.7599   84.0508   14.4690 C.ar    1  UNL1        0.0030
     26 C          60.6895   86.2640   10.9425 C.ar    1  UNL1        0.0522
     27 C          60.1588   87.5203   11.2671 C.ar    1  UNL1        0.0206
     28 C          60.9716   88.5175   11.8026 C.ar    1  UNL1        0.0703
     29 C          62.3353   88.2798   12.0140 C.ar    1  UNL1        0.2271
     30 C          62.8792   87.0310   11.6720 C.ar    1  UNL1        0.0742
     31 C          62.0633   85.9985   11.1694 C.ar    1  UNL1        0.0906
     32 C          58.5468   81.4322    9.4577 C.2     1  UNL1        0.2257
     33 O          59.0689   80.8356    8.4761 O.2     1  UNL1       -0.2749
     34 N          58.6909   82.8685    9.5735 N.am    1  UNL1       -0.2760
     35 C          57.9134   83.6750   10.5300 C.3     1  UNL1        0.1148
     36 C          58.8480   84.6095   11.3023 C.3     1  UNL1        0.1123
     37 N          59.8130   85.2613   10.4077 N.pl3   1  UNL1       -0.3041
     38 C          59.7373   85.0515    8.9594 C.3     1  UNL1        0.1123
     39 C          59.6203   83.5521    8.6551 C.3     1  UNL1        0.1148
     40 C          58.7064   79.4043   10.9117 C.3     1  UNL1        0.0101
     41 C          57.8459   80.5947   10.4954 C.3     1  UNL1        0.0853
     42 C          62.6752   84.6518   10.8411 C.3     1  UNL1        0.4199
     43 F          63.0493   84.5965    9.5110 F       1  UNL1       -0.1658
     44 F          63.7862   84.4450   11.6364 F       1  UNL1       -0.1658
     45 F          61.7762   83.6233   11.0662 F       1  UNL1       -0.1658
@<TRIPOS>BOND
     1    40    41    1
     2    41    32    1
     3    32    33    2
     4    32    34   am
     5    34    35    1
     6    35    36    1
     7    36    37    1
     8    37    26    1
     9    26    27   ar
    10    27    28   ar
    11    28    29   ar
    12    29     1    1
    13     1     2    1
    14     2     3    2
    15     2     4    1
    16     4     5    2
    17     5     6    1
    18     6     7   ar
    19     7     8   ar
    20     8     9   ar
    21     9    10   ar
    22    10    11   ar
    23    11    12   ar
    24    12    16    1
    25    16    17   ar
    26    17    18   ar
    27    18    19   ar
    28    19    20   ar
    29    20    21   ar
    30    21    22   ar
    31    22    23   ar
    32    23    24   ar
    33    24    25   ar
    34    12    13   ar
    35    13    14   ar
    36    14    15   ar
    37    29    30   ar
    38    30    31   ar
    39    31    42    1
    40    42    43    1
    41    42    44    1
    42    42    45    1
    43    37    38    1
    44    38    39    1
    45    39    34    1
    46    31    26   ar
    47    15     1    1
    48    15     6   ar
    49    14     9   ar
    50    25    16   ar
    51    24    19   ar
@<TRIPOS>MOLECULE
*****
 45 51 0 0 0
SMALL
GASTEIGER

@<TRIPOS>ATOM
      1 N          62.9336   88.7513   14.8938 N.am    1  UNL1       -0.0905
      2 C          63.1005   88.9953   16.2391 C.2     1  UNL1        0.4229
      3 O          62.8132   88.1144   17.0970 O.2     1  UNL1       -0.2135
      4 C          63.6326   90.2028   16.6858 C.2     1  UNL1        0.1157
      5 C          64.0673   91.1428   15.7666 C.2     1  UNL1        0.0173
      6 C          63.8803   90.9185   14.4028 C.ar    1  UNL1        0.0828
      7 C          64.3784   91.8370   13.4744 C.ar    1  UNL1        0.1047
      8 N          64.1882   91.6395   12.1499 N.ar    1  UNL1       -0.2434
      9 C          63.4571   90.6012   11.6753 C.ar    1  UNL1        0.0870
     10 C          63.2368   90.5054   10.2983 C.ar    1  UNL1        0.0193
     11 C          62.3809   89.5328    9.7871 C.ar    1  UNL1        0.0016
     12 C          61.6919   88.6717   10.6524 C.ar    1  UNL1        0.0018
     13 C          61.9221   88.7649   12.0370 C.ar    1  UNL1        0.0075
     14 C          62.8757   89.6632   12.5682 C.ar    1  UNL1        0.0810
     15 C          63.2050   89.7485   13.9631 C.ar    1  UNL1        0.2297
     16 C          60.7196   87.6827   10.1183 C.ar    1  UNL1        0.0192
     17 C          60.4629   87.6083    8.7384 C.ar    1  UNL1        0.0988
     18 N          59.5765   86.7032    8.2475 N.ar    1  UNL1       -0.2438
     19 C          58.9090   85.8414    9.0572 C.ar    1  UNL1        0.0813
     20 C          58.0043   84.9233    8.5120 C.ar    1  UNL1        0.0191
     21 C          57.3193   84.0366    9.3487 C.ar    1  UNL1        0.0015
     22 C          57.5357   84.0642   10.7304 C.ar    1  UNL1        0.0001
     23 C          58.4378   84.9789   11.2838 C.ar    1  UNL1        0.0015
     24 C          59.1284   85.8730   10.4513 C.ar    1  UNL1        0.0177
     25 C          60.0386   86.8004   10.9748 C.ar    1  UNL1        0.0030
     26 C          62.2712   84.7107   13.7184 C.ar    1  UNL1        0.0522
     27 C          61.1940   85.5899   13.8970 C.ar    1  UNL1        0.0206
     28 C          61.4119   86.9090   14.2901 C.ar    1  UNL1        0.0703
     29 C          62.7144   87.3771   14.5021 C.ar    1  UNL1        0.2271
     30 C          63.8004   86.5086   14.3051 C.ar    1  UNL1        0.0742
     31 C          63.5952   85.1613   13.9490 C.ar    1  UNL1        0.0906
     32 C          59.6844   80.1332   12.1384 C.2     1  UNL1        0.2257
     33 O          58.9695   79.5389   12.9915 O.2     1  UNL1       -0.2749
     34 N          60.7613   80.9903   12.5884 N.am    1  UNL1       -0.2760
     35 C          61.7961   81.5163   11.6814 C.3     1  UNL1        0.1148
     36 C          61.9609   83.0224   11.8986 C.3     1  UNL1        0.1123
     37 N          62.0000   83.3566   13.3280 N.pl3   1  UNL1       -0.3041
     38 C          61.9788   82.2938   14.3366 C.3     1  UNL1        0.1123
     39 C          60.8485   81.3032   14.0268 C.3     1  UNL1        0.1148
     40 C          57.8888   80.3809   10.4160 C.3     1  UNL1        0.0101
     41 C          59.3314   79.9591   10.6842 C.3     1  UNL1        0.0853
     42 C          64.7870   84.2417   13.7761 C.3     1  UNL1        0.4199
     43 F          64.8997   83.8301   12.4608 F       1  UNL1       -0.1658
     44 F          65.9398   84.9078   14.1460 F       1  UNL1       -0.1658
     45 F          64.6641   83.1074   14.5606 F       1  UNL1       -0.1658
@<TRIPOS>BOND
     1    40    41    1
     2    41    32    1
     3    32    33    2
     4    32    34   am
     5    34    35    1
     6    35    36    1
     7    36    37    1
     8    37    26    1
     9    26    27   ar
    10    27    28   ar
    11    28    29   ar
    12    29     1    1
    13     1     2    1
    14     2     3    2
    15     2     4    1
    16     4     5    2
    17     5     6    1
    18     6     7   ar
    19     7     8   ar
    20     8     9   ar
    21     9    10   ar
    22    10    11   ar
    23    11    12   ar
    24    12    16    1
    25    16    17   ar
    26    17    18   ar
    27    18    19   ar
    28    19    20   ar
    29    20    21   ar
    30    21    22   ar
    31    22    23   ar
    32    23    24   ar
    33    24    25   ar
    34    12    13   ar
    35    13    14   ar
    36    14    15   ar
    37    29    30   ar
    38    30    31   ar
    39    31    42    1
    40    42    43    1
    41    42    44    1
    42    42    45    1
    43    37    38    1
    44    38    39    1
    45    39    34    1
    46    31    26   ar
    47    15     1    1
    48    15     6   ar
    49    14     9   ar
    50    25    16   ar
    51    24    19   ar
@<TRIPOS>MOLECULE
*****
 45 51 0 0 0
SMALL
GASTEIGER

@<TRIPOS>ATOM
      1 N          63.7131   90.1760   15.0700 N.am    1  UNL1       -0.0905
      2 C          63.7266   90.3330   16.4383 C.2     1  UNL1        0.4229
      3 O          63.2042   89.4668   17.1942 O.2     1  UNL1       -0.2135
      4 C          64.3559   91.4282   17.0258 C.2     1  UNL1        0.1157
      5 C          65.0396   92.3338   16.2321 C.2     1  UNL1        0.0173
      6 C          65.0116   92.2000   14.8440 C.ar    1  UNL1        0.0828
      7 C          65.7556   93.0755   14.0480 C.ar    1  UNL1        0.1047
      8 N          65.7231   92.9669   12.7002 N.ar    1  UNL1       -0.2434
      9 C          64.9260   92.0694   12.0701 C.ar    1  UNL1        0.0870
     10 C          64.8852   92.0680   10.6729 C.ar    1  UNL1        0.0193
     11 C          63.9800   91.2554    9.9947 C.ar    1  UNL1        0.0016
     12 C          63.0653   90.4675   10.7073 C.ar    1  UNL1        0.0018
     13 C          63.1144   90.4645   12.1131 C.ar    1  UNL1        0.0075
     14 C          64.1024   91.1884   12.8191 C.ar    1  UNL1        0.0810
     15 C          64.2461   91.1626   14.2474 C.ar    1  UNL1        0.2297
     16 C          62.0468   89.6568    9.9903 C.ar    1  UNL1        0.0192
     17 C          60.8480   90.2441    9.5505 C.ar    1  UNL1        0.0988
     18 N          59.9166   89.5056    8.8925 N.ar    1  UNL1       -0.2438
     19 C          60.1005   88.1854    8.6333 C.ar    1  UNL1        0.0813
     20 C          59.1167   87.4598    7.9519 C.ar    1  UNL1        0.0191
     21 C          59.3098   86.1006    7.6859 C.ar    1  UNL1        0.0015
     22 C          60.4844   85.4631    8.0989 C.ar    1  UNL1        0.0001
     23 C          61.4727   86.1807    8.7809 C.ar    1  UNL1        0.0015
     24 C          61.2863   87.5447    9.0529 C.ar    1  UNL1        0.0177
     25 C          62.2573   88.2909    9.7333 C.ar    1  UNL1        0.0030
     26 C          62.6814   86.3090   13.6110 C.ar    1  UNL1        0.0522
     27 C          63.9558   86.5581   14.1390 C.ar    1  UNL1        0.0206
     28 C          64.2947   87.8260   14.6078 C.ar    1  UNL1        0.0703
     29 C          63.3598   88.8676   14.5667 C.ar    1  UNL1        0.2271
     30 C          62.0739   88.6211   14.0585 C.ar    1  UNL1        0.0742
     31 C          61.7292   87.3567   13.5420 C.ar    1  UNL1        0.0906
     32 C          60.3325   82.1143   10.9597 C.2     1  UNL1        0.2257
     33 O          59.2108   81.7122   11.3745 O.2     1  UNL1       -0.2749
     34 N          61.2163   82.8137   11.8690 N.am    1  UNL1       -0.2760
     35 C          62.6285   83.0917   11.5552 C.3     1  UNL1        0.1148
     36 C          62.9443   84.5622   11.8396 C.3     1  UNL1        0.1123
     37 N          62.3804   84.9925   13.1253 N.pl3   1  UNL1       -0.3041
     38 C          61.7049   84.0271   13.9966 C.3     1  UNL1        0.1123
     39 C          60.6862   83.2158   13.1850 C.3     1  UNL1        0.1148
     40 C          59.3965   81.8323    8.6583 C.3     1  UNL1        0.0101
     41 C          60.6642   81.8912    9.5072 C.3     1  UNL1        0.0853
     42 C          60.3438   87.1326   12.9707 C.3     1  UNL1        0.4199
     43 F          59.5282   86.5097   13.8974 F       1  UNL1       -0.1658
     44 F          59.7889   88.3482   12.6188 F       1  UNL1       -0.1658
     45 F          60.3889   86.3280   11.8449 F       1  UNL1       -0.1658
@<TRIPOS>BOND
     1    40    41    1
     2    41    32    1
     3    32    33    2
     4    32    34   am
     5    34    35    1
     6    35    36    1
     7    36    37    1
     8    37    26    1
     9    26    27   ar
    10    27    28   ar
    11    28    29   ar
    12    29     1    1
    13     1     2    1
    14     2     3    2
    15     2     4    1
    16     4     5    2
    17     5     6    1
    18     6     7   ar
    19     7     8   ar
    20     8     9   ar
    21     9    10   ar
    22    10    11   ar
    23    11    12   ar
    24    12    16    1
    25    16    17   ar
    26    17    18   ar
    27    18    19   ar
    28    19    20   ar
    29    20    21   ar
    30    21    22   ar
    31    22    23   ar
    32    23    24   ar
    33    24    25   ar
    34    12    13   ar
    35    13    14   ar
    36    14    15   ar
    37    29    30   ar
    38    30    31   ar
    39    31    42    1
    40    42    43    1
    41    42    44    1
    42    42    45    1
    43    37    38    1
    44    38    39    1
    45    39    34    1
    46    31    26   ar
    47    15     1    1
    48    15     6   ar
    49    14     9   ar
    50    25    16   ar
    51    24    19   ar
@<TRIPOS>MOLECULE
*****
 45 51 0 0 0
SMALL
GASTEIGER

@<TRIPOS>ATOM
      1 N          63.7061   90.2197   15.1491 N.am    1  UNL1       -0.0905
      2 C          63.7050   90.3933   16.5155 C.2     1  UNL1        0.4229
      3 O          63.1571   89.5463   17.2750 O.2     1  UNL1       -0.2135
      4 C          64.3469   91.4840   17.0977 C.2     1  UNL1        0.1157
      5 C          65.0572   92.3671   16.3020 C.2     1  UNL1        0.0173
      6 C          65.0445   92.2167   14.9155 C.ar    1  UNL1        0.0828
      7 C          65.8146   93.0685   14.1187 C.ar    1  UNL1        0.1047
      8 N          65.7973   92.9439   12.7719 N.ar    1  UNL1       -0.2434
      9 C          64.9920   92.0534   12.1425 C.ar    1  UNL1        0.0870
     10 C          64.9690   92.0354   10.7450 C.ar    1  UNL1        0.0193
     11 C          64.0577   91.2312   10.0650 C.ar    1  UNL1        0.0016
     12 C          63.1197   90.4690   10.7751 C.ar    1  UNL1        0.0018
     13 C          63.1507   90.4825   12.1813 C.ar    1  UNL1        0.0075
     14 C          64.1427   91.1969   12.8913 C.ar    1  UNL1        0.0810
     15 C          64.2677   91.1862   14.3216 C.ar    1  UNL1        0.2297
     16 C          62.0956   89.6682   10.0548 C.ar    1  UNL1        0.0192
     17 C          60.8802   90.2536    9.6602 C.ar    1  UNL1        0.0988
     18 N          59.9436   89.5242    8.9993 N.ar    1  UNL1       -0.2438
     19 C          60.1381   88.2154    8.6940 C.ar    1  UNL1        0.0813
     20 C          59.1485   87.4990    8.0113 C.ar    1  UNL1        0.0191
     21 C          59.3524   86.1516    7.6977 C.ar    1  UNL1        0.0015
     22 C          60.5437   85.5167    8.0645 C.ar    1  UNL1        0.0001
     23 C          61.5378   86.2251    8.7474 C.ar    1  UNL1        0.0015
     24 C          61.3407   87.5773    9.0670 C.ar    1  UNL1        0.0177
     25 C          62.3172   88.3141    9.7497 C.ar    1  UNL1        0.0030
     26 C          62.6069   86.3773   13.6745 C.ar    1  UNL1        0.0522
     27 C          61.7513   87.4764   13.5159 C.ar    1  UNL1        0.0206
     28 C          62.1085   88.7308   14.0066 C.ar    1  UNL1        0.0703
     29 C          63.3352   88.9118   14.6571 C.ar    1  UNL1        0.2271
     30 C          64.2073   87.8206   14.8017 C.ar    1  UNL1        0.0742
     31 C          63.8433   86.5373   14.3490 C.ar    1  UNL1        0.0906
     32 C          59.7403   82.4078   11.1910 C.2     1  UNL1        0.2257
     33 O          58.6857   82.0052   11.7546 O.2     1  UNL1       -0.2749
     34 N          60.7774   83.0299   11.9874 N.am    1  UNL1       -0.2760
     35 C          62.1307   83.2962   11.4699 C.3     1  UNL1        0.1148
     36 C          62.5332   84.7389   11.7854 C.3     1  UNL1        0.1123
     37 N          62.1922   85.1004   13.1672 N.pl3   1  UNL1       -0.3041
     38 C          61.6322   84.0976   14.0771 C.3     1  UNL1        0.1123
     39 C          60.4737   83.3608   13.3920 C.3     1  UNL1        0.1148
     40 C          58.4533   82.3770    9.0473 C.3     1  UNL1        0.0101
     41 C          59.8322   82.2685    9.6937 C.3     1  UNL1        0.0853
     42 C          64.7932   85.3740   14.5498 C.3     1  UNL1        0.4199
     43 F          66.0432   85.8246   14.9326 F       1  UNL1       -0.1658
     44 F          64.2923   84.5340   15.5260 F       1  UNL1       -0.1658
     45 F          64.9500   84.6464   13.3823 F       1  UNL1       -0.1658
@<TRIPOS>BOND
     1    40    41    1
     2    41    32    1
     3    32    33    2
     4    32    34   am
     5    34    35    1
     6    35    36    1
     7    36    37    1
     8    37    26    1
     9    26    27   ar
    10    27    28   ar
    11    28    29   ar
    12    29     1    1
    13     1     2    1
    14     2     3    2
    15     2     4    1
    16     4     5    2
    17     5     6    1
    18     6     7   ar
    19     7     8   ar
    20     8     9   ar
    21     9    10   ar
    22    10    11   ar
    23    11    12   ar
    24    12    16    1
    25    16    17   ar
    26    17    18   ar
    27    18    19   ar
    28    19    20   ar
    29    20    21   ar
    30    21    22   ar
    31    22    23   ar
    32    23    24   ar
    33    24    25   ar
    34    12    13   ar
    35    13    14   ar
    36    14    15   ar
    37    29    30   ar
    38    30    31   ar
    39    31    42    1
    40    42    43    1
    41    42    44    1
    42    42    45    1
    43    37    38    1
    44    38    39    1
    45    39    34    1
    46    31    26   ar
    47    15     1    1
    48    15     6   ar
    49    14     9   ar
    50    25    16   ar
    51    24    19   ar
@<TRIPOS>MOLECULE
*****
 45 51 0 0 0
SMALL
GASTEIGER

@<TRIPOS>ATOM
      1 N          62.7535   89.3311   11.3591 N.am    1  UNL1       -0.0905
      2 C          62.8312   90.1917   10.2865 C.2     1  UNL1        0.4229
      3 O          62.3099   89.8908    9.1764 O.2     1  UNL1       -0.2135
      4 C          63.4472   91.4349   10.4109 C.2     1  UNL1        0.1157
      5 C          63.9242   91.8439   11.6449 C.2     1  UNL1        0.0173
      6 C          63.8746   90.9718   12.7322 C.ar    1  UNL1        0.0828
      7 C          64.2956   91.4088   13.9913 C.ar    1  UNL1        0.1047
      8 N          64.2687   90.5673   15.0498 N.ar    1  UNL1       -0.2434
      9 C          63.9089   89.2662   14.9251 C.ar    1  UNL1        0.0870
     10 C          63.9809   88.4361   16.0475 C.ar    1  UNL1        0.0193
     11 C          63.7503   87.0678   15.9284 C.ar    1  UNL1        0.0016
     12 C          63.4929   86.5006   14.6726 C.ar    1  UNL1        0.0018
     13 C          63.4127   87.3395   13.5463 C.ar    1  UNL1        0.0075
     14 C          63.5244   88.7440   13.6622 C.ar    1  UNL1        0.0810
     15 C          63.3766   89.6524   12.5603 C.ar    1  UNL1        0.2297
     16 C          63.3215   85.0314   14.5277 C.ar    1  UNL1        0.0192
     17 C          63.2145   84.2103   15.6634 C.ar    1  UNL1        0.0988
     18 N          63.0550   82.8673   15.5334 N.ar    1  UNL1       -0.2438
     19 C          62.9920   82.2671   14.3169 C.ar    1  UNL1        0.0813
     20 C          62.8263   80.8805   14.2257 C.ar    1  UNL1        0.0191
     21 C          62.7609   80.2658   12.9713 C.ar    1  UNL1        0.0015
     22 C          62.8605   81.0332   11.8060 C.ar    1  UNL1        0.0001
     23 C          63.0266   82.4197   11.8881 C.ar    1  UNL1        0.0015
     24 C          63.0944   83.0443   13.1429 C.ar    1  UNL1        0.0177
     25 C          63.2598   84.4306   13.2584 C.ar    1  UNL1        0.0030
     26 C          60.0018   86.0941   11.0481 C.ar    1  UNL1        0.0522
     27 C          61.1601   86.1272   10.2592 C.ar    1  UNL1        0.0206
     28 C          62.0548   87.1912   10.3557 C.ar    1  UNL1        0.0703
     29 C          61.8124   88.2388   11.2526 C.ar    1  UNL1        0.2271
     30 C          60.6651   88.2031   12.0617 C.ar    1  UNL1        0.0742
     31 C          59.7295   87.1564   11.9462 C.ar    1  UNL1        0.0906
     32 C          57.9150   81.1601    9.8471 C.2     1  UNL1        0.2257
     33 O          57.6933   80.8963    8.6333 O.2     1  UNL1       -0.2749
     34 N          57.9553   82.5423   10.2771 N.am    1  UNL1       -0.2760
     35 C          57.9524   82.9382   11.6960 C.3     1  UNL1        0.1148
     36 C          59.0637   83.9589   11.9531 C.3     1  UNL1        0.1123
     37 N          59.1001   84.9868   10.9050 N.pl3   1  UNL1       -0.3041
     38 C          58.0879   84.9987    9.8455 C.3     1  UNL1        0.1123
     39 C          57.9464   83.5943    9.2437 C.3     1  UNL1        0.1148
     40 C          59.6872   79.7751   10.9396 C.3     1  UNL1        0.0101
     41 C          58.1868   80.0065   10.7771 C.3     1  UNL1        0.0853
     42 C          58.4850   87.1644   12.8106 C.3     1  UNL1        0.4199
     43 F          58.6491   86.3427   13.9106 F       1  UNL1       -0.1658
     44 F          58.2299   88.4535   13.2381 F       1  UNL1       -0.1658
     45 F          57.3826   86.7083   12.1081 F       1  UNL1       -0.1658
@<TRIPOS>BOND
     1    40    41    1
     2    41    32    1
     3    32    33    2
     4    32    34   am
     5    34    35    1
     6    35    36    1
     7    36    37    1
     8    37    26    1
     9    26    27   ar
    10    27    28   ar
    11    28    29   ar
    12    29     1    1
    13     1     2    1
    14     2     3    2
    15     2     4    1
    16     4     5    2
    17     5     6    1
    18     6     7   ar
    19     7     8   ar
    20     8     9   ar
    21     9    10   ar
    22    10    11   ar
    23    11    12   ar
    24    12    16    1
    25    16    17   ar
    26    17    18   ar
    27    18    19   ar
    28    19    20   ar
    29    20    21   ar
    30    21    22   ar
    31    22    23   ar
    32    23    24   ar
    33    24    25   ar
    34    12    13   ar
    35    13    14   ar
    36    14    15   ar
    37    29    30   ar
    38    30    31   ar
    39    31    42    1
    40    42    43    1
    41    42    44    1
    42    42    45    1
    43    37    38    1
    44    38    39    1
    45    39    34    1
    46    31    26   ar
    47    15     1    1
    48    15     6   ar
    49    14     9   ar
    50    25    16   ar
    51    24    19   ar
@<TRIPOS>MOLECULE
*****
 45 51 0 0 0
SMALL
GASTEIGER

@<TRIPOS>ATOM
      1 N          63.8906   90.5790   15.1749 N.am    1  UNL1       -0.0905
      2 C          63.9148   90.7946   16.5352 C.2     1  UNL1        0.4229
      3 O          63.3318   90.0017   17.3264 O.2     1  UNL1       -0.2135
      4 C          64.6203   91.8670   17.0763 C.2     1  UNL1        0.1157
      5 C          65.3669   92.6860   16.2461 C.2     1  UNL1        0.0173
      6 C          65.3300   92.4938   14.8652 C.ar    1  UNL1        0.0828
      7 C          66.1347   93.2783   14.0342 C.ar    1  UNL1        0.1047
      8 N          66.0949   93.1134   12.6923 N.ar    1  UNL1       -0.2434
      9 C          65.2361   92.2480   12.0994 C.ar    1  UNL1        0.0870
     10 C          65.1958   92.1883   10.7034 C.ar    1  UNL1        0.0193
     11 C          64.2352   91.4131   10.0583 C.ar    1  UNL1        0.0016
     12 C          63.2666   90.7243   10.8015 C.ar    1  UNL1        0.0018
     13 C          63.3149   90.7794   12.2062 C.ar    1  UNL1        0.0075
     14 C          64.3516   91.4615   12.8833 C.ar    1  UNL1        0.0810
     15 C          64.4927   91.4883   14.3118 C.ar    1  UNL1        0.2297
     16 C          62.1932   89.9573   10.1171 C.ar    1  UNL1        0.0192
     17 C          60.9725   90.5736    9.7920 C.ar    1  UNL1        0.0988
     18 N          59.9907   89.8753    9.1640 N.ar    1  UNL1       -0.2438
     19 C          60.1435   88.5689    8.8264 C.ar    1  UNL1        0.0813
     20 C          59.1081   87.8850    8.1795 C.ar    1  UNL1        0.0191
     21 C          59.2692   86.5400    7.8324 C.ar    1  UNL1        0.0015
     22 C          60.4634   85.8751    8.1300 C.ar    1  UNL1        0.0001
     23 C          61.5033   86.5510    8.7769 C.ar    1  UNL1        0.0015
     24 C          61.3493   87.9005    9.1297 C.ar    1  UNL1        0.0177
     25 C          62.3722   88.6051    9.7776 C.ar    1  UNL1        0.0030
     26 C          62.5902   86.7344   13.8811 C.ar    1  UNL1        0.0522
     27 C          63.9266   86.9535   14.2432 C.ar    1  UNL1        0.0206
     28 C          64.3524   88.2139   14.6578 C.ar    1  UNL1        0.0703
     29 C          63.4452   89.2783   14.7282 C.ar    1  UNL1        0.2271
     30 C          62.1000   89.0622   14.3872 C.ar    1  UNL1        0.0742
     31 C          61.6625   87.8052   13.9259 C.ar    1  UNL1        0.0906
     32 C          62.6882   81.4050   12.5658 C.2     1  UNL1        0.2257
     33 O          63.2803   81.0739   11.5020 O.2     1  UNL1       -0.2749
     34 N          62.1796   82.7537   12.7047 N.am    1  UNL1       -0.2760
     35 C          61.2639   83.1550   13.7866 C.3     1  UNL1        0.1148
     36 C          61.7709   84.4394   14.4470 C.3     1  UNL1        0.1123
     37 N          62.1987   85.4242   13.4452 N.pl3   1  UNL1       -0.3041
     38 C          62.0237   85.1495   12.0165 C.3     1  UNL1        0.1123
     39 C          62.5583   83.7498   11.6853 C.3     1  UNL1        0.1148
     40 C          63.5693   80.7028   14.7981 C.3     1  UNL1        0.0101
     41 C          62.5972   80.3798   13.6660 C.3     1  UNL1        0.0853
     42 C          60.2112   87.6137   13.5347 C.3     1  UNL1        0.4199
     43 F          59.6488   86.5668   14.2416 F       1  UNL1       -0.1658
     44 F          59.5068   88.7728   13.7985 F       1  UNL1       -0.1658
     45 F          60.0887   87.3223   12.1868 F       1  UNL1       -0.1658
@<TRIPOS>BOND
     1    40    41    1
     2    41    32    1
     3    32    33    2
     4    32    34   am
     5    34    35    1
     6    35    36    1
     7    36    37    1
     8    37    26    1
     9    26    27   ar
    10    27    28   ar
    11    28    29   ar
    12    29     1    1
    13     1     2    1
    14     2     3    2
    15     2     4    1
    16     4     5    2
    17     5     6    1
    18     6     7   ar
    19     7     8   ar
    20     8     9   ar
    21     9    10   ar
    22    10    11   ar
    23    11    12   ar
    24    12    16    1
    25    16    17   ar
    26    17    18   ar
    27    18    19   ar
    28    19    20   ar
    29    20    21   ar
    30    21    22   ar
    31    22    23   ar
    32    23    24   ar
    33    24    25   ar
    34    12    13   ar
    35    13    14   ar
    36    14    15   ar
    37    29    30   ar
    38    30    31   ar
    39    31    42    1
    40    42    43    1
    41    42    44    1
    42    42    45    1
    43    37    38    1
    44    38    39    1
    45    39    34    1
    46    31    26   ar
    47    15     1    1
    48    15     6   ar
    49    14     9   ar
    50    25    16   ar
    51    24    19   ar
@<TRIPOS>MOLECULE
*****
 45 51 0 0 0
SMALL
GASTEIGER

@<TRIPOS>ATOM
      1 N          63.1520   89.3474   13.2873 N.am    1  UNL1       -0.0905
      2 C          63.5699   90.4545   12.5825 C.2     1  UNL1        0.4229
      3 O          63.4430   90.5083   11.3273 O.2     1  UNL1       -0.2135
      4 C          64.1018   91.5615   13.2401 C.2     1  UNL1        0.1157
      5 C          64.1455   91.5818   14.6239 C.2     1  UNL1        0.0173
      6 C          63.7494   90.4573   15.3477 C.ar    1  UNL1        0.0828
      7 C          63.7317   90.5027   16.7446 C.ar    1  UNL1        0.1047
      8 N          63.3662   89.4133   17.4581 N.ar    1  UNL1       -0.2434
      9 C          63.0770   88.2291   16.8649 C.ar    1  UNL1        0.0870
     10 C          62.7840   87.1251   17.6707 C.ar    1  UNL1        0.0193
     11 C          62.6155   85.8638   17.1046 C.ar    1  UNL1        0.0016
     12 C          62.7878   85.6787   15.7258 C.ar    1  UNL1        0.0018
     13 C          63.0742   86.7929   14.9163 C.ar    1  UNL1        0.0075
     14 C          63.1310   88.0999   15.4522 C.ar    1  UNL1        0.0810
     15 C          63.3451   89.2801   14.6630 C.ar    1  UNL1        0.2297
     16 C          62.6845   84.3227   15.1265 C.ar    1  UNL1        0.0192
     17 C          63.7783   83.4408   15.1644 C.ar    1  UNL1        0.0988
     18 N          63.6854   82.1997   14.6196 N.ar    1  UNL1       -0.2438
     19 C          62.5468   81.7617   14.0232 C.ar    1  UNL1        0.0813
     20 C          62.4913   80.4755   13.4744 C.ar    1  UNL1        0.0191
     21 C          61.3169   80.0274   12.8618 C.ar    1  UNL1        0.0015
     22 C          60.1958   80.8615   12.7958 C.ar    1  UNL1        0.0001
     23 C          60.2427   82.1487   13.3414 C.ar    1  UNL1        0.0015
     24 C          61.4178   82.6065   13.9568 C.ar    1  UNL1        0.0177
     25 C          61.4961   83.8899   14.5129 C.ar    1  UNL1        0.0030
     26 C          60.6803   86.5611   11.2200 C.ar    1  UNL1        0.0522
     27 C          61.9726   86.8501   10.7601 C.ar    1  UNL1        0.0206
     28 C          62.7767   87.7684   11.4325 C.ar    1  UNL1        0.0703
     29 C          62.3060   88.4082   12.5857 C.ar    1  UNL1        0.2271
     30 C          61.0204   88.1087   13.0651 C.ar    1  UNL1        0.0742
     31 C          60.1794   87.2149   12.3737 C.ar    1  UNL1        0.0906
     32 C          59.1286   82.4475    7.9318 C.2     1  UNL1        0.2257
     33 O          59.2331   82.6205    6.6863 O.2     1  UNL1       -0.2749
     34 N          59.0135   83.5999    8.8011 N.am    1  UNL1       -0.2760
     35 C          58.6354   83.4951   10.2210 C.3     1  UNL1        0.1148
     36 C          59.6109   84.3039   11.0796 C.3     1  UNL1        0.1123
     37 N          59.8810   85.6204   10.4879 N.pl3   1  UNL1       -0.3041
     38 C          59.1733   86.0463    9.2775 C.3     1  UNL1        0.1123
     39 C          59.2353   84.9367    8.2195 C.3     1  UNL1        0.1148
     40 C          60.5387   80.7511    9.1092 C.3     1  UNL1        0.0101
     41 C          59.1905   81.0347    8.4511 C.3     1  UNL1        0.0853
     42 C          58.7854   86.9383   12.8992 C.3     1  UNL1        0.4199
     43 F          58.4034   87.9101   13.8057 F       1  UNL1       -0.1658
     44 F          57.8915   86.9205   11.8456 F       1  UNL1       -0.1658
     45 F          58.7261   85.7157   13.5464 F       1  UNL1       -0.1658
@<TRIPOS>BOND
     1    40    41    1
     2    41    32    1
     3    32    33    2
     4    32    34   am
     5    34    35    1
     6    35    36    1
     7    36    37    1
     8    37    26    1
     9    26    27   ar
    10    27    28   ar
    11    28    29   ar
    12    29     1    1
    13     1     2    1
    14     2     3    2
    15     2     4    1
    16     4     5    2
    17     5     6    1
    18     6     7   ar
    19     7     8   ar
    20     8     9   ar
    21     9    10   ar
    22    10    11   ar
    23    11    12   ar
    24    12    16    1
    25    16    17   ar
    26    17    18   ar
    27    18    19   ar
    28    19    20   ar
    29    20    21   ar
    30    21    22   ar
    31    22    23   ar
    32    23    24   ar
    33    24    25   ar
    34    12    13   ar
    35    13    14   ar
    36    14    15   ar
    37    29    30   ar
    38    30    31   ar
    39    31    42    1
    40    42    43    1
    41    42    44    1
    42    42    45    1
    43    37    38    1
    44    38    39    1
    45    39    34    1
    46    31    26   ar
    47    15     1    1
    48    15     6   ar
    49    14     9   ar
    50    25    16   ar
    51    24    19   ar
