@<TRIPOS>MOLECULE
*****
 52 57 0 0 0
SMALL
GASTEIGER

@<TRIPOS>ATOM
      1 N         -29.7973   48.3807   -1.3236 N.am    1  UNL1       -0.2945
      2 C         -28.7568   48.5632   -2.3006 C.2     1  UNL1        0.2483
      3 O         -27.5502   48.5838   -1.9331 O.2     1  UNL1       -0.2701
      4 H         -30.7920   48.4156   -1.6358 H       1  UNL1        0.1501
      5 C         -29.0658   48.6497   -3.7467 C.ar    1  UNL1        0.0808
      6 C         -28.0909   48.2509   -4.6767 C.ar    1  UNL1        0.0080
      7 C         -28.3457   48.3139   -6.0481 C.ar    1  UNL1        0.0148
      8 C         -29.5814   48.7821   -6.5215 C.ar    1  UNL1        0.0502
      9 C         -30.5598   49.1753   -5.5944 C.ar    1  UNL1        0.0443
     10 C         -30.3050   49.1229   -4.2198 C.ar    1  UNL1        0.1457
     11 F         -31.2504   49.5906   -3.3668 F       1  UNL1       -0.2040
     12 N         -29.8395   48.8786   -7.9377 N.pl3   1  UNL1       -0.3040
     13 C         -30.4417   47.7510   -8.6583 C.3     1  UNL1        0.1123
     14 C         -29.7837   47.6012  -10.0283 C.3     1  UNL1        0.1136
     15 N         -29.7556   48.8960  -10.7217 N.pl3   1  UNL1       -0.2897
     16 C         -29.1970   50.0504  -10.0032 C.3     1  UNL1        0.1136
     17 C         -29.8335   50.1792   -8.6168 C.3     1  UNL1        0.1123
     18 C         -29.9904   48.9460  -12.1438 C.ar    1  UNL1        0.1318
     19 C         -29.8895   50.1507  -12.8587 C.ar    1  UNL1        0.0343
     20 C         -30.1219   50.1575  -14.2348 C.ar    1  UNL1        0.0083
     21 C         -30.4694   48.9717  -14.8990 C.ar    1  UNL1        0.0906
     22 C         -30.5262   47.7834  -14.1548 C.ar    1  UNL1        0.1041
     23 N         -30.2945   47.8010  -12.8156 N.ar    1  UNL1       -0.2292
     24 C         -30.6727   48.9563  -16.3926 C.3     1  UNL1        0.4200
     25 F         -31.5788   49.9316  -16.7717 F       1  UNL1       -0.1658
     26 F         -31.1597   47.7284  -16.8062 F       1  UNL1       -0.1658
     27 F         -29.4640   49.1961  -17.0191 F       1  UNL1       -0.1658
     28 C         -29.5311   47.7853   -0.0083 C.3     1  UNL1        0.1535
     29 C         -30.3364   48.4971    1.0474 C.2     1  UNL1        0.2443
     30 O         -31.5182   48.8480    0.7817 O.2     1  UNL1       -0.2730
     31 N         -29.7921   48.7209    2.3600 N.am    1  UNL1       -0.2825
     32 H         -28.9562   48.1652    2.6493 H       1  UNL1        0.1549
     33 C         -30.3876   49.5884    3.3397 C.ar    1  UNL1        0.0535
     34 C         -30.5372   50.9665    3.1083 C.ar    1  UNL1        0.0353
     35 C         -31.0978   51.7746    4.1008 C.ar    1  UNL1        0.1002
     36 N         -31.4819   51.2325    5.2866 N.ar    1  UNL1       -0.2422
     37 C         -31.3319   49.9065    5.5447 C.ar    1  UNL1        0.1002
     38 C         -30.7747   49.0634    4.5803 C.ar    1  UNL1        0.0353
     39 C         -29.8492   46.2770   -0.0190 C.3     1  UNL1        0.0569
     40 C         -30.0098   44.7973   -5.1321 C.ar    1  UNL1        0.0361
     41 C         -31.0817   45.2912   -4.3379 C.ar    1  UNL1        0.0029
     42 C         -30.9004   45.5703   -2.9734 C.ar    1  UNL1        0.0013
     43 C         -29.6421   45.3449   -2.4209 C.ar    1  UNL1        0.0131
     44 C         -29.1487   45.5803   -1.1513 C.ar    1  UNL1       -0.0017
     45 C         -27.8012   45.2378   -1.2042 C.ar    1  UNL1        0.0681
     46 N         -27.4755   44.7952   -2.4403 N.ar    1  UNL1       -0.3523
     47 C         -28.6009   44.8712   -3.1721 C.ar    1  UNL1        0.0564
     48 C         -28.7451   44.5877   -4.5289 C.ar    1  UNL1        0.0198
     49 H         -26.5299   44.4965   -2.7673 H       1  UNL1        0.1660
     50 C         -31.5471   44.2093   -7.1568 C.3     1  UNL1        0.0773
     51 C         -30.1965   44.5078   -6.5780 C.2     1  UNL1        0.1735
     52 O         -29.1993   44.5066   -7.3499 O.2     1  UNL1       -0.2913
@<TRIPOS>BOND
     1    50    51    1
     2    51    52    2
     3    51    40    1
     4    40    41   ar
     5    41    42   ar
     6    42    43   ar
     7    43    44   ar
     8    44    39    1
     9    39    28    1
    10    28     1    1
    11     1     2   am
    12     2     3    2
    13     2     5    1
    14     5     6   ar
    15     6     7   ar
    16     7     8   ar
    17     8    12    1
    18    12    13    1
    19    13    14    1
    20    14    15    1
    21    15    18    1
    22    18    19   ar
    23    19    20   ar
    24    20    21   ar
    25    21    24    1
    26    24    25    1
    27    24    26    1
    28    24    27    1
    29    21    22   ar
    30    22    23   ar
    31    15    16    1
    32    16    17    1
    33     8     9   ar
    34     9    10   ar
    35    10    11    1
    36    28    29    1
    37    29    30    2
    38    29    31   am
    39    31    33    1
    40    33    34   ar
    41    34    35   ar
    42    35    36   ar
    43    36    37   ar
    44    37    38   ar
    45    44    45   ar
    46    45    46   ar
    47    46    47   ar
    48    47    48   ar
    49    48    40   ar
    50    47    43   ar
    51    10     5   ar
    52    38    33   ar
    53    17    12    1
    54    23    18   ar
    55     1     4    1
    56    31    32    1
    57    46    49    1
@<TRIPOS>MOLECULE
*****
 52 57 0 0 0
SMALL
GASTEIGER

@<TRIPOS>ATOM
      1 N         -29.2782   46.7093   -1.1349 N.am    1  UNL1       -0.2945
      2 C         -28.1258   46.2790   -1.8815 C.2     1  UNL1        0.2483
      3 O         -27.3702   45.3872   -1.4070 O.2     1  UNL1       -0.2701
      4 H         -29.8652   47.4821   -1.5174 H       1  UNL1        0.1501
      5 C         -27.8470   46.8054   -3.2378 C.ar    1  UNL1        0.0808
      6 C         -27.7881   48.1960   -3.4301 C.ar    1  UNL1        0.0080
      7 C         -27.5240   48.7307   -4.6926 C.ar    1  UNL1        0.0148
      8 C         -27.3170   47.8856   -5.7941 C.ar    1  UNL1        0.0502
      9 C         -27.3690   46.4955   -5.6037 C.ar    1  UNL1        0.0443
     10 C         -27.6430   45.9559   -4.3424 C.ar    1  UNL1        0.1457
     11 F         -27.7643   44.6099   -4.2253 F       1  UNL1       -0.2040
     12 N         -27.0743   48.4322   -7.1071 N.pl3   1  UNL1       -0.3040
     13 C         -25.8154   49.1281   -7.3974 C.3     1  UNL1        0.1123
     14 C         -26.0878   50.3456   -8.2783 C.3     1  UNL1        0.1136
     15 N         -26.9182   49.9637   -9.4284 N.pl3   1  UNL1       -0.2897
     16 C         -28.1627   49.2269   -9.1652 C.3     1  UNL1        0.1136
     17 C         -27.8935   48.0260   -8.2546 C.3     1  UNL1        0.1123
     18 C         -26.6611   50.5552  -10.7183 C.ar    1  UNL1        0.1318
     19 C         -25.3526   50.8329  -11.1465 C.ar    1  UNL1        0.0343
     20 C         -25.1448   51.4035  -12.4031 C.ar    1  UNL1        0.0083
     21 C         -26.2361   51.7127  -13.2285 C.ar    1  UNL1        0.0906
     22 C         -27.5249   51.3880  -12.7781 C.ar    1  UNL1        0.1041
     23 N         -27.7028   50.8314  -11.5510 N.ar    1  UNL1       -0.2292
     24 C         -26.0222   52.2816  -14.6079 C.3     1  UNL1        0.4200
     25 F         -27.0269   53.1787  -14.9269 F       1  UNL1       -0.1658
     26 F         -26.0238   51.2739  -15.5570 F       1  UNL1       -0.1658
     27 F         -24.8049   52.9355  -14.6470 F       1  UNL1       -0.1658
     28 C         -29.8707   45.8818   -0.0768 C.3     1  UNL1        0.1535
     29 C         -30.3421   46.7587    1.0540 C.2     1  UNL1        0.2443
     30 O         -31.5447   46.6828    1.4258 O.2     1  UNL1       -0.2730
     31 N         -29.4243   47.6259    1.7428 N.am    1  UNL1       -0.2825
     32 H         -28.4005   47.4509    1.6302 H       1  UNL1        0.1549
     33 C         -29.8275   48.6569    2.6601 C.ar    1  UNL1        0.0535
     34 C         -30.6354   49.7315    2.2505 C.ar    1  UNL1        0.0353
     35 C         -30.9800   50.7241    3.1715 C.ar    1  UNL1        0.1002
     36 N         -30.5245   50.6569    4.4504 N.ar    1  UNL1       -0.2422
     37 C         -29.7266   49.6394    4.8691 C.ar    1  UNL1        0.1002
     38 C         -29.3572   48.6271    3.9802 C.ar    1  UNL1        0.0353
     39 C         -31.0300   45.0327   -0.6347 C.3     1  UNL1        0.0569
     40 C         -31.4390   48.5848   -4.5811 C.ar    1  UNL1        0.0361
     41 C         -31.4994   48.8323   -3.1815 C.ar    1  UNL1        0.0029
     42 C         -31.4505   47.7748   -2.2585 C.ar    1  UNL1        0.0013
     43 C         -31.3459   46.4777   -2.7544 C.ar    1  UNL1        0.0131
     44 C         -31.2142   45.2628   -2.1082 C.ar    1  UNL1       -0.0017
     45 C         -31.0681   44.3163   -3.1175 C.ar    1  UNL1        0.0681
     46 N         -31.1231   44.9097   -4.3319 N.ar    1  UNL1       -0.3523
     47 C         -31.2856   46.2237   -4.0977 C.ar    1  UNL1        0.0564
     48 C         -31.3276   47.2492   -5.0404 C.ar    1  UNL1        0.0198
     49 H         -31.0173   44.4432   -5.2600 H       1  UNL1        0.1660
     50 C         -31.4142   49.4617   -7.0385 C.3     1  UNL1        0.0773
     51 C         -31.4831   49.7022   -5.5602 C.2     1  UNL1        0.1735
     52 O         -31.5775   50.8909   -5.1494 O.2     1  UNL1       -0.2913
@<TRIPOS>BOND
     1    50    51    1
     2    51    52    2
     3    51    40    1
     4    40    41   ar
     5    41    42   ar
     6    42    43   ar
     7    43    44   ar
     8    44    39    1
     9    39    28    1
    10    28     1    1
    11     1     2   am
    12     2     3    2
    13     2     5    1
    14     5     6   ar
    15     6     7   ar
    16     7     8   ar
    17     8    12    1
    18    12    13    1
    19    13    14    1
    20    14    15    1
    21    15    18    1
    22    18    19   ar
    23    19    20   ar
    24    20    21   ar
    25    21    24    1
    26    24    25    1
    27    24    26    1
    28    24    27    1
    29    21    22   ar
    30    22    23   ar
    31    15    16    1
    32    16    17    1
    33     8     9   ar
    34     9    10   ar
    35    10    11    1
    36    28    29    1
    37    29    30    2
    38    29    31   am
    39    31    33    1
    40    33    34   ar
    41    34    35   ar
    42    35    36   ar
    43    36    37   ar
    44    37    38   ar
    45    44    45   ar
    46    45    46   ar
    47    46    47   ar
    48    47    48   ar
    49    48    40   ar
    50    47    43   ar
    51    10     5   ar
    52    38    33   ar
    53    17    12    1
    54    23    18   ar
    55     1     4    1
    56    31    32    1
    57    46    49    1
@<TRIPOS>MOLECULE
*****
 52 57 0 0 0
SMALL
GASTEIGER

@<TRIPOS>ATOM
      1 N         -29.3416   46.8653   -0.5686 N.am    1  UNL1       -0.2945
      2 C         -28.4130   46.2477   -1.4779 C.2     1  UNL1        0.2483
      3 O         -28.1054   45.0334   -1.3290 O.2     1  UNL1       -0.2701
      4 H         -29.5479   47.8823   -0.6744 H       1  UNL1        0.1501
      5 C         -27.8660   46.9870   -2.6392 C.ar    1  UNL1        0.0808
      6 C         -27.6389   48.3686   -2.5217 C.ar    1  UNL1        0.0080
      7 C         -27.1208   49.0996   -3.5926 C.ar    1  UNL1        0.0148
      8 C         -26.8218   48.4654   -4.8087 C.ar    1  UNL1        0.0502
      9 C         -27.0418   47.0837   -4.9269 C.ar    1  UNL1        0.0443
     10 C         -27.5699   46.3495   -3.8596 C.ar    1  UNL1        0.1457
     11 F         -27.8415   45.0340   -4.0490 F       1  UNL1       -0.2040
     12 N         -26.3153   49.2207   -5.9287 N.pl3   1  UNL1       -0.3040
     13 C         -26.0340   48.5526   -7.2047 C.3     1  UNL1        0.1123
     14 C         -24.7512   49.1160   -7.8124 C.3     1  UNL1        0.1136
     15 N         -24.7986   50.5842   -7.8257 N.pl3   1  UNL1       -0.2897
     16 C         -25.1220   51.2745   -6.5687 C.3     1  UNL1        0.1136
     17 C         -26.3894   50.6859   -5.9436 C.3     1  UNL1        0.1123
     18 C         -24.2553   51.3028   -8.9519 C.ar    1  UNL1        0.1318
     19 C         -24.9930   51.4717  -10.1351 C.ar    1  UNL1        0.0343
     20 C         -24.4330   52.1757  -11.2022 C.ar    1  UNL1        0.0083
     21 C         -23.1353   52.6988  -11.1010 C.ar    1  UNL1        0.0906
     22 C         -22.4449   52.5379   -9.8899 C.ar    1  UNL1        0.1041
     23 N         -23.0111   51.8497   -8.8637 N.ar    1  UNL1       -0.2292
     24 C         -22.5393   53.5045  -12.2269 C.3     1  UNL1        0.4200
     25 F         -22.6190   54.8590  -11.9529 F       1  UNL1       -0.1658
     26 F         -23.2138   53.2618  -13.4110 F       1  UNL1       -0.1658
     27 F         -21.2115   53.1540  -12.3845 F       1  UNL1       -0.1658
     28 C         -30.2776   46.0750    0.2405 C.3     1  UNL1        0.1535
     29 C         -30.5567   46.7857    1.5392 C.2     1  UNL1        0.2443
     30 O         -31.4945   46.3714    2.2734 O.2     1  UNL1       -0.2730
     31 N         -29.7303   47.8818    1.9690 N.am    1  UNL1       -0.2825
     32 H         -28.7983   48.0058    1.5137 H       1  UNL1        0.1549
     33 C         -30.0618   48.7588    3.0590 C.ar    1  UNL1        0.0535
     34 C         -30.4839   50.0809    2.8375 C.ar    1  UNL1        0.0353
     35 C         -30.7698   50.9046    3.9292 C.ar    1  UNL1        0.1002
     36 N         -30.6264   50.4335    5.1961 N.ar    1  UNL1       -0.2422
     37 C         -30.2021   49.1656    5.4402 C.ar    1  UNL1        0.1002
     38 C         -29.9043   48.3095    4.3772 C.ar    1  UNL1        0.0353
     39 C         -31.5836   45.8153   -0.5363 C.3     1  UNL1        0.0569
     40 C         -30.8122   49.5951   -4.2073 C.ar    1  UNL1        0.0361
     41 C         -31.1505   49.7728   -2.8370 C.ar    1  UNL1        0.0029
     42 C         -31.3967   48.6685   -2.0050 C.ar    1  UNL1        0.0013
     43 C         -31.3043   47.3957   -2.5624 C.ar    1  UNL1        0.0131
     44 C         -31.4244   46.1411   -1.9946 C.ar    1  UNL1       -0.0017
     45 C         -31.1496   45.2394   -3.0180 C.ar    1  UNL1        0.0681
     46 N         -30.8882   45.8990   -4.1697 N.ar    1  UNL1       -0.3523
     47 C         -30.9789   47.2085   -3.8783 C.ar    1  UNL1        0.0564
     48 C         -30.7246   48.2814   -4.7305 C.ar    1  UNL1        0.0198
     49 H         -30.6270   45.4740   -5.0870 H       1  UNL1        0.1660
     50 C         -30.6691   50.6713   -6.5801 C.3     1  UNL1        0.0773
     51 C         -30.5439   50.7615   -5.0886 C.2     1  UNL1        0.1735
     52 O         -30.1972   51.8627   -4.5811 O.2     1  UNL1       -0.2913
@<TRIPOS>BOND
     1    50    51    1
     2    51    52    2
     3    51    40    1
     4    40    41   ar
     5    41    42   ar
     6    42    43   ar
     7    43    44   ar
     8    44    39    1
     9    39    28    1
    10    28     1    1
    11     1     2   am
    12     2     3    2
    13     2     5    1
    14     5     6   ar
    15     6     7   ar
    16     7     8   ar
    17     8    12    1
    18    12    13    1
    19    13    14    1
    20    14    15    1
    21    15    18    1
    22    18    19   ar
    23    19    20   ar
    24    20    21   ar
    25    21    24    1
    26    24    25    1
    27    24    26    1
    28    24    27    1
    29    21    22   ar
    30    22    23   ar
    31    15    16    1
    32    16    17    1
    33     8     9   ar
    34     9    10   ar
    35    10    11    1
    36    28    29    1
    37    29    30    2
    38    29    31   am
    39    31    33    1
    40    33    34   ar
    41    34    35   ar
    42    35    36   ar
    43    36    37   ar
    44    37    38   ar
    45    44    45   ar
    46    45    46   ar
    47    46    47   ar
    48    47    48   ar
    49    48    40   ar
    50    47    43   ar
    51    10     5   ar
    52    38    33   ar
    53    17    12    1
    54    23    18   ar
    55     1     4    1
    56    31    32    1
    57    46    49    1
@<TRIPOS>MOLECULE
*****
 52 57 0 0 0
SMALL
GASTEIGER

@<TRIPOS>ATOM
      1 N         -29.6418   49.9747  -12.3775 N.am    1  UNL1       -0.2945
      2 C         -29.2873   51.1340  -11.6024 C.2     1  UNL1        0.2483
      3 O         -30.1820   51.9537  -11.2577 O.2     1  UNL1       -0.2701
      4 H         -28.8844   49.3326  -12.6970 H       1  UNL1        0.1501
      5 C         -27.8999   51.3486  -11.1296 C.ar    1  UNL1        0.0808
      6 C         -26.8311   50.9594  -11.9545 C.ar    1  UNL1        0.0080
      7 C         -25.5095   51.1487  -11.5458 C.ar    1  UNL1        0.0148
      8 C         -25.2262   51.7284  -10.2991 C.ar    1  UNL1        0.0502
      9 C         -26.2922   52.1241   -9.4754 C.ar    1  UNL1        0.0443
     10 C         -27.6178   51.9272   -9.8770 C.ar    1  UNL1        0.1457
     11 F         -28.6119   52.2502   -9.0124 F       1  UNL1       -0.2040
     12 N         -23.8631   51.8983   -9.8581 N.pl3   1  UNL1       -0.3040
     13 C         -22.8897   52.5881  -10.7128 C.3     1  UNL1        0.1123
     14 C         -21.5387   51.8804  -10.6344 C.3     1  UNL1        0.1136
     15 N         -21.1590   51.6661   -9.2315 N.pl3   1  UNL1       -0.2897
     16 C         -22.1354   51.0165   -8.3451 C.3     1  UNL1        0.1136
     17 C         -23.4981   51.7060   -8.4501 C.3     1  UNL1        0.1123
     18 C         -19.7802   51.8181   -8.8371 C.ar    1  UNL1        0.1318
     19 C         -19.4336   52.2781   -7.5561 C.ar    1  UNL1        0.0343
     20 C         -18.0876   52.4094   -7.2115 C.ar    1  UNL1        0.0083
     21 C         -17.0856   52.0991   -8.1430 C.ar    1  UNL1        0.0906
     22 C         -17.4732   51.6102   -9.4001 C.ar    1  UNL1        0.1041
     23 N         -18.7903   51.4894   -9.7128 N.ar    1  UNL1       -0.2292
     24 C         -15.6288   52.1878   -7.7661 C.3     1  UNL1        0.4200
     25 F         -15.2851   51.1626   -6.9020 F       1  UNL1       -0.1658
     26 F         -15.3596   53.3919   -7.1385 F       1  UNL1       -0.1658
     27 F         -14.8563   52.0924   -8.9085 F       1  UNL1       -0.1658
     28 C         -31.0157   49.4586  -12.4179 C.3     1  UNL1        0.1535
     29 C         -31.3204   48.9237  -13.7929 C.2     1  UNL1        0.2443
     30 O         -31.5840   47.6978  -13.9273 O.2     1  UNL1       -0.2730
     31 N         -31.3718   49.8045  -14.9290 N.am    1  UNL1       -0.2825
     32 H         -31.4558   50.8311  -14.7546 H       1  UNL1        0.1549
     33 C         -31.4182   49.3540  -16.2935 C.ar    1  UNL1        0.0535
     34 C         -31.5116   50.2593  -17.3645 C.ar    1  UNL1        0.0353
     35 C         -31.5805   49.7735  -18.6728 C.ar    1  UNL1        0.1002
     36 N         -31.5717   48.4344  -18.9053 N.ar    1  UNL1       -0.2422
     37 C         -31.5009   47.5358  -17.8880 C.ar    1  UNL1        0.1002
     38 C         -31.4318   47.9790  -16.5650 C.ar    1  UNL1        0.0353
     39 C         -31.2198   48.3696  -11.3462 C.3     1  UNL1        0.0569
     40 C         -27.8622   48.5097   -7.2151 C.ar    1  UNL1        0.0361
     41 C         -27.8333   47.6225   -8.3268 C.ar    1  UNL1        0.0029
     42 C         -28.8388   47.6597   -9.3067 C.ar    1  UNL1        0.0013
     43 C         -29.8664   48.5873   -9.1549 C.ar    1  UNL1        0.0131
     44 C         -30.9388   48.9008   -9.9689 C.ar    1  UNL1       -0.0017
     45 C         -31.5822   49.9658   -9.3462 C.ar    1  UNL1        0.0681
     46 N         -30.9521   50.2884   -8.1935 N.ar    1  UNL1       -0.3523
     47 C         -29.9074   49.4480   -8.0919 C.ar    1  UNL1        0.0564
     48 C         -28.9244   49.4407   -7.1041 C.ar    1  UNL1        0.0198
     49 H         -31.2044   51.0625   -7.5397 H       1  UNL1        0.1660
     50 C         -26.6682   49.5523   -5.1425 C.3     1  UNL1        0.0773
     51 C         -26.7958   48.4777   -6.1803 C.2     1  UNL1        0.1735
     52 O         -25.9663   47.5278   -6.1656 O.2     1  UNL1       -0.2913
@<TRIPOS>BOND
     1    50    51    1
     2    51    52    2
     3    51    40    1
     4    40    41   ar
     5    41    42   ar
     6    42    43   ar
     7    43    44   ar
     8    44    39    1
     9    39    28    1
    10    28     1    1
    11     1     2   am
    12     2     3    2
    13     2     5    1
    14     5     6   ar
    15     6     7   ar
    16     7     8   ar
    17     8    12    1
    18    12    13    1
    19    13    14    1
    20    14    15    1
    21    15    18    1
    22    18    19   ar
    23    19    20   ar
    24    20    21   ar
    25    21    24    1
    26    24    25    1
    27    24    26    1
    28    24    27    1
    29    21    22   ar
    30    22    23   ar
    31    15    16    1
    32    16    17    1
    33     8     9   ar
    34     9    10   ar
    35    10    11    1
    36    28    29    1
    37    29    30    2
    38    29    31   am
    39    31    33    1
    40    33    34   ar
    41    34    35   ar
    42    35    36   ar
    43    36    37   ar
    44    37    38   ar
    45    44    45   ar
    46    45    46   ar
    47    46    47   ar
    48    47    48   ar
    49    48    40   ar
    50    47    43   ar
    51    10     5   ar
    52    38    33   ar
    53    17    12    1
    54    23    18   ar
    55     1     4    1
    56    31    32    1
    57    46    49    1
