@<TRIPOS>MOLECULE
*****
 42 46 0 0 0
SMALL
GASTEIGER

@<TRIPOS>ATOM
      1 C          -7.7207  -15.3317   26.3523 C.ar    1  UNL1        0.0942
      2 C          -8.3989  -16.1589   25.4258 C.ar    1  UNL1        0.1405
      3 C          -7.8156  -16.5872   24.2620 C.ar    1  UNL1        0.0325
      4 C          -6.5161  -16.1958   23.9785 C.ar    1  UNL1        0.0760
      5 N          -5.7637  -16.4702   22.9076 N.ar    1  UNL1       -0.3255
      6 C          -4.6077  -15.8034   23.1583 C.ar    1  UNL1        0.1984
      7 N          -4.6093  -15.1119   24.3294 N.ar    1  UNL1       -0.2132
      8 C          -5.8269  -15.3846   24.8347 C.ar    1  UNL1        0.1051
      9 C          -6.3902  -14.9183   26.0364 C.ar    1  UNL1        0.0480
     10 S          -5.4648  -13.7705   27.0631 S.3     1  UNL1       -0.1397
     11 C          -8.7505  -17.4425   23.4892 C.3     1  UNL1        0.0709
     12 C         -10.0193  -17.4598   24.4070 C.3     1  UNL1        0.1375
     13 C         -11.2309  -16.8448   23.6939 C.3     1  UNL1        0.0439
     14 C         -10.3432  -18.8824   24.8822 C.3     1  UNL1        0.0439
     15 O          -9.6822  -16.6522   25.5403 O.3     1  UNL1       -0.4824
     16 H          -6.0257  -17.0351   22.0695 H       1  UNL1        0.1686
     17 H          -5.9931  -12.6561   26.3854 H       1  UNL1        0.1072
     18 N          -8.4374  -13.5317   27.9780 N.am    1  UNL1       -0.2805
     19 C          -8.4089  -14.9148   27.5885 C.2     1  UNL1        0.2530
     20 O          -8.9563  -15.7924   28.3099 O.2     1  UNL1       -0.2697
     21 H          -8.0271  -12.8233   27.3298 H       1  UNL1        0.1552
     22 C          -6.9826  -11.5819   29.5852 C.3     1  UNL1        0.0323
     23 C          -8.3111  -12.1388   30.0204 C.ar    1  UNL1       -0.0084
     24 C          -8.8621  -11.7357   31.2489 C.ar    1  UNL1        0.0008
     25 C         -10.1067  -12.2267   31.6764 C.ar    1  UNL1        0.0712
     26 C         -10.7721  -13.1758   30.8862 C.ar    1  UNL1        0.0051
     27 C         -10.2293  -13.5897   29.6690 C.ar    1  UNL1        0.0143
     28 C          -9.0065  -13.0684   29.2156 C.ar    1  UNL1        0.0465
     29 C         -10.6666  -11.8207   33.0168 C.3     1  UNL1        0.4186
     30 F         -10.5331  -12.8498   33.9329 F       1  UNL1       -0.1659
     31 F         -12.0072  -11.5139   32.8759 F       1  UNL1       -0.1659
     32 F         -10.0003  -10.7129   33.5119 F       1  UNL1       -0.1659
     33 N          -3.4976  -15.7700   22.2523 N.pl3   1  UNL1       -0.2816
     34 H          -3.0478  -14.8460   22.0641 H       1  UNL1        0.1551
     35 C          -3.0404  -16.9208   21.5256 C.ar    1  UNL1        0.0889
     36 C          -2.2247  -17.8838   22.1504 C.ar    1  UNL1        0.1543
     37 F          -1.8454  -17.7334   23.4445 F       1  UNL1       -0.2028
     38 C          -1.7667  -18.9914   21.4308 C.ar    1  UNL1        0.0310
     39 C          -2.1047  -19.1422   20.0847 C.ar    1  UNL1        0.0033
     40 C          -2.8963  -18.1820   19.4507 C.ar    1  UNL1        0.0128
     41 C          -3.3599  -17.0688   20.1617 C.ar    1  UNL1        0.0733
     42 CL         -4.3692  -15.8919   19.3315 Cl      1  UNL1       -0.0809
@<TRIPOS>BOND
     1    22    23    1
     2    23    24   ar
     3    24    25   ar
     4    25    29    1
     5    29    30    1
     6    29    31    1
     7    29    32    1
     8    25    26   ar
     9    26    27   ar
    10    27    28   ar
    11    28    18    1
    12    18    19   am
    13    19    20    2
    14    19     1    1
    15     1     2   ar
    16     2     3   ar
    17     3     4   ar
    18     4     5   ar
    19     5     6   ar
    20     6    33    1
    21    33    35    1
    22    35    36   ar
    23    36    37    1
    24    36    38   ar
    25    38    39   ar
    26    39    40   ar
    27    40    41   ar
    28    41    42    1
    29     6     7   ar
    30     7     8   ar
    31     8     9   ar
    32     9    10    1
    33     3    11    1
    34    11    12    1
    35    12    13    1
    36    12    14    1
    37    12    15    1
    38    28    23   ar
    39     9     1   ar
    40    15     2    1
    41     8     4   ar
    42    41    35   ar
    43    18    21    1
    44     5    16    1
    45    33    34    1
    46    10    17    1
@<TRIPOS>MOLECULE
*****
 42 46 0 0 0
SMALL
GASTEIGER

@<TRIPOS>ATOM
      1 C          -7.0773  -13.7849   27.7461 C.ar    1  UNL1        0.0942
      2 C          -6.5144  -12.5680   28.1984 C.ar    1  UNL1        0.1405
      3 C          -7.0978  -11.8113   29.1810 C.ar    1  UNL1        0.0325
      4 C          -8.2826  -12.2499   29.7520 C.ar    1  UNL1        0.0760
      5 N          -9.0315  -11.6724   30.6974 N.ar    1  UNL1       -0.3255
      6 C         -10.0773  -12.5277   30.8339 C.ar    1  UNL1        0.1984
      7 N         -10.0241  -13.6051   30.0056 N.ar    1  UNL1       -0.2132
      8 C          -8.8721  -13.4102   29.3368 C.ar    1  UNL1        0.1051
      9 C          -8.3098  -14.2131   28.3280 C.ar    1  UNL1        0.0480
     10 S          -9.1928  -15.6707   27.7592 S.3     1  UNL1       -0.1397
     11 C          -6.2909  -10.5967   29.4579 C.3     1  UNL1        0.0709
     12 C          -5.0965  -10.7574   28.4578 C.3     1  UNL1        0.1375
     13 C          -5.0554   -9.6015   27.4493 C.3     1  UNL1        0.0439
     14 C          -3.7587  -10.8668   29.2013 C.3     1  UNL1        0.0439
     15 O          -5.3458  -11.9816   27.7582 O.3     1  UNL1       -0.4824
     16 H          -8.8606  -10.7639   31.1828 H       1  UNL1        0.1686
     17 H          -9.8874  -14.9335   26.7823 H       1  UNL1        0.1072
     18 N          -6.8705  -14.5203   25.3350 N.am    1  UNL1       -0.2805
     19 C          -6.3902  -14.5508   26.6893 C.2     1  UNL1        0.2530
     20 O          -5.3855  -15.2492   26.9944 O.2     1  UNL1       -0.2697
     21 H          -7.6674  -13.8865   25.1035 H       1  UNL1        0.1552
     22 C          -8.5644  -16.4189   23.9111 C.3     1  UNL1        0.0323
     23 C          -7.1043  -16.2559   23.5856 C.ar    1  UNL1       -0.0084
     24 C          -6.5236  -17.0572   22.5876 C.ar    1  UNL1        0.0008
     25 C          -5.1670  -16.9191   22.2511 C.ar    1  UNL1        0.0712
     26 C          -4.3771  -16.0074   22.9672 C.ar    1  UNL1        0.0051
     27 C          -4.9418  -15.2134   23.9664 C.ar    1  UNL1        0.0143
     28 C          -6.3079  -15.3157   24.2764 C.ar    1  UNL1        0.0465
     29 C          -4.5450  -17.8153   21.2093 C.3     1  UNL1        0.4186
     30 F          -5.4620  -18.1198   20.2180 F       1  UNL1       -0.1659
     31 F          -4.1247  -18.9874   21.8098 F       1  UNL1       -0.1659
     32 F          -3.4575  -17.1974   20.6163 F       1  UNL1       -0.1659
     33 N         -11.1787  -12.3002   31.7224 N.pl3   1  UNL1       -0.2816
     34 H         -11.6907  -11.3930   31.6441 H       1  UNL1        0.1551
     35 C         -11.5470  -13.2124   32.7683 C.ar    1  UNL1        0.0889
     36 C         -12.6720  -14.0474   32.6259 C.ar    1  UNL1        0.1543
     37 F         -13.4348  -13.9939   31.5051 F       1  UNL1       -0.2028
     38 C         -13.0363  -14.9186   33.6568 C.ar    1  UNL1        0.0310
     39 C         -12.2943  -14.9562   34.8388 C.ar    1  UNL1        0.0033
     40 C         -11.1890  -14.1173   34.9976 C.ar    1  UNL1        0.0128
     41 C         -10.8157  -13.2408   33.9719 C.ar    1  UNL1        0.0733
     42 CL         -9.4068  -12.2141   34.2041 Cl      1  UNL1       -0.0809
@<TRIPOS>BOND
     1    22    23    1
     2    23    24   ar
     3    24    25   ar
     4    25    29    1
     5    29    30    1
     6    29    31    1
     7    29    32    1
     8    25    26   ar
     9    26    27   ar
    10    27    28   ar
    11    28    18    1
    12    18    19   am
    13    19    20    2
    14    19     1    1
    15     1     2   ar
    16     2     3   ar
    17     3     4   ar
    18     4     5   ar
    19     5     6   ar
    20     6    33    1
    21    33    35    1
    22    35    36   ar
    23    36    37    1
    24    36    38   ar
    25    38    39   ar
    26    39    40   ar
    27    40    41   ar
    28    41    42    1
    29     6     7   ar
    30     7     8   ar
    31     8     9   ar
    32     9    10    1
    33     3    11    1
    34    11    12    1
    35    12    13    1
    36    12    14    1
    37    12    15    1
    38    28    23   ar
    39     9     1   ar
    40    15     2    1
    41     8     4   ar
    42    41    35   ar
    43    18    21    1
    44     5    16    1
    45    33    34    1
    46    10    17    1
@<TRIPOS>MOLECULE
*****
 42 46 0 0 0
SMALL
GASTEIGER

@<TRIPOS>ATOM
      1 C          -8.8936  -12.5374   29.8790 C.ar    1  UNL1        0.0942
      2 C          -9.8946  -12.5504   30.8792 C.ar    1  UNL1        0.1405
      3 C          -9.8478  -11.7268   31.9736 C.ar    1  UNL1        0.0325
      4 C          -8.7820  -10.8506   32.1095 C.ar    1  UNL1        0.0760
      5 N          -8.5198   -9.9822   33.0920 N.ar    1  UNL1       -0.3255
      6 C          -7.3411   -9.4257   32.7113 C.ar    1  UNL1        0.1984
      7 N          -6.8468   -9.9183   31.5439 N.ar    1  UNL1       -0.2132
      8 C          -7.7834  -10.8133   31.1779 C.ar    1  UNL1        0.1051
      9 C          -7.7902  -11.6451   30.0436 C.ar    1  UNL1        0.0480
     10 S          -6.3927  -11.6168   28.9147 S.3     1  UNL1       -0.1397
     11 C         -11.0251  -11.9492   32.8496 C.3     1  UNL1        0.0709
     12 C         -11.8060  -13.0660   32.0779 C.3     1  UNL1        0.1375
     13 C         -11.9231  -14.3451   32.9174 C.3     1  UNL1        0.0439
     14 C         -13.1962  -12.5781   31.6490 C.3     1  UNL1        0.0439
     15 O         -11.0246  -13.3413   30.9100 O.3     1  UNL1       -0.4824
     16 H          -9.0778   -9.8071   33.9569 H       1  UNL1        0.1686
     17 H          -5.7185  -12.6160   29.6408 H       1  UNL1        0.1072
     18 N          -7.8640  -14.1551   28.2298 N.am    1  UNL1       -0.2805
     19 C          -9.0130  -13.4474   28.7244 C.2     1  UNL1        0.2530
     20 O         -10.1349  -13.5815   28.1643 O.2     1  UNL1       -0.2697
     21 H          -6.9636  -14.0687   28.7515 H       1  UNL1        0.1552
     22 C          -5.4985  -14.3053   26.5319 C.3     1  UNL1        0.0323
     23 C          -6.7613  -15.0555   26.2048 C.ar    1  UNL1       -0.0084
     24 C          -6.8227  -15.8312   25.0345 C.ar    1  UNL1        0.0008
     25 C          -7.9820  -16.5541   24.7088 C.ar    1  UNL1        0.0712
     26 C          -9.1074  -16.4465   25.5394 C.ar    1  UNL1        0.0051
     27 C          -9.0601  -15.6716   26.6991 C.ar    1  UNL1        0.0143
     28 C          -7.8886  -14.9823   27.0530 C.ar    1  UNL1        0.0465
     29 C          -8.0510  -17.3475   23.4278 C.3     1  UNL1        0.4186
     30 F          -6.7793  -17.6091   22.9474 F       1  UNL1       -0.1659
     31 F          -8.7501  -16.6227   22.4808 F       1  UNL1       -0.1659
     32 F          -8.6920  -18.5570   23.6334 F       1  UNL1       -0.1659
     33 N          -6.6358   -8.4497   33.4887 N.pl3   1  UNL1       -0.2816
     34 H          -6.9379   -8.3011   34.4776 H       1  UNL1        0.1551
     35 C          -5.6062   -7.6077   32.9478 C.ar    1  UNL1        0.0889
     36 C          -4.3709   -7.4729   33.6103 C.ar    1  UNL1        0.1543
     37 F          -4.1380   -8.1243   34.7775 F       1  UNL1       -0.2028
     38 C          -3.3805   -6.6355   33.0884 C.ar    1  UNL1        0.0310
     39 C          -3.6156   -5.9180   31.9141 C.ar    1  UNL1        0.0033
     40 C          -4.8450   -6.0293   31.2608 C.ar    1  UNL1        0.0128
     41 C          -5.8438   -6.8645   31.7750 C.ar    1  UNL1        0.0733
     42 CL         -7.3713   -6.9909   30.9125 Cl      1  UNL1       -0.0809
@<TRIPOS>BOND
     1    22    23    1
     2    23    24   ar
     3    24    25   ar
     4    25    29    1
     5    29    30    1
     6    29    31    1
     7    29    32    1
     8    25    26   ar
     9    26    27   ar
    10    27    28   ar
    11    28    18    1
    12    18    19   am
    13    19    20    2
    14    19     1    1
    15     1     2   ar
    16     2     3   ar
    17     3     4   ar
    18     4     5   ar
    19     5     6   ar
    20     6    33    1
    21    33    35    1
    22    35    36   ar
    23    36    37    1
    24    36    38   ar
    25    38    39   ar
    26    39    40   ar
    27    40    41   ar
    28    41    42    1
    29     6     7   ar
    30     7     8   ar
    31     8     9   ar
    32     9    10    1
    33     3    11    1
    34    11    12    1
    35    12    13    1
    36    12    14    1
    37    12    15    1
    38    28    23   ar
    39     9     1   ar
    40    15     2    1
    41     8     4   ar
    42    41    35   ar
    43    18    21    1
    44     5    16    1
    45    33    34    1
    46    10    17    1
@<TRIPOS>MOLECULE
*****
 42 46 0 0 0
SMALL
GASTEIGER

@<TRIPOS>ATOM
      1 C          -7.1021  -13.2585   28.2191 C.ar    1  UNL1        0.0942
      2 C          -6.6944  -12.0717   28.8733 C.ar    1  UNL1        0.1405
      3 C          -7.4527  -11.4734   29.8455 C.ar    1  UNL1        0.0325
      4 C          -8.6636  -12.0473   30.2009 C.ar    1  UNL1        0.0760
      5 N          -9.5675  -11.6322   31.0947 N.ar    1  UNL1       -0.3255
      6 C         -10.5545  -12.5594   30.9953 C.ar    1  UNL1        0.1984
      7 N         -10.3159  -13.5260   30.0688 N.ar    1  UNL1       -0.2132
      8 C          -9.1067  -13.1839   29.5860 C.ar    1  UNL1        0.1051
      9 C          -8.3623  -13.8263   28.5800 C.ar    1  UNL1        0.0480
     10 S          -9.0538  -15.2572   27.7419 S.3     1  UNL1       -0.1397
     11 C          -6.7812  -10.2535   30.3593 C.3     1  UNL1        0.0709
     12 C          -5.4614  -10.2220   29.5170 C.3     1  UNL1        0.1375
     13 C          -5.3805   -8.9546   28.6558 C.3     1  UNL1        0.0439
     14 C          -4.2239  -10.3375   30.4169 C.3     1  UNL1        0.0439
     15 O          -5.5272  -11.3677   28.6607 O.3     1  UNL1       -0.4824
     16 H          -9.5283  -10.7789   31.6951 H       1  UNL1        0.1686
     17 H          -9.6730  -14.4529   26.7672 H       1  UNL1        0.1072
     18 N          -6.6366  -15.0350   26.4801 N.am    1  UNL1       -0.2805
     19 C          -6.2311  -13.8509   27.1867 C.2     1  UNL1        0.2530
     20 O          -5.1156  -13.3146   26.9456 O.2     1  UNL1       -0.2697
     21 H          -7.5903  -15.4202   26.6602 H       1  UNL1        0.1552
     22 C          -7.3160  -14.9561   23.6458 C.3     1  UNL1        0.0323
     23 C          -6.1179  -15.7103   24.1558 C.ar    1  UNL1       -0.0084
     24 C          -5.3127  -16.4242   23.2519 C.ar    1  UNL1        0.0008
     25 C          -4.1798  -17.1264   23.6950 C.ar    1  UNL1        0.0712
     26 C          -3.8911  -17.1567   25.0674 C.ar    1  UNL1        0.0051
     27 C          -4.6895  -16.4587   25.9746 C.ar    1  UNL1        0.0143
     28 C          -5.7978  -15.7183   25.5317 C.ar    1  UNL1        0.0465
     29 C          -3.3490  -17.9249   22.7216 C.3     1  UNL1        0.4186
     30 F          -2.0162  -17.9146   23.0953 F       1  UNL1       -0.1659
     31 F          -3.4678  -17.3710   21.4607 F       1  UNL1       -0.1659
     32 F          -3.7748  -19.2414   22.6776 F       1  UNL1       -0.1659
     33 N         -11.7734  -12.5057   31.7475 N.pl3   1  UNL1       -0.2816
     34 H         -12.4158  -11.6990   31.5805 H       1  UNL1        0.1551
     35 C         -12.1039  -13.4493   32.7780 C.ar    1  UNL1        0.0889
     36 C         -13.2265  -14.2892   32.6456 C.ar    1  UNL1        0.1543
     37 F         -14.0225  -14.2110   31.5496 F       1  UNL1       -0.2028
     38 C         -13.5539  -15.1914   33.6622 C.ar    1  UNL1        0.0310
     39 C         -12.7769  -15.2555   34.8203 C.ar    1  UNL1        0.0033
     40 C         -11.6736  -14.4124   34.9698 C.ar    1  UNL1        0.0128
     41 C         -11.3372  -13.5050   33.9584 C.ar    1  UNL1        0.0733
     42 CL         -9.9296  -12.4737   34.1775 Cl      1  UNL1       -0.0809
@<TRIPOS>BOND
     1    22    23    1
     2    23    24   ar
     3    24    25   ar
     4    25    29    1
     5    29    30    1
     6    29    31    1
     7    29    32    1
     8    25    26   ar
     9    26    27   ar
    10    27    28   ar
    11    28    18    1
    12    18    19   am
    13    19    20    2
    14    19     1    1
    15     1     2   ar
    16     2     3   ar
    17     3     4   ar
    18     4     5   ar
    19     5     6   ar
    20     6    33    1
    21    33    35    1
    22    35    36   ar
    23    36    37    1
    24    36    38   ar
    25    38    39   ar
    26    39    40   ar
    27    40    41   ar
    28    41    42    1
    29     6     7   ar
    30     7     8   ar
    31     8     9   ar
    32     9    10    1
    33     3    11    1
    34    11    12    1
    35    12    13    1
    36    12    14    1
    37    12    15    1
    38    28    23   ar
    39     9     1   ar
    40    15     2    1
    41     8     4   ar
    42    41    35   ar
    43    18    21    1
    44     5    16    1
    45    33    34    1
    46    10    17    1
@<TRIPOS>MOLECULE
*****
 42 46 0 0 0
SMALL
GASTEIGER

@<TRIPOS>ATOM
      1 C          -7.1703  -12.8237   28.7175 C.ar    1  UNL1        0.0942
      2 C          -6.6068  -11.7320   29.4196 C.ar    1  UNL1        0.1405
      3 C          -7.2195  -11.1648   30.5064 C.ar    1  UNL1        0.0325
      4 C          -8.4357  -11.6750   30.9338 C.ar    1  UNL1        0.0760
      5 N          -9.2154  -11.2722   31.9428 N.ar    1  UNL1       -0.3255
      6 C         -10.2809  -12.1106   31.8688 C.ar    1  UNL1        0.1984
      7 N         -10.2101  -13.0086   30.8498 N.ar    1  UNL1       -0.2132
      8 C          -9.0266  -12.7177   30.2780 C.ar    1  UNL1        0.1051
      9 C          -8.4345  -13.3246   29.1557 C.ar    1  UNL1        0.0480
     10 S          -9.3169  -14.6216   28.2799 S.3     1  UNL1       -0.1397
     11 C          -6.4045  -10.0478   31.0458 C.3     1  UNL1        0.0709
     12 C          -5.1703  -10.0426   30.0819 C.3     1  UNL1        0.1375
     13 C          -5.0646   -8.7151   29.3197 C.3     1  UNL1        0.0439
     14 C          -3.8686  -10.3280   30.8427 C.3     1  UNL1        0.0439
     15 O          -5.4099  -11.1017   29.1486 O.3     1  UNL1       -0.4824
     16 H          -9.0501  -10.4794   32.6018 H       1  UNL1        0.1686
     17 H          -9.9549  -13.6919   27.4379 H       1  UNL1        0.1072
     18 N          -6.8712  -14.6312   26.9739 N.am    1  UNL1       -0.2805
     19 C          -6.4509  -13.3882   27.5603 C.2     1  UNL1        0.2530
     20 O          -5.4485  -12.7741   27.1038 O.2     1  UNL1       -0.2697
     21 H          -7.7393  -15.0844   27.3365 H       1  UNL1        0.1552
     22 C          -8.0558  -14.7356   24.3117 C.3     1  UNL1        0.0323
     23 C          -6.7230  -15.3651   24.6145 C.ar    1  UNL1       -0.0084
     24 C          -6.0341  -16.0503   23.5990 C.ar    1  UNL1        0.0008
     25 C          -4.7819  -16.6364   23.8464 C.ar    1  UNL1        0.0712
     26 C          -4.2485  -16.5813   25.1427 C.ar    1  UNL1        0.0051
     27 C          -4.9287  -15.9114   26.1606 C.ar    1  UNL1        0.0143
     28 C          -6.1602  -15.2852   25.9077 C.ar    1  UNL1        0.0465
     29 C          -4.0729  -17.4068   22.7606 C.3     1  UNL1        0.4186
     30 F          -2.8005  -16.9016   22.5557 F       1  UNL1       -0.1659
     31 F          -4.7933  -17.3038   21.5852 F       1  UNL1       -0.1659
     32 F          -3.9569  -18.7431   23.1026 F       1  UNL1       -0.1659
     33 N         -11.4162  -12.0311   32.7400 N.pl3   1  UNL1       -0.2816
     34 H         -11.6654  -11.0962   33.1342 H       1  UNL1        0.1551
     35 C         -12.1619  -13.1812   33.1675 C.ar    1  UNL1        0.0889
     36 C         -11.6896  -13.9892   34.2198 C.ar    1  UNL1        0.1543
     37 F         -10.5158  -13.7033   34.8374 F       1  UNL1       -0.2028
     38 C         -12.4108  -15.1191   34.6173 C.ar    1  UNL1        0.0310
     39 C         -13.5967  -15.4600   33.9643 C.ar    1  UNL1        0.0033
     40 C         -14.0626  -14.6764   32.9062 C.ar    1  UNL1        0.0128
     41 C         -13.3481  -13.5433   32.4998 C.ar    1  UNL1        0.0733
     42 CL        -13.9781  -12.5729   31.1752 Cl      1  UNL1       -0.0809
@<TRIPOS>BOND
     1    22    23    1
     2    23    24   ar
     3    24    25   ar
     4    25    29    1
     5    29    30    1
     6    29    31    1
     7    29    32    1
     8    25    26   ar
     9    26    27   ar
    10    27    28   ar
    11    28    18    1
    12    18    19   am
    13    19    20    2
    14    19     1    1
    15     1     2   ar
    16     2     3   ar
    17     3     4   ar
    18     4     5   ar
    19     5     6   ar
    20     6    33    1
    21    33    35    1
    22    35    36   ar
    23    36    37    1
    24    36    38   ar
    25    38    39   ar
    26    39    40   ar
    27    40    41   ar
    28    41    42    1
    29     6     7   ar
    30     7     8   ar
    31     8     9   ar
    32     9    10    1
    33     3    11    1
    34    11    12    1
    35    12    13    1
    36    12    14    1
    37    12    15    1
    38    28    23   ar
    39     9     1   ar
    40    15     2    1
    41     8     4   ar
    42    41    35   ar
    43    18    21    1
    44     5    16    1
    45    33    34    1
    46    10    17    1
