@<TRIPOS>MOLECULE
*****
 47 52 0 0 0
SMALL
GASTEIGER

@<TRIPOS>ATOM
      1 N          -8.3271  -11.6733   31.9359 N.am    1  UNL1       -0.2945
      2 C          -9.0910  -11.8166   30.7280 C.2     1  UNL1        0.2483
      3 O         -10.1976  -11.2204   30.6249 O.2     1  UNL1       -0.2701
      4 H          -7.5825  -12.3747   32.1478 H       1  UNL1        0.1501
      5 C          -8.5803  -12.6264   29.5889 C.ar    1  UNL1        0.0808
      6 C          -9.4205  -13.5461   28.9313 C.ar    1  UNL1        0.0080
      7 C          -8.9265  -14.3626   27.9128 C.ar    1  UNL1        0.0148
      8 C          -7.5832  -14.2809   27.5240 C.ar    1  UNL1        0.0502
      9 C          -6.7423  -13.3577   28.1639 C.ar    1  UNL1        0.0443
     10 C          -7.2309  -12.5398   29.1877 C.ar    1  UNL1        0.1457
     11 F          -6.3795  -11.6645   29.7807 F       1  UNL1       -0.2040
     12 N          -7.0781  -15.1404   26.4844 N.pl3   1  UNL1       -0.3040
     13 C          -5.6570  -15.5063   26.4460 C.3     1  UNL1        0.1122
     14 C          -5.1684  -15.5835   24.9974 C.3     1  UNL1        0.1122
     15 N          -6.1102  -16.3640   24.1859 N.pl3   1  UNL1       -0.3041
     16 C          -7.5266  -15.9820   24.2241 C.3     1  UNL1        0.1122
     17 C          -8.0118  -15.9291   25.6712 C.3     1  UNL1        0.1122
     18 C          -5.6298  -17.2472   23.1548 C.ar    1  UNL1        0.0480
     19 C          -4.2815  -17.6414   23.1353 C.ar    1  UNL1        0.0154
     20 C          -3.8092  -18.4960   22.1346 C.ar    1  UNL1        0.0127
     21 C          -4.6783  -18.9639   21.1441 C.ar    1  UNL1        0.0578
     22 CL         -4.0842  -20.0362   19.8895 Cl      1  UNL1       -0.0822
     23 C          -6.0215  -18.5749   21.1544 C.ar    1  UNL1        0.0127
     24 C          -6.4964  -17.7197   22.1535 C.ar    1  UNL1        0.0154
     25 C          -8.4939  -10.5201   32.8323 C.3     1  UNL1        0.1535
     26 C          -8.3825   -9.2231   32.0564 C.2     1  UNL1        0.2443
     27 O          -7.2614   -8.6605   31.9199 O.2     1  UNL1       -0.2730
     28 N          -9.5268   -8.7068   31.3579 N.am    1  UNL1       -0.2825
     29 H         -10.2982   -9.3725   31.1243 H       1  UNL1        0.1549
     30 C          -9.6392   -7.3493   30.8978 C.ar    1  UNL1        0.0535
     31 C          -8.5009   -6.6872   30.4176 C.ar    1  UNL1        0.0353
     32 C          -8.6100   -5.3763   29.9473 C.ar    1  UNL1        0.1002
     33 N          -9.8175   -4.7523   29.9410 N.ar    1  UNL1       -0.2422
     34 C         -10.9425   -5.3744   30.3825 C.ar    1  UNL1        0.1002
     35 C         -10.8775   -6.6849   30.8622 C.ar    1  UNL1        0.0353
     36 C          -9.8212  -10.6401   33.6242 C.3     1  UNL1        0.0569
     37 C         -14.0337  -15.9928   33.2633 C.3     1  UNL1        0.0311
     38 C         -13.0255  -14.8958   33.4281 C.ar    1  UNL1       -0.0204
     39 C         -13.0771  -13.7479   32.5986 C.ar    1  UNL1       -0.0042
     40 C         -12.1227  -12.7242   32.7317 C.ar    1  UNL1        0.0008
     41 C         -11.1259  -12.8798   33.6960 C.ar    1  UNL1        0.0131
     42 C         -10.0950  -12.0460   34.0930 C.ar    1  UNL1       -0.0017
     43 C          -9.4381  -12.7260   35.1154 C.ar    1  UNL1        0.0681
     44 N         -10.0295  -13.9199   35.3457 N.ar    1  UNL1       -0.3523
     45 C         -11.0567  -13.9998   34.4829 C.ar    1  UNL1        0.0560
     46 C         -11.9882  -15.0313   34.3758 C.ar    1  UNL1        0.0127
     47 H          -9.7552  -14.6237   36.0667 H       1  UNL1        0.1660
@<TRIPOS>BOND
     1    37    38    1
     2    38    39   ar
     3    39    40   ar
     4    40    41   ar
     5    41    42   ar
     6    42    36    1
     7    36    25    1
     8    25     1    1
     9     1     2   am
    10     2     3    2
    11     2     5    1
    12     5     6   ar
    13     6     7   ar
    14     7     8   ar
    15     8    12    1
    16    12    13    1
    17    13    14    1
    18    14    15    1
    19    15    18    1
    20    18    19   ar
    21    19    20   ar
    22    20    21   ar
    23    21    22    1
    24    21    23   ar
    25    23    24   ar
    26    15    16    1
    27    16    17    1
    28     8     9   ar
    29     9    10   ar
    30    10    11    1
    31    25    26    1
    32    26    27    2
    33    26    28   am
    34    28    30    1
    35    30    31   ar
    36    31    32   ar
    37    32    33   ar
    38    33    34   ar
    39    34    35   ar
    40    42    43   ar
    41    43    44   ar
    42    44    45   ar
    43    45    46   ar
    44    46    38   ar
    45    45    41   ar
    46    10     5   ar
    47    35    30   ar
    48    17    12    1
    49    24    18   ar
    50     1     4    1
    51    28    29    1
    52    44    47    1
@<TRIPOS>MOLECULE
*****
 47 52 0 0 0
SMALL
GASTEIGER

@<TRIPOS>ATOM
      1 N          -8.8751  -12.0464   32.1939 N.am    1  UNL1       -0.2945
      2 C          -8.8981  -11.5520   30.8455 C.2     1  UNL1        0.2483
      3 O          -9.2696  -10.3660   30.6308 O.2     1  UNL1       -0.2701
      4 H          -8.8603  -13.0789   32.3522 H       1  UNL1        0.1501
      5 C          -8.4581  -12.4046   29.7082 C.ar    1  UNL1        0.0808
      6 C          -9.3617  -13.2864   29.0835 C.ar    1  UNL1        0.0080
      7 C          -8.9359  -14.1430   28.0671 C.ar    1  UNL1        0.0148
      8 C          -7.5994  -14.1403   27.6478 C.ar    1  UNL1        0.0502
      9 C          -6.6953  -13.2553   28.2547 C.ar    1  UNL1        0.0443
     10 C          -7.1154  -12.3975   29.2762 C.ar    1  UNL1        0.1457
     11 F          -6.2046  -11.5616   29.8368 F       1  UNL1       -0.2040
     12 N          -7.1654  -15.0408   26.6108 N.pl3   1  UNL1       -0.3040
     13 C          -5.7437  -15.3752   26.4621 C.3     1  UNL1        0.1122
     14 C          -5.3844  -15.5163   24.9810 C.3     1  UNL1        0.1122
     15 N          -6.3728  -16.3597   24.2979 N.pl3   1  UNL1       -0.3041
     16 C          -7.7903  -16.0091   24.4451 C.3     1  UNL1        0.1122
     17 C          -8.1456  -15.8923   25.9258 C.3     1  UNL1        0.1122
     18 C          -5.9620  -17.2841   23.2728 C.ar    1  UNL1        0.0480
     19 C          -4.6099  -17.6449   23.1489 C.ar    1  UNL1        0.0154
     20 C          -4.2053  -18.5392   22.1533 C.ar    1  UNL1        0.0127
     21 C          -5.1465  -19.0806   21.2721 C.ar    1  UNL1        0.0578
     22 CL         -4.6371  -20.2026   20.0238 Cl      1  UNL1       -0.0822
     23 C          -6.4941  -18.7252   21.3867 C.ar    1  UNL1        0.0127
     24 C          -6.9015  -17.8305   22.3808 C.ar    1  UNL1        0.0154
     25 C          -8.7744  -11.1476   33.3528 C.3     1  UNL1        0.1535
     26 C          -8.0892   -9.8531   32.9637 C.2     1  UNL1        0.2443
     27 O          -8.7714   -8.8118   32.7578 O.2     1  UNL1       -0.2730
     28 N          -6.6547   -9.7744   32.9656 N.am    1  UNL1       -0.2825
     29 H          -6.1274  -10.4763   33.5330 H       1  UNL1        0.1549
     30 C          -5.9080   -8.7450   32.2947 C.ar    1  UNL1        0.0535
     31 C          -5.8930   -8.7055   30.8937 C.ar    1  UNL1        0.0353
     32 C          -5.1883   -7.6932   30.2377 C.ar    1  UNL1        0.1002
     33 N          -4.5340   -6.7424   30.9556 N.ar    1  UNL1       -0.2422
     34 C          -4.5456   -6.7430   32.3147 C.ar    1  UNL1        0.1002
     35 C          -5.2371   -7.7381   33.0102 C.ar    1  UNL1        0.0353
     36 C         -10.1715  -10.9266   33.9871 C.3     1  UNL1        0.0569
     37 C         -13.5332  -16.7186   32.6916 C.3     1  UNL1        0.0311
     38 C         -12.8844  -15.3813   32.8860 C.ar    1  UNL1       -0.0204
     39 C         -11.9469  -15.1876   33.9309 C.ar    1  UNL1       -0.0042
     40 C         -11.3498  -13.9311   34.1340 C.ar    1  UNL1        0.0008
     41 C         -11.7152  -12.8873   33.2828 C.ar    1  UNL1        0.0131
     42 C         -11.2789  -11.5765   33.1983 C.ar    1  UNL1       -0.0017
     43 C         -11.9865  -11.0157   32.1381 C.ar    1  UNL1        0.0681
     44 N         -12.8184  -11.9290   31.5886 N.ar    1  UNL1       -0.3523
     45 C         -12.6407  -13.0632   32.2873 C.ar    1  UNL1        0.0560
     46 C         -13.2493  -14.2964   32.0600 C.ar    1  UNL1        0.0127
     47 H         -13.4511  -11.7848   30.7705 H       1  UNL1        0.1660
@<TRIPOS>BOND
     1    37    38    1
     2    38    39   ar
     3    39    40   ar
     4    40    41   ar
     5    41    42   ar
     6    42    36    1
     7    36    25    1
     8    25     1    1
     9     1     2   am
    10     2     3    2
    11     2     5    1
    12     5     6   ar
    13     6     7   ar
    14     7     8   ar
    15     8    12    1
    16    12    13    1
    17    13    14    1
    18    14    15    1
    19    15    18    1
    20    18    19   ar
    21    19    20   ar
    22    20    21   ar
    23    21    22    1
    24    21    23   ar
    25    23    24   ar
    26    15    16    1
    27    16    17    1
    28     8     9   ar
    29     9    10   ar
    30    10    11    1
    31    25    26    1
    32    26    27    2
    33    26    28   am
    34    28    30    1
    35    30    31   ar
    36    31    32   ar
    37    32    33   ar
    38    33    34   ar
    39    34    35   ar
    40    42    43   ar
    41    43    44   ar
    42    44    45   ar
    43    45    46   ar
    44    46    38   ar
    45    45    41   ar
    46    10     5   ar
    47    35    30   ar
    48    17    12    1
    49    24    18   ar
    50     1     4    1
    51    28    29    1
    52    44    47    1
@<TRIPOS>MOLECULE
*****
 47 52 0 0 0
SMALL
GASTEIGER

@<TRIPOS>ATOM
      1 N          -8.7826  -11.7013   31.8105 N.am    1  UNL1       -0.2945
      2 C          -7.9041  -11.5419   30.6855 C.2     1  UNL1        0.2483
      3 O          -7.1379  -10.5412   30.6395 O.2     1  UNL1       -0.2701
      4 H          -9.6059  -12.3382   31.7212 H       1  UNL1        0.1501
      5 C          -7.8608  -12.5549   29.5964 C.ar    1  UNL1        0.0808
      6 C          -6.6567  -12.8240   28.9168 C.ar    1  UNL1        0.0080
      7 C          -6.6263  -13.7169   27.8444 C.ar    1  UNL1        0.0148
      8 C          -7.7952  -14.3645   27.4246 C.ar    1  UNL1        0.0502
      9 C          -8.9966  -14.1133   28.1047 C.ar    1  UNL1        0.0443
     10 C          -9.0338  -13.2167   29.1773 C.ar    1  UNL1        0.1457
     11 F         -10.2194  -13.0020   29.8023 F       1  UNL1       -0.2040
     12 N          -7.7575  -15.2704   26.3055 N.pl3   1  UNL1       -0.3040
     13 C          -6.6024  -15.2867   25.3995 C.3     1  UNL1        0.1122
     14 C          -7.0608  -15.5361   23.9606 C.3     1  UNL1        0.1122
     15 N          -7.9967  -16.6661   23.9154 N.pl3   1  UNL1       -0.3041
     16 C          -9.1534  -16.6334   24.8181 C.3     1  UNL1        0.1122
     17 C          -8.6857  -16.4066   26.2541 C.3     1  UNL1        0.1122
     18 C          -7.9650  -17.5988   22.8186 C.ar    1  UNL1        0.0480
     19 C          -9.1478  -18.2241   22.3899 C.ar    1  UNL1        0.0154
     20 C          -9.1220  -19.1330   21.3278 C.ar    1  UNL1        0.0127
     21 C          -7.9153  -19.4264   20.6849 C.ar    1  UNL1        0.0578
     22 CL         -7.8848  -20.5667   19.3524 Cl      1  UNL1       -0.0822
     23 C          -6.7328  -18.8103   21.1065 C.ar    1  UNL1        0.0127
     24 C          -6.7555  -17.9017   22.1688 C.ar    1  UNL1        0.0154
     25 C          -8.5067  -11.0737   33.1109 C.3     1  UNL1        0.1535
     26 C          -7.8970   -9.6996   32.9194 C.2     1  UNL1        0.2443
     27 O          -8.6386   -8.7008   32.7088 O.2     1  UNL1       -0.2730
     28 N          -6.4868   -9.5090   33.1163 N.am    1  UNL1       -0.2825
     29 H          -5.9735  -10.2157   33.6906 H       1  UNL1        0.1549
     30 C          -5.7574   -8.3679   32.6334 C.ar    1  UNL1        0.0535
     31 C          -4.7326   -7.8216   33.4183 C.ar    1  UNL1        0.0353
     32 C          -4.0054   -6.7277   32.9428 C.ar    1  UNL1        0.1002
     33 N          -4.2804   -6.2063   31.7181 N.ar    1  UNL1       -0.2422
     34 C          -5.2552   -6.7257   30.9259 C.ar    1  UNL1        0.1002
     35 C          -6.0070   -7.8189   31.3636 C.ar    1  UNL1        0.0353
     36 C          -9.7888  -11.0514   33.9820 C.3     1  UNL1        0.0569
     37 C         -13.8239  -16.4472   32.9182 C.3     1  UNL1        0.0311
     38 C         -13.0237  -15.1880   33.0651 C.ar    1  UNL1       -0.0204
     39 C         -12.0219  -15.0910   34.0628 C.ar    1  UNL1       -0.0042
     40 C         -11.2815  -13.9065   34.2219 C.ar    1  UNL1        0.0008
     41 C         -11.5703  -12.8353   33.3753 C.ar    1  UNL1        0.0131
     42 C         -10.9973  -11.5812   33.2539 C.ar    1  UNL1       -0.0017
     43 C         -11.6887  -10.9538   32.2206 C.ar    1  UNL1        0.0681
     44 N         -12.6410  -11.7741   31.7221 N.ar    1  UNL1       -0.3523
     45 C         -12.5558  -12.9156   32.4262 C.ar    1  UNL1        0.0560
     46 C         -13.3062  -14.0759   32.2432 C.ar    1  UNL1        0.0127
     47 H         -13.2923  -11.5672   30.9325 H       1  UNL1        0.1660
@<TRIPOS>BOND
     1    37    38    1
     2    38    39   ar
     3    39    40   ar
     4    40    41   ar
     5    41    42   ar
     6    42    36    1
     7    36    25    1
     8    25     1    1
     9     1     2   am
    10     2     3    2
    11     2     5    1
    12     5     6   ar
    13     6     7   ar
    14     7     8   ar
    15     8    12    1
    16    12    13    1
    17    13    14    1
    18    14    15    1
    19    15    18    1
    20    18    19   ar
    21    19    20   ar
    22    20    21   ar
    23    21    22    1
    24    21    23   ar
    25    23    24   ar
    26    15    16    1
    27    16    17    1
    28     8     9   ar
    29     9    10   ar
    30    10    11    1
    31    25    26    1
    32    26    27    2
    33    26    28   am
    34    28    30    1
    35    30    31   ar
    36    31    32   ar
    37    32    33   ar
    38    33    34   ar
    39    34    35   ar
    40    42    43   ar
    41    43    44   ar
    42    44    45   ar
    43    45    46   ar
    44    46    38   ar
    45    45    41   ar
    46    10     5   ar
    47    35    30   ar
    48    17    12    1
    49    24    18   ar
    50     1     4    1
    51    28    29    1
    52    44    47    1
@<TRIPOS>MOLECULE
*****
 47 52 0 0 0
SMALL
GASTEIGER

@<TRIPOS>ATOM
      1 N          -8.3471  -11.5729   31.3855 N.am    1  UNL1       -0.2945
      2 C          -7.3577  -11.7479   30.3590 C.2     1  UNL1        0.2483
      3 O          -6.3137  -11.0407   30.3833 O.2     1  UNL1       -0.2701
      4 H          -9.3167  -11.9231   31.2162 H       1  UNL1        0.1501
      5 C          -7.5309  -12.7715   29.2930 C.ar    1  UNL1        0.0808
      6 C          -6.4382  -13.1681   28.4975 C.ar    1  UNL1        0.0080
      7 C          -6.6103  -14.0708   27.4470 C.ar    1  UNL1        0.0148
      8 C          -7.8757  -14.6013   27.1651 C.ar    1  UNL1        0.0502
      9 C          -8.9674  -14.2228   27.9612 C.ar    1  UNL1        0.0443
     10 C          -8.8016  -13.3157   29.0127 C.ar    1  UNL1        0.1457
     11 F          -9.8871  -12.9757   29.7532 F       1  UNL1       -0.2040
     12 N          -8.0469  -15.5182   26.0675 N.pl3   1  UNL1       -0.3040
     13 C          -7.2190  -15.3981   24.8612 C.3     1  UNL1        0.1122
     14 C          -8.0427  -15.7388   23.6169 C.3     1  UNL1        0.1122
     15 N          -8.7880  -16.9856   23.8282 N.pl3   1  UNL1       -0.3041
     16 C          -9.6207  -17.0897   25.0321 C.3     1  UNL1        0.1122
     17 C          -8.7859  -16.7703   26.2705 C.3     1  UNL1        0.1122
     18 C          -8.9547  -17.9293   22.7532 C.ar    1  UNL1        0.0480
     19 C          -7.8984  -18.1752   21.8602 C.ar    1  UNL1        0.0154
     20 C          -8.0561  -19.0878   20.8128 C.ar    1  UNL1        0.0127
     21 C          -9.2698  -19.7624   20.6470 C.ar    1  UNL1        0.0578
     22 CL         -9.4659  -20.9072   19.3326 Cl      1  UNL1       -0.0822
     23 C         -10.3273  -19.5221   21.5298 C.ar    1  UNL1        0.0127
     24 C         -10.1728  -18.6094   22.5777 C.ar    1  UNL1        0.0154
     25 C          -8.0153  -11.0053   32.7003 C.3     1  UNL1        0.1535
     26 C          -7.7835   -9.5116   32.5914 C.2     1  UNL1        0.2443
     27 O          -7.6868   -8.8075   33.6339 O.2     1  UNL1       -0.2730
     28 N          -7.5341   -8.9182   31.3071 N.am    1  UNL1       -0.2825
     29 H          -7.1968   -9.5409   30.5381 H       1  UNL1        0.1549
     30 C          -7.6498   -7.5104   31.0389 C.ar    1  UNL1        0.0535
     31 C          -6.4950   -6.7617   30.7729 C.ar    1  UNL1        0.0353
     32 C          -6.6048   -5.3984   30.4885 C.ar    1  UNL1        0.1002
     33 N          -7.8272   -4.8052   30.4542 N.ar    1  UNL1       -0.2422
     34 C          -8.9665   -5.5083   30.6892 C.ar    1  UNL1        0.1002
     35 C          -8.9015   -6.8735   30.9788 C.ar    1  UNL1        0.0353
     36 C          -9.1059  -11.3750   33.7382 C.3     1  UNL1        0.0569
     37 C         -14.0522  -16.0466   33.2512 C.3     1  UNL1        0.0311
     38 C         -13.0420  -14.9391   33.2689 C.ar    1  UNL1       -0.0204
     39 C         -11.9913  -14.9463   34.2199 C.ar    1  UNL1       -0.0042
     40 C         -11.0521  -13.9007   34.2577 C.ar    1  UNL1        0.0008
     41 C         -11.1938  -12.8599   33.3389 C.ar    1  UNL1        0.0131
     42 C         -10.4210  -11.7373   33.0976 C.ar    1  UNL1       -0.0017
     43 C         -11.0439  -11.0756   32.0424 C.ar    1  UNL1        0.0681
     44 N         -12.1456  -11.7510   31.6448 N.ar    1  UNL1       -0.3523
     45 C         -12.2232  -12.8357   32.4344 C.ar    1  UNL1        0.0560
     46 C         -13.1693  -13.8574   32.3712 C.ar    1  UNL1        0.0127
     47 H         -12.7894  -11.4915   30.8646 H       1  UNL1        0.1660
@<TRIPOS>BOND
     1    37    38    1
     2    38    39   ar
     3    39    40   ar
     4    40    41   ar
     5    41    42   ar
     6    42    36    1
     7    36    25    1
     8    25     1    1
     9     1     2   am
    10     2     3    2
    11     2     5    1
    12     5     6   ar
    13     6     7   ar
    14     7     8   ar
    15     8    12    1
    16    12    13    1
    17    13    14    1
    18    14    15    1
    19    15    18    1
    20    18    19   ar
    21    19    20   ar
    22    20    21   ar
    23    21    22    1
    24    21    23   ar
    25    23    24   ar
    26    15    16    1
    27    16    17    1
    28     8     9   ar
    29     9    10   ar
    30    10    11    1
    31    25    26    1
    32    26    27    2
    33    26    28   am
    34    28    30    1
    35    30    31   ar
    36    31    32   ar
    37    32    33   ar
    38    33    34   ar
    39    34    35   ar
    40    42    43   ar
    41    43    44   ar
    42    44    45   ar
    43    45    46   ar
    44    46    38   ar
    45    45    41   ar
    46    10     5   ar
    47    35    30   ar
    48    17    12    1
    49    24    18   ar
    50     1     4    1
    51    28    29    1
    52    44    47    1
@<TRIPOS>MOLECULE
*****
 47 52 0 0 0
SMALL
GASTEIGER

@<TRIPOS>ATOM
      1 N         -10.8075  -10.9936   30.4402 N.am    1  UNL1       -0.2945
      2 C          -9.7629  -11.9382   30.7224 C.2     1  UNL1        0.2483
      3 O          -9.4260  -12.1440   31.9202 O.2     1  UNL1       -0.2701
      4 H         -10.8872  -10.6035   29.4744 H       1  UNL1        0.1501
      5 C          -9.1008  -12.6992   29.6285 C.ar    1  UNL1        0.0808
      6 C          -9.8192  -13.6576   28.8871 C.ar    1  UNL1        0.0080
      7 C          -9.1843  -14.4281   27.9117 C.ar    1  UNL1        0.0148
      8 C          -7.8183  -14.2608   27.6506 C.ar    1  UNL1        0.0502
      9 C          -7.0979  -13.2986   28.3745 C.ar    1  UNL1        0.0443
     10 C          -7.7278  -12.5264   29.3557 C.ar    1  UNL1        0.1457
     11 F          -6.9897  -11.6108   30.0334 F       1  UNL1       -0.2040
     12 N          -7.1680  -15.0732   26.6548 N.pl3   1  UNL1       -0.3040
     13 C          -5.8016  -15.5644   26.8712 C.3     1  UNL1        0.1122
     14 C          -5.0235  -15.5649   25.5531 C.3     1  UNL1        0.1122
     15 N          -5.8257  -16.1843   24.4912 N.pl3   1  UNL1       -0.3041
     16 C          -7.1862  -15.6775   24.2772 C.3     1  UNL1        0.1122
     17 C          -7.9625  -15.7014   25.5922 C.3     1  UNL1        0.1122
     18 C          -5.2030  -17.0188   23.4963 C.ar    1  UNL1        0.0480
     19 C          -5.9322  -17.4397   22.3717 C.ar    1  UNL1        0.0154
     20 C          -5.3336  -18.2527   21.4046 C.ar    1  UNL1        0.0127
     21 C          -4.0020  -18.6536   21.5520 C.ar    1  UNL1        0.0578
     22 CL         -3.2523  -19.6734   20.3376 Cl      1  UNL1       -0.0822
     23 C          -3.2692  -18.2412   22.6694 C.ar    1  UNL1        0.0127
     24 C          -3.8656  -17.4288   23.6385 C.ar    1  UNL1        0.0154
     25 C         -11.8240  -10.6330   31.4391 C.3     1  UNL1        0.1535
     26 C         -12.2415  -11.8520   32.2368 C.2     1  UNL1        0.2443
     27 O         -11.9673  -11.9297   33.4659 O.2     1  UNL1       -0.2730
     28 N         -13.0707  -12.8553   31.6286 N.am    1  UNL1       -0.2825
     29 H         -13.6298  -12.5836   30.7881 H       1  UNL1        0.1549
     30 C         -13.2327  -14.1851   32.1507 C.ar    1  UNL1        0.0535
     31 C         -12.2218  -15.1343   31.9464 C.ar    1  UNL1        0.0353
     32 C         -12.3643  -16.4207   32.4722 C.ar    1  UNL1        0.1002
     33 N         -13.4708  -16.7445   33.1919 N.ar    1  UNL1       -0.2422
     34 C         -14.4593  -15.8407   33.4230 C.ar    1  UNL1        0.1002
     35 C         -14.3573  -14.5436   32.9141 C.ar    1  UNL1        0.0353
     36 C         -11.3161   -9.4708   32.3304 C.3     1  UNL1        0.0569
     37 C          -6.5147   -5.1603   30.1181 C.3     1  UNL1        0.0311
     38 C          -7.6647   -6.0276   30.5333 C.ar    1  UNL1       -0.0204
     39 C          -7.4272   -7.2845   31.1434 C.ar    1  UNL1       -0.0042
     40 C          -8.4994   -8.1139   31.5164 C.ar    1  UNL1        0.0008
     41 C          -9.7953   -7.6638   31.2599 C.ar    1  UNL1        0.0131
     42 C         -11.0319   -8.2160   31.5456 C.ar    1  UNL1       -0.0017
     43 C         -11.9677   -7.3003   31.0711 C.ar    1  UNL1        0.0681
     44 N         -11.3476   -6.2322   30.5208 N.ar    1  UNL1       -0.3523
     45 C         -10.0292   -6.4606   30.6467 C.ar    1  UNL1        0.0560
     46 C          -8.9880   -5.6156   30.2661 C.ar    1  UNL1        0.0127
     47 H         -11.8050   -5.3903   30.1054 H       1  UNL1        0.1660
@<TRIPOS>BOND
     1    37    38    1
     2    38    39   ar
     3    39    40   ar
     4    40    41   ar
     5    41    42   ar
     6    42    36    1
     7    36    25    1
     8    25     1    1
     9     1     2   am
    10     2     3    2
    11     2     5    1
    12     5     6   ar
    13     6     7   ar
    14     7     8   ar
    15     8    12    1
    16    12    13    1
    17    13    14    1
    18    14    15    1
    19    15    18    1
    20    18    19   ar
    21    19    20   ar
    22    20    21   ar
    23    21    22    1
    24    21    23   ar
    25    23    24   ar
    26    15    16    1
    27    16    17    1
    28     8     9   ar
    29     9    10   ar
    30    10    11    1
    31    25    26    1
    32    26    27    2
    33    26    28   am
    34    28    30    1
    35    30    31   ar
    36    31    32   ar
    37    32    33   ar
    38    33    34   ar
    39    34    35   ar
    40    42    43   ar
    41    43    44   ar
    42    44    45   ar
    43    45    46   ar
    44    46    38   ar
    45    45    41   ar
    46    10     5   ar
    47    35    30   ar
    48    17    12    1
    49    24    18   ar
    50     1     4    1
    51    28    29    1
    52    44    47    1
@<TRIPOS>MOLECULE
*****
 47 52 0 0 0
SMALL
GASTEIGER

@<TRIPOS>ATOM
      1 N          -9.8313  -10.7897   30.2495 N.am    1  UNL1       -0.2945
      2 C          -9.2042  -12.0596   30.4888 C.2     1  UNL1        0.2483
      3 O          -9.1362  -12.5001   31.6686 O.2     1  UNL1       -0.2701
      4 H          -9.6342  -10.2910   29.3530 H       1  UNL1        0.1501
      5 C          -8.6680  -12.8743   29.3650 C.ar    1  UNL1        0.0808
      6 C          -9.4995  -13.7793   28.6768 C.ar    1  UNL1        0.0080
      7 C          -8.9841  -14.6007   27.6730 C.ar    1  UNL1        0.0148
      8 C          -7.6274  -14.5387   27.3297 C.ar    1  UNL1        0.0502
      9 C          -6.7945  -13.6301   28.0002 C.ar    1  UNL1        0.0443
     10 C          -7.3046  -12.8074   29.0096 C.ar    1  UNL1        0.1457
     11 F          -6.4604  -11.9468   29.6334 F       1  UNL1       -0.2040
     12 N          -7.1009  -15.4032   26.3050 N.pl3   1  UNL1       -0.3040
     13 C          -5.6620  -15.6863   26.2368 C.3     1  UNL1        0.1122
     14 C          -5.2099  -15.7858   24.7779 C.3     1  UNL1        0.1122
     15 N          -6.1255  -16.6483   24.0212 N.pl3   1  UNL1       -0.3041
     16 C          -7.5606  -16.3489   24.0885 C.3     1  UNL1        0.1122
     17 C          -8.0079  -16.2735   25.5468 C.3     1  UNL1        0.1122
     18 C          -5.6220  -17.5377   23.0067 C.ar    1  UNL1        0.0480
     19 C          -6.4656  -17.9794   21.9738 C.ar    1  UNL1        0.0154
     20 C          -5.9828  -18.8457   20.9883 C.ar    1  UNL1        0.0127
     21 C          -4.6539  -19.2794   21.0255 C.ar    1  UNL1        0.0578
     22 CL         -4.0496  -20.3659   19.7882 Cl      1  UNL1       -0.0822
     23 C          -3.8076  -18.8465   22.0512 C.ar    1  UNL1        0.0127
     24 C          -4.2880  -17.9809   23.0386 C.ar    1  UNL1        0.0154
     25 C         -10.8141  -10.2171   31.1808 C.3     1  UNL1        0.1535
     26 C         -11.2659  -11.2592   32.1840 C.2     1  UNL1        0.2443
     27 O         -11.0018  -11.1158   33.4095 O.2     1  UNL1       -0.2730
     28 N         -12.1146  -12.3385   31.7613 N.am    1  UNL1       -0.2825
     29 H         -12.6614  -12.2136   30.8792 H       1  UNL1        0.1549
     30 C         -12.3118  -13.5458   32.5168 C.ar    1  UNL1        0.0535
     31 C         -12.2618  -14.7846   31.8629 C.ar    1  UNL1        0.0353
     32 C         -12.4292  -15.9614   32.5969 C.ar    1  UNL1        0.1002
     33 N         -12.6236  -15.9051   33.9409 N.ar    1  UNL1       -0.2422
     34 C         -12.6582  -14.7202   34.6061 C.ar    1  UNL1        0.1002
     35 C         -12.4965  -13.5197   33.9101 C.ar    1  UNL1        0.0353
     36 C         -10.2435   -8.9401   31.8492 C.3     1  UNL1        0.0569
     37 C          -4.0675   -9.0608   28.9559 C.3     1  UNL1        0.0311
     38 C          -5.3582   -9.0386   29.7181 C.ar    1  UNL1       -0.0204
     39 C          -6.5750   -8.7454   29.0534 C.ar    1  UNL1       -0.0042
     40 C          -7.7871   -8.7013   29.7643 C.ar    1  UNL1        0.0008
     41 C          -7.7500   -8.9463   31.1377 C.ar    1  UNL1        0.0131
     42 C          -8.7570   -9.0201   32.0843 C.ar    1  UNL1       -0.0017
     43 C          -8.1184   -9.3171   33.2857 C.ar    1  UNL1        0.0681
     44 N          -6.7838   -9.4253   33.0980 N.ar    1  UNL1       -0.3523
     45 C          -6.5722   -9.2047   31.7893 C.ar    1  UNL1        0.0560
     46 C          -5.3546   -9.2564   31.1127 C.ar    1  UNL1        0.0127
     47 H          -6.0684   -9.6583   33.8221 H       1  UNL1        0.1660
@<TRIPOS>BOND
     1    37    38    1
     2    38    39   ar
     3    39    40   ar
     4    40    41   ar
     5    41    42   ar
     6    42    36    1
     7    36    25    1
     8    25     1    1
     9     1     2   am
    10     2     3    2
    11     2     5    1
    12     5     6   ar
    13     6     7   ar
    14     7     8   ar
    15     8    12    1
    16    12    13    1
    17    13    14    1
    18    14    15    1
    19    15    18    1
    20    18    19   ar
    21    19    20   ar
    22    20    21   ar
    23    21    22    1
    24    21    23   ar
    25    23    24   ar
    26    15    16    1
    27    16    17    1
    28     8     9   ar
    29     9    10   ar
    30    10    11    1
    31    25    26    1
    32    26    27    2
    33    26    28   am
    34    28    30    1
    35    30    31   ar
    36    31    32   ar
    37    32    33   ar
    38    33    34   ar
    39    34    35   ar
    40    42    43   ar
    41    43    44   ar
    42    44    45   ar
    43    45    46   ar
    44    46    38   ar
    45    45    41   ar
    46    10     5   ar
    47    35    30   ar
    48    17    12    1
    49    24    18   ar
    50     1     4    1
    51    28    29    1
    52    44    47    1
