@<TRIPOS>MOLECULE
*****
 50 55 0 0 0
SMALL
GASTEIGER

@<TRIPOS>ATOM
      1 C          59.7599   85.9376   11.1522 C.2     1  UNL1        0.2483
      2 O          59.3489   86.0594    9.9655 O.2     1  UNL1       -0.2701
      3 N          59.0701   85.0656   12.0620 N.am    1  UNL1       -0.2945
      4 H          59.2487   85.1873   13.0844 H       1  UNL1        0.1501
      5 C          63.1617   88.2070   12.4875 C.ar    1  UNL1        0.0502
      6 C          62.6477   87.1601   13.2668 C.ar    1  UNL1        0.0148
      7 C          61.5395   86.4310   12.8285 C.ar    1  UNL1        0.0080
      8 C          60.9278   86.7301   11.5992 C.ar    1  UNL1        0.0808
      9 C          61.4325   87.7948   10.8267 C.ar    1  UNL1        0.1457
     10 F          60.8270   88.1698    9.6713 F       1  UNL1       -0.2040
     11 C          62.5419   88.5217   11.2694 C.ar    1  UNL1        0.0443
     12 C          65.2651   89.9469   14.9846 C.3     1  UNL1        0.0926
     13 C          64.9533   88.6496   14.2145 C.3     1  UNL1        0.1105
     14 N          64.2981   88.9663   12.9383 N.pl3   1  UNL1       -0.3041
     15 C          64.9577   89.9225   12.0396 C.3     1  UNL1        0.1122
     16 C          65.2790   91.2116   12.7971 C.3     1  UNL1        0.1123
     17 N          65.9367   90.8874   14.0709 N.pl3   1  UNL1       -0.3034
     18 C          67.3012   91.2867   14.3126 C.ar    1  UNL1        0.0832
     19 C          67.6110   92.0778   15.4323 C.ar    1  UNL1        0.0290
     20 C          68.9250   92.4878   15.6698 C.ar    1  UNL1        0.0591
     21 CL         69.2955   93.4793   17.0687 Cl      1  UNL1       -0.0822
     22 C          69.9419   92.1131   14.7906 C.ar    1  UNL1        0.0146
     23 C          69.6495   91.3271   13.6741 C.ar    1  UNL1        0.0390
     24 C          68.3287   90.9040   13.4251 C.ar    1  UNL1        0.1519
     25 O          68.0066   90.0991   12.3214 O.3     1  UNL1       -0.4702
     26 C          68.3326   90.4076   10.9707 C.3     1  UNL1        0.2525
     27 C          63.0169   89.5583   16.1412 C.3     1  UNL1        0.0018
     28 C          63.9869   90.5927   15.5708 C.3     1  UNL1        0.0215
     29 C          57.9311   84.2394   11.6421 C.3     1  UNL1        0.1535
     30 C          58.1093   83.7402   10.2275 C.2     1  UNL1        0.2443
     31 O          57.2211   83.9691    9.3609 O.2     1  UNL1       -0.2730
     32 N          59.3419   83.1053    9.8509 N.am    1  UNL1       -0.2825
     33 H          60.1294   83.1270   10.5380 H       1  UNL1        0.1549
     34 C          59.6240   82.6367    8.5223 C.ar    1  UNL1        0.0535
     35 C          59.1612   81.3899    8.0707 C.ar    1  UNL1        0.0353
     36 C          59.4711   80.9693    6.7749 C.ar    1  UNL1        0.1002
     37 N          60.2254   81.7570    5.9634 N.ar    1  UNL1       -0.2422
     38 C          60.7005   82.9603    6.3806 C.ar    1  UNL1        0.1002
     39 C          60.4156   83.4174    7.6695 C.ar    1  UNL1        0.0353
     40 C          57.7170   83.0726   12.6262 C.3     1  UNL1        0.0569
     41 C          58.8781   82.1169   12.6557 C.ar    1  UNL1       -0.0017
     42 C          60.1527   82.3782   13.1501 C.ar    1  UNL1        0.0681
     43 N          60.9686   81.3213   12.9348 N.ar    1  UNL1       -0.3523
     44 C          60.2231   80.3988   12.3019 C.ar    1  UNL1        0.0563
     45 C          60.6348   79.1459   11.8493 C.ar    1  UNL1        0.0170
     46 C          59.6893   78.3429   11.1854 C.ar    1  UNL1        0.0015
     47 C          58.3687   78.8049   10.9905 C.ar    1  UNL1        0.0001
     48 C          57.9813   80.0731   11.4588 C.ar    1  UNL1        0.0012
     49 C          58.9410   80.8476   12.1125 C.ar    1  UNL1        0.0131
     50 H          61.9776   81.2481   13.1936 H       1  UNL1        0.1660
@<TRIPOS>BOND
     1    27    28    1
     2    28    12    1
     3    12    13    1
     4    13    14    1
     5    14     5    1
     6     5     6   ar
     7     6     7   ar
     8     7     8   ar
     9     8     1    1
    10     1     2    2
    11     1     3   am
    12     3    29    1
    13    29    40    1
    14    40    41    1
    15    41    42   ar
    16    42    43   ar
    17    43    44   ar
    18    44    45   ar
    19    45    46   ar
    20    46    47   ar
    21    47    48   ar
    22    48    49   ar
    23    29    30    1
    24    30    31    2
    25    30    32   am
    26    32    34    1
    27    34    35   ar
    28    35    36   ar
    29    36    37   ar
    30    37    38   ar
    31    38    39   ar
    32     8     9   ar
    33     9    10    1
    34     9    11   ar
    35    14    15    1
    36    15    16    1
    37    16    17    1
    38    17    18    1
    39    18    19   ar
    40    19    20   ar
    41    20    21    1
    42    20    22   ar
    43    22    23   ar
    44    23    24   ar
    45    24    25    1
    46    25    26    1
    47    17    12    1
    48    24    18   ar
    49    11     5   ar
    50    49    41   ar
    51    39    34   ar
    52    49    44   ar
    53     3     4    1
    54    43    50    1
    55    32    33    1
@<TRIPOS>MOLECULE
*****
 50 55 0 0 0
SMALL
GASTEIGER

@<TRIPOS>ATOM
      1 C          60.1884   86.2612   10.3976 C.2     1  UNL1        0.2483
      2 O          59.4105   86.8236    9.5788 O.2     1  UNL1       -0.2701
      3 N          59.9514   84.8995   10.7895 N.am    1  UNL1       -0.2945
      4 H          60.4251   84.5510   11.6533 H       1  UNL1        0.1501
      5 C          63.4586   88.4696   12.1105 C.ar    1  UNL1        0.0502
      6 C          62.7337   87.5489   12.8814 C.ar    1  UNL1        0.0148
      7 C          61.6698   86.8392   12.3191 C.ar    1  UNL1        0.0080
      8 C          61.3143   87.0314   10.9731 C.ar    1  UNL1        0.0808
      9 C          62.0302   87.9711   10.2054 C.ar    1  UNL1        0.1457
     10 F          61.6733   88.2467    8.9253 F       1  UNL1       -0.2040
     11 C          63.0944   88.6791   10.7726 C.ar    1  UNL1        0.0443
     12 C          65.3860   90.0199   14.8617 C.3     1  UNL1        0.0926
     13 C          65.1479   88.7917   13.9629 C.3     1  UNL1        0.1105
     14 N          64.5503   89.2091   12.6873 N.pl3   1  UNL1       -0.3041
     15 C          65.2293   90.2571   11.9143 C.3     1  UNL1        0.1122
     16 C          65.4777   91.4786   12.8005 C.3     1  UNL1        0.1123
     17 N          66.0781   91.0540   14.0731 N.pl3   1  UNL1       -0.3034
     18 C          67.4176   91.4591   14.4216 C.ar    1  UNL1        0.0832
     19 C          67.6254   92.3347   15.5012 C.ar    1  UNL1        0.0290
     20 C          68.9152   92.7506   15.8396 C.ar    1  UNL1        0.0591
     21 CL         69.1584   93.8478   17.1865 Cl      1  UNL1       -0.0822
     22 C          70.0098   92.2971   15.1021 C.ar    1  UNL1        0.0146
     23 C          69.8191   91.4266   14.0271 C.ar    1  UNL1        0.0390
     24 C          68.5233   90.9969   13.6777 C.ar    1  UNL1        0.1519
     25 O          68.3015   90.1088   12.6137 O.3     1  UNL1       -0.4702
     26 C          68.5814   90.3945   11.2478 C.3     1  UNL1        0.2525
     27 C          63.1277   89.4818   15.9361 C.3     1  UNL1        0.0018
     28 C          64.0630   90.5820   15.4350 C.3     1  UNL1        0.0215
     29 C          58.8660   84.0967   10.2119 C.3     1  UNL1        0.1535
     30 C          59.3467   82.7137    9.8397 C.2     1  UNL1        0.2443
     31 O          59.4146   82.3746    8.6263 O.2     1  UNL1       -0.2730
     32 N          59.8306   81.8326   10.8662 N.am    1  UNL1       -0.2825
     33 H          59.9568   82.2274   11.8258 H       1  UNL1        0.1549
     34 C          60.3483   80.5172   10.6089 C.ar    1  UNL1        0.0535
     35 C          59.7214   79.3693   11.1206 C.ar    1  UNL1        0.0353
     36 C          60.2679   78.1110   10.8558 C.ar    1  UNL1        0.1002
     37 N          61.4049   78.0019   10.1186 N.ar    1  UNL1       -0.2422
     38 C          62.0415   79.0971    9.6257 C.ar    1  UNL1        0.1002
     39 C          61.5296   80.3738    9.8691 C.ar    1  UNL1        0.0353
     40 C          57.6669   84.0329   11.1781 C.3     1  UNL1        0.0569
     41 C          57.9513   84.6891   12.5013 C.ar    1  UNL1       -0.0017
     42 C          57.2153   85.7114   13.0933 C.ar    1  UNL1        0.0681
     43 N          57.8090   86.1190   14.2380 N.ar    1  UNL1       -0.3523
     44 C          58.9171   85.3693   14.3696 C.ar    1  UNL1        0.0563
     45 C          59.8696   85.4409   15.3855 C.ar    1  UNL1        0.0170
     46 C          60.9733   84.5712   15.3150 C.ar    1  UNL1        0.0015
     47 C          61.0993   83.6600   14.2429 C.ar    1  UNL1        0.0001
     48 C          60.1224   83.6094   13.2326 C.ar    1  UNL1        0.0012
     49 C          59.0395   84.4848   13.3286 C.ar    1  UNL1        0.0131
     50 H          57.4793   86.8757   14.8777 H       1  UNL1        0.1660
@<TRIPOS>BOND
     1    27    28    1
     2    28    12    1
     3    12    13    1
     4    13    14    1
     5    14     5    1
     6     5     6   ar
     7     6     7   ar
     8     7     8   ar
     9     8     1    1
    10     1     2    2
    11     1     3   am
    12     3    29    1
    13    29    40    1
    14    40    41    1
    15    41    42   ar
    16    42    43   ar
    17    43    44   ar
    18    44    45   ar
    19    45    46   ar
    20    46    47   ar
    21    47    48   ar
    22    48    49   ar
    23    29    30    1
    24    30    31    2
    25    30    32   am
    26    32    34    1
    27    34    35   ar
    28    35    36   ar
    29    36    37   ar
    30    37    38   ar
    31    38    39   ar
    32     8     9   ar
    33     9    10    1
    34     9    11   ar
    35    14    15    1
    36    15    16    1
    37    16    17    1
    38    17    18    1
    39    18    19   ar
    40    19    20   ar
    41    20    21    1
    42    20    22   ar
    43    22    23   ar
    44    23    24   ar
    45    24    25    1
    46    25    26    1
    47    17    12    1
    48    24    18   ar
    49    11     5   ar
    50    49    41   ar
    51    39    34   ar
    52    49    44   ar
    53     3     4    1
    54    43    50    1
    55    32    33    1
@<TRIPOS>MOLECULE
*****
 50 55 0 0 0
SMALL
GASTEIGER

@<TRIPOS>ATOM
      1 C          60.1614   86.7131    9.8552 C.2     1  UNL1        0.2483
      2 O          60.0515   87.3235   10.9540 O.2     1  UNL1       -0.2701
      3 N          60.3951   85.2956    9.8447 N.am    1  UNL1       -0.2945
      4 H          60.7521   84.8666    8.9613 H       1  UNL1        0.1501
      5 C          59.9014   88.9165    6.1697 C.ar    1  UNL1        0.0502
      6 C          59.0341   87.8444    6.4267 C.ar    1  UNL1        0.0148
      7 C          59.1282   87.1307    7.6239 C.ar    1  UNL1        0.0080
      8 C          60.0869   87.4792    8.5905 C.ar    1  UNL1        0.0808
      9 C          60.9707   88.5433    8.3228 C.ar    1  UNL1        0.1457
     10 F          61.9621   88.8653    9.1918 F       1  UNL1       -0.2040
     11 C          60.8727   89.2549    7.1230 C.ar    1  UNL1        0.0443
     12 C          61.1670   90.2707    2.9679 C.3     1  UNL1        0.0926
     13 C          60.4394   89.1333    3.7096 C.3     1  UNL1        0.1105
     14 N          59.8138   89.6499    4.9345 N.pl3   1  UNL1       -0.3041
     15 C          58.9203   90.8098    4.8199 C.3     1  UNL1        0.1122
     16 C          59.6309   91.9423    4.0774 C.3     1  UNL1        0.1123
     17 N          60.2516   91.4191    2.8521 N.pl3   1  UNL1       -0.3034
     18 C          59.7965   91.8583    1.5560 C.ar    1  UNL1        0.0832
     19 C          58.7380   91.1861    0.9212 C.ar    1  UNL1        0.0290
     20 C          58.2980   91.5881   -0.3421 C.ar    1  UNL1        0.0591
     21 CL         56.9791   90.7360   -1.1242 Cl      1  UNL1       -0.0822
     22 C          58.9120   92.6645   -0.9842 C.ar    1  UNL1        0.0146
     23 C          59.9646   93.3423   -0.3658 C.ar    1  UNL1        0.0390
     24 C          60.4155   92.9489    0.9099 C.ar    1  UNL1        0.1519
     25 O          61.4593   93.6214    1.5642 O.3     1  UNL1       -0.4702
     26 C          62.7513   93.8459    1.0109 C.3     1  UNL1        0.2525
     27 C          63.4519   91.4023    2.7625 C.3     1  UNL1        0.0018
     28 C          62.4668   90.6949    3.6927 C.3     1  UNL1        0.0215
     29 C          60.4392   84.5008   11.0786 C.3     1  UNL1        0.1535
     30 C          60.0255   83.0704   10.8232 C.2     1  UNL1        0.2443
     31 O          60.4577   82.4605    9.8066 O.2     1  UNL1       -0.2730
     32 N          59.2322   82.3778   11.8004 N.am    1  UNL1       -0.2825
     33 H          59.0763   82.8475   12.7212 H       1  UNL1        0.1549
     34 C          58.8256   81.0060   11.6702 C.ar    1  UNL1        0.0535
     35 C          59.0567   80.0722   12.6936 C.ar    1  UNL1        0.0353
     36 C          58.6559   78.7453   12.5177 C.ar    1  UNL1        0.1002
     37 N          58.0581   78.3607   11.3589 N.ar    1  UNL1       -0.2422
     38 C          57.8378   79.2395   10.3456 C.ar    1  UNL1        0.1002
     39 C          58.2251   80.5749   10.4798 C.ar    1  UNL1        0.0353
     40 C          61.8387   84.5742   11.7199 C.3     1  UNL1        0.0569
     41 C          61.7909   84.9346   13.1795 C.ar    1  UNL1       -0.0017
     42 C          61.2350   84.1718   14.2024 C.ar    1  UNL1        0.0681
     43 N          61.2900   84.8430   15.3753 N.ar    1  UNL1       -0.3523
     44 C          61.8678   86.0254   15.1005 C.ar    1  UNL1        0.0563
     45 C          62.1184   87.0698   15.9896 C.ar    1  UNL1        0.0170
     46 C          62.7159   88.2377   15.4810 C.ar    1  UNL1        0.0015
     47 C          63.0454   88.3347   14.1109 C.ar    1  UNL1        0.0001
     48 C          62.7817   87.2646   13.2373 C.ar    1  UNL1        0.0012
     49 C          62.1874   86.1196   13.7701 C.ar    1  UNL1        0.0131
     50 H          60.9374   84.5129   16.3011 H       1  UNL1        0.1660
@<TRIPOS>BOND
     1    27    28    1
     2    28    12    1
     3    12    13    1
     4    13    14    1
     5    14     5    1
     6     5     6   ar
     7     6     7   ar
     8     7     8   ar
     9     8     1    1
    10     1     2    2
    11     1     3   am
    12     3    29    1
    13    29    40    1
    14    40    41    1
    15    41    42   ar
    16    42    43   ar
    17    43    44   ar
    18    44    45   ar
    19    45    46   ar
    20    46    47   ar
    21    47    48   ar
    22    48    49   ar
    23    29    30    1
    24    30    31    2
    25    30    32   am
    26    32    34    1
    27    34    35   ar
    28    35    36   ar
    29    36    37   ar
    30    37    38   ar
    31    38    39   ar
    32     8     9   ar
    33     9    10    1
    34     9    11   ar
    35    14    15    1
    36    15    16    1
    37    16    17    1
    38    17    18    1
    39    18    19   ar
    40    19    20   ar
    41    20    21    1
    42    20    22   ar
    43    22    23   ar
    44    23    24   ar
    45    24    25    1
    46    25    26    1
    47    17    12    1
    48    24    18   ar
    49    11     5   ar
    50    49    41   ar
    51    39    34   ar
    52    49    44   ar
    53     3     4    1
    54    43    50    1
    55    32    33    1
@<TRIPOS>MOLECULE
*****
 50 55 0 0 0
SMALL
GASTEIGER

@<TRIPOS>ATOM
      1 C          62.9918   89.1503   12.4967 C.2     1  UNL1        0.2483
      2 O          62.8766   89.7556   13.5977 O.2     1  UNL1       -0.2701
      3 N          63.7107   89.7641   11.4149 N.am    1  UNL1       -0.2945
      4 H          63.5614   89.3849   10.4527 H       1  UNL1        0.1501
      5 C          61.1157   85.3179   11.9503 C.ar    1  UNL1        0.0502
      6 C          61.1832   86.2399   10.8953 C.ar    1  UNL1        0.0148
      7 C          61.7898   87.4844   11.0822 C.ar    1  UNL1        0.0080
      8 C          62.3467   87.8287   12.3257 C.ar    1  UNL1        0.0808
      9 C          62.2604   86.9099   13.3903 C.ar    1  UNL1        0.1457
     10 F          62.7142   87.2290   14.6289 F       1  UNL1       -0.2040
     11 C          61.6524   85.6653   13.1985 C.ar    1  UNL1        0.0443
     12 C          60.1974   82.2629   10.0766 C.3     1  UNL1        0.0926
     13 C          61.1738   82.9593   11.0435 C.3     1  UNL1        0.1105
     14 N          60.4848   84.0377   11.7652 N.pl3   1  UNL1       -0.3041
     15 C          59.2414   83.7116   12.4756 C.3     1  UNL1        0.1122
     16 C          58.2679   83.0121   11.5259 C.3     1  UNL1        0.1123
     17 N          58.9630   81.9330   10.8098 N.pl3   1  UNL1       -0.3034
     18 C          58.5849   80.5565   11.0147 C.ar    1  UNL1        0.0832
     19 C          58.8786   79.9243   12.2352 C.ar    1  UNL1        0.0290
     20 C          58.5350   78.5863   12.4421 C.ar    1  UNL1        0.0591
     21 CL         58.9127   77.8093   13.9688 Cl      1  UNL1       -0.0822
     22 C          57.8964   77.8663   11.4314 C.ar    1  UNL1        0.0146
     23 C          57.5979   78.4809   10.2137 C.ar    1  UNL1        0.0390
     24 C          57.9359   79.8311    9.9937 C.ar    1  UNL1        0.1519
     25 O          57.6332   80.4811    8.7872 O.3     1  UNL1       -0.4702
     26 C          58.3712   80.3325    7.5792 C.3     1  UNL1        0.2525
     27 C          61.1168   83.5286    8.0527 C.3     1  UNL1        0.0018
     28 C          59.8696   83.1471    8.8496 C.3     1  UNL1        0.0215
     29 C          64.3917   91.0567   11.5618 C.3     1  UNL1        0.1535
     30 C          65.7179   90.8994   12.2680 C.2     1  UNL1        0.2443
     31 O          66.6149   90.1650   11.7698 O.2     1  UNL1       -0.2730
     32 N          65.9896   91.6770   13.4451 N.am    1  UNL1       -0.2825
     33 H          65.3072   92.4265   13.7006 H       1  UNL1        0.1549
     34 C          67.2343   91.6310   14.1613 C.ar    1  UNL1        0.0535
     35 C          68.3325   90.9015   13.6771 C.ar    1  UNL1        0.0353
     36 C          69.5193   90.8743   14.4140 C.ar    1  UNL1        0.1002
     37 N          69.6039   91.5395   15.5966 N.ar    1  UNL1       -0.2422
     38 C          68.5513   92.2391   16.0968 C.ar    1  UNL1        0.1002
     39 C          67.3459   92.2901   15.3928 C.ar    1  UNL1        0.0353
     40 C          64.5639   91.7368   10.1895 C.3     1  UNL1        0.0569
     41 C          65.9344   92.3274   10.0015 C.ar    1  UNL1       -0.0017
     42 C          66.3050   93.6488   10.2334 C.ar    1  UNL1        0.0681
     43 N          67.5935   93.8479    9.8742 N.ar    1  UNL1       -0.3523
     44 C          68.0371   92.6667    9.4102 C.ar    1  UNL1        0.0563
     45 C          69.3029   92.3813    8.8998 C.ar    1  UNL1        0.0170
     46 C          69.5485   91.0733    8.4433 C.ar    1  UNL1        0.0015
     47 C          68.5352   90.0912    8.5060 C.ar    1  UNL1        0.0001
     48 C          67.2678   90.4075    9.0268 C.ar    1  UNL1        0.0012
     49 C          67.0531   91.7132    9.4708 C.ar    1  UNL1        0.0131
     50 H          68.1266   94.7441    9.9309 H       1  UNL1        0.1660
@<TRIPOS>BOND
     1    27    28    1
     2    28    12    1
     3    12    13    1
     4    13    14    1
     5    14     5    1
     6     5     6   ar
     7     6     7   ar
     8     7     8   ar
     9     8     1    1
    10     1     2    2
    11     1     3   am
    12     3    29    1
    13    29    40    1
    14    40    41    1
    15    41    42   ar
    16    42    43   ar
    17    43    44   ar
    18    44    45   ar
    19    45    46   ar
    20    46    47   ar
    21    47    48   ar
    22    48    49   ar
    23    29    30    1
    24    30    31    2
    25    30    32   am
    26    32    34    1
    27    34    35   ar
    28    35    36   ar
    29    36    37   ar
    30    37    38   ar
    31    38    39   ar
    32     8     9   ar
    33     9    10    1
    34     9    11   ar
    35    14    15    1
    36    15    16    1
    37    16    17    1
    38    17    18    1
    39    18    19   ar
    40    19    20   ar
    41    20    21    1
    42    20    22   ar
    43    22    23   ar
    44    23    24   ar
    45    24    25    1
    46    25    26    1
    47    17    12    1
    48    24    18   ar
    49    11     5   ar
    50    49    41   ar
    51    39    34   ar
    52    49    44   ar
    53     3     4    1
    54    43    50    1
    55    32    33    1
@<TRIPOS>MOLECULE
*****
 50 55 0 0 0
SMALL
GASTEIGER

@<TRIPOS>ATOM
      1 C          59.7227   85.8952   11.2072 C.2     1  UNL1        0.2483
      2 O          59.3035   86.0127   10.0230 O.2     1  UNL1       -0.2701
      3 N          59.0398   85.0256   12.1246 N.am    1  UNL1       -0.2945
      4 H          59.2252   85.1508   13.1453 H       1  UNL1        0.1501
      5 C          63.1311   88.1720   12.5125 C.ar    1  UNL1        0.0502
      6 C          62.6080   87.1436   13.3101 C.ar    1  UNL1        0.0148
      7 C          61.4977   86.4120   12.8813 C.ar    1  UNL1        0.0080
      8 C          60.8930   86.6900   11.6436 C.ar    1  UNL1        0.0808
      9 C          61.4068   87.7365   10.8525 C.ar    1  UNL1        0.1457
     10 F          60.8085   88.0919    9.6874 F       1  UNL1       -0.2040
     11 C          62.5184   88.4660   11.2858 C.ar    1  UNL1        0.0443
     12 C          65.2445   89.9304   14.9882 C.3     1  UNL1        0.0926
     13 C          64.9289   88.6271   14.2299 C.3     1  UNL1        0.1105
     14 N          64.2698   88.9339   12.9533 N.pl3   1  UNL1       -0.3041
     15 C          64.9272   89.8820   12.0446 C.3     1  UNL1        0.1122
     16 C          65.2523   91.1771   12.7904 C.3     1  UNL1        0.1123
     17 N          65.9139   90.8627   14.0646 N.pl3   1  UNL1       -0.3034
     18 C          67.2795   91.2627   14.2985 C.ar    1  UNL1        0.0832
     19 C          67.5976   92.0420   15.4241 C.ar    1  UNL1        0.0290
     20 C          68.9127   92.4526   15.6544 C.ar    1  UNL1        0.0591
     21 CL         69.2934   93.4294   17.0609 Cl      1  UNL1       -0.0822
     22 C          69.9225   92.0902   14.7619 C.ar    1  UNL1        0.0146
     23 C          69.6219   91.3160   13.6394 C.ar    1  UNL1        0.0390
     24 C          68.2999   90.8924   13.3976 C.ar    1  UNL1        0.1519
     25 O          67.9698   90.0990   12.2879 O.3     1  UNL1       -0.4702
     26 C          68.2999   90.4138   10.9396 C.3     1  UNL1        0.2525
     27 C          63.0051   89.5545   16.1660 C.3     1  UNL1        0.0018
     28 C          63.9688   90.5822   15.5733 C.3     1  UNL1        0.0215
     29 C          57.8986   84.1972   11.7151 C.3     1  UNL1        0.1535
     30 C          58.0787   83.6738   10.3095 C.2     1  UNL1        0.2443
     31 O          57.1532   83.8087    9.4625 O.2     1  UNL1       -0.2730
     32 N          59.3472   83.1263    9.9152 N.am    1  UNL1       -0.2825
     33 H          60.1480   83.2284   10.5792 H       1  UNL1        0.1549
     34 C          59.6307   82.6439    8.5919 C.ar    1  UNL1        0.0535
     35 C          60.3801   83.4040    7.6791 C.ar    1  UNL1        0.0353
     36 C          60.6200   82.9005    6.3981 C.ar    1  UNL1        0.1002
     37 N          60.1201   81.6893    6.0360 N.ar    1  UNL1       -0.2422
     38 C          59.3773   80.9405    6.8935 C.ar    1  UNL1        0.1002
     39 C          59.1123   81.4080    8.1828 C.ar    1  UNL1        0.0353
     40 C          57.6769   83.0478   12.7178 C.3     1  UNL1        0.0569
     41 C          58.5928   81.8797   12.4745 C.ar    1  UNL1       -0.0017
     42 C          58.2349   80.6441   11.9430 C.ar    1  UNL1        0.0681
     43 N          59.2938   79.8029   11.9487 N.ar    1  UNL1       -0.3523
     44 C          60.3144   80.4934   12.4863 C.ar    1  UNL1        0.0563
     45 C          61.6105   80.0373   12.7235 C.ar    1  UNL1        0.0170
     46 C          62.5217   80.9268   13.3219 C.ar    1  UNL1        0.0015
     47 C          62.1218   82.2370   13.6664 C.ar    1  UNL1        0.0001
     48 C          60.8077   82.6700   13.4145 C.ar    1  UNL1        0.0012
     49 C          59.9259   81.7654   12.8211 C.ar    1  UNL1        0.0131
     50 H          59.3068   78.8125   11.6179 H       1  UNL1        0.1660
@<TRIPOS>BOND
     1    27    28    1
     2    28    12    1
     3    12    13    1
     4    13    14    1
     5    14     5    1
     6     5     6   ar
     7     6     7   ar
     8     7     8   ar
     9     8     1    1
    10     1     2    2
    11     1     3   am
    12     3    29    1
    13    29    40    1
    14    40    41    1
    15    41    42   ar
    16    42    43   ar
    17    43    44   ar
    18    44    45   ar
    19    45    46   ar
    20    46    47   ar
    21    47    48   ar
    22    48    49   ar
    23    29    30    1
    24    30    31    2
    25    30    32   am
    26    32    34    1
    27    34    35   ar
    28    35    36   ar
    29    36    37   ar
    30    37    38   ar
    31    38    39   ar
    32     8     9   ar
    33     9    10    1
    34     9    11   ar
    35    14    15    1
    36    15    16    1
    37    16    17    1
    38    17    18    1
    39    18    19   ar
    40    19    20   ar
    41    20    21    1
    42    20    22   ar
    43    22    23   ar
    44    23    24   ar
    45    24    25    1
    46    25    26    1
    47    17    12    1
    48    24    18   ar
    49    11     5   ar
    50    49    41   ar
    51    39    34   ar
    52    49    44   ar
    53     3     4    1
    54    43    50    1
    55    32    33    1
@<TRIPOS>MOLECULE
*****
 50 55 0 0 0
SMALL
GASTEIGER

@<TRIPOS>ATOM
      1 C          60.4550   86.6916    9.7864 C.2     1  UNL1        0.2483
      2 O          61.5451   86.7235   10.4210 O.2     1  UNL1       -0.2701
      3 N          59.3735   85.8750   10.2634 N.am    1  UNL1       -0.2945
      4 H          58.6020   85.6488    9.5959 H       1  UNL1        0.1501
      5 C          60.0290   88.9274    6.1361 C.ar    1  UNL1        0.0502
      6 C          59.1990   87.8291    6.4050 C.ar    1  UNL1        0.0148
      7 C          59.3470   87.1050    7.5906 C.ar    1  UNL1        0.0080
      8 C          60.3233   87.4692    8.5335 C.ar    1  UNL1        0.0808
      9 C          61.1696   88.5601    8.2533 C.ar    1  UNL1        0.1457
     10 F          62.1766   88.8998    9.0974 F       1  UNL1       -0.2040
     11 C          61.0178   89.2819    7.0653 C.ar    1  UNL1        0.0443
     12 C          61.1594   90.3373    2.9078 C.3     1  UNL1        0.0926
     13 C          60.4782   89.1792    3.6615 C.3     1  UNL1        0.1105
     14 N          59.8859   89.6716    4.9126 N.pl3   1  UNL1       -0.3041
     15 C          58.9683   90.8161    4.8412 C.3     1  UNL1        0.1122
     16 C          59.6326   91.9690    4.0872 C.3     1  UNL1        0.1123
     17 N          60.2201   91.4699    2.8358 N.pl3   1  UNL1       -0.3034
     18 C          59.7130   91.9139    1.5609 C.ar    1  UNL1        0.0832
     19 C          58.7138   91.1716    0.9082 C.ar    1  UNL1        0.0290
     20 C          58.2254   91.5789   -0.3355 C.ar    1  UNL1        0.0591
     21 CL         56.9818   90.6393   -1.1404 Cl      1  UNL1       -0.0822
     22 C          58.7315   92.7304   -0.9401 C.ar    1  UNL1        0.0146
     23 C          59.7241   93.4783   -0.3036 C.ar    1  UNL1        0.0390
     24 C          60.2227   93.0802    0.9528 C.ar    1  UNL1        0.1519
     25 O          61.2075   93.8206    1.6250 O.3     1  UNL1       -0.4702
     26 C          62.5852   93.8479    1.2688 C.3     1  UNL1        0.2525
     27 C          63.4959   91.3315    2.5983 C.3     1  UNL1        0.0018
     28 C          62.4755   90.7778    3.5925 C.3     1  UNL1        0.0215
     29 C          59.4584   85.1198   11.5198 C.3     1  UNL1        0.1535
     30 C          59.9896   85.9813   12.6413 C.2     1  UNL1        0.2443
     31 O          59.2022   86.7129   13.3022 O.2     1  UNL1       -0.2730
     32 N          61.3712   85.8760   13.0212 N.am    1  UNL1       -0.2825
     33 H          61.9357   85.1075   12.5929 H       1  UNL1        0.1549
     34 C          61.9601   86.6190   14.1008 C.ar    1  UNL1        0.0535
     35 C          62.7499   87.7559   13.8636 C.ar    1  UNL1        0.0353
     36 C          63.3135   88.4397   14.9439 C.ar    1  UNL1        0.1002
     37 N          63.1078   87.9987   16.2132 N.ar    1  UNL1       -0.2422
     38 C          62.3621   86.8917   16.4703 C.ar    1  UNL1        0.1002
     39 C          61.7825   86.1777   15.4188 C.ar    1  UNL1        0.0353
     40 C          58.0885   84.5121   11.8795 C.3     1  UNL1        0.0569
     41 C          58.0675   83.0131   11.7570 C.ar    1  UNL1       -0.0017
     42 C          58.2461   82.0958   12.7885 C.ar    1  UNL1        0.0681
     43 N          58.2541   80.8339   12.3022 N.ar    1  UNL1       -0.3523
     44 C          58.0905   80.9466   10.9726 C.ar    1  UNL1        0.0563
     45 C          58.0577   79.9149   10.0352 C.ar    1  UNL1        0.0170
     46 C          57.8989   80.2614    8.6808 C.ar    1  UNL1        0.0015
     47 C          57.7782   81.6157    8.2979 C.ar    1  UNL1        0.0001
     48 C          57.8139   82.6355    9.2655 C.ar    1  UNL1        0.0012
     49 C          57.9737   82.2616   10.6008 C.ar    1  UNL1        0.0131
     50 H          58.3801   79.9539   12.8502 H       1  UNL1        0.1660
@<TRIPOS>BOND
     1    27    28    1
     2    28    12    1
     3    12    13    1
     4    13    14    1
     5    14     5    1
     6     5     6   ar
     7     6     7   ar
     8     7     8   ar
     9     8     1    1
    10     1     2    2
    11     1     3   am
    12     3    29    1
    13    29    40    1
    14    40    41    1
    15    41    42   ar
    16    42    43   ar
    17    43    44   ar
    18    44    45   ar
    19    45    46   ar
    20    46    47   ar
    21    47    48   ar
    22    48    49   ar
    23    29    30    1
    24    30    31    2
    25    30    32   am
    26    32    34    1
    27    34    35   ar
    28    35    36   ar
    29    36    37   ar
    30    37    38   ar
    31    38    39   ar
    32     8     9   ar
    33     9    10    1
    34     9    11   ar
    35    14    15    1
    36    15    16    1
    37    16    17    1
    38    17    18    1
    39    18    19   ar
    40    19    20   ar
    41    20    21    1
    42    20    22   ar
    43    22    23   ar
    44    23    24   ar
    45    24    25    1
    46    25    26    1
    47    17    12    1
    48    24    18   ar
    49    11     5   ar
    50    49    41   ar
    51    39    34   ar
    52    49    44   ar
    53     3     4    1
    54    43    50    1
    55    32    33    1
@<TRIPOS>MOLECULE
*****
 50 55 0 0 0
SMALL
GASTEIGER

@<TRIPOS>ATOM
      1 C          60.4727   87.4266    9.6397 C.2     1  UNL1        0.2483
      2 O          59.3747   88.0449    9.5752 O.2     1  UNL1       -0.2701
      3 N          60.6084   86.1423    9.0105 N.am    1  UNL1       -0.2945
      4 H          61.4093   85.5380    9.3027 H       1  UNL1        0.1501
      5 C          63.7335   89.1936   11.8193 C.ar    1  UNL1        0.0502
      6 C          63.3289   89.7194   10.5835 C.ar    1  UNL1        0.0148
      7 C          62.2723   89.1369    9.8794 C.ar    1  UNL1        0.0080
      8 C          61.5951   88.0212   10.4005 C.ar    1  UNL1        0.0808
      9 C          62.0153   87.4815   11.6322 C.ar    1  UNL1        0.1457
     10 F          61.4428   86.3590   12.1364 F       1  UNL1       -0.2040
     11 C          63.0734   88.0681   12.3334 C.ar    1  UNL1        0.0443
     12 C          65.6089   90.1900   14.8487 C.3     1  UNL1        0.0926
     13 C          65.3645   89.1387   13.7495 C.3     1  UNL1        0.1105
     14 N          64.8267   89.7852   12.5448 N.pl3   1  UNL1       -0.3041
     15 C          65.5659   90.9215   11.9798 C.3     1  UNL1        0.1122
     16 C          65.8209   91.9677   13.0656 C.3     1  UNL1        0.1123
     17 N          66.3614   91.3146   14.2663 N.pl3   1  UNL1       -0.3034
     18 C          67.6996   91.6056   14.7182 C.ar    1  UNL1        0.0832
     19 C          67.8974   92.4644   15.8131 C.ar    1  UNL1        0.0290
     20 C          69.1881   92.7702   16.2510 C.ar    1  UNL1        0.0591
     21 CL         69.4193   93.8479   17.6157 Cl      1  UNL1       -0.0822
     22 C          70.2936   92.2226   15.5987 C.ar    1  UNL1        0.0146
     23 C          70.1129   91.3675   14.5097 C.ar    1  UNL1        0.0390
     24 C          68.8161   91.0483   14.0603 C.ar    1  UNL1        0.1519
     25 O          68.6021   90.1783   12.9798 O.3     1  UNL1       -0.4702
     26 C          68.8074   90.5179   11.6130 C.3     1  UNL1        0.2525
     27 C          63.2959   89.5652   15.7449 C.3     1  UNL1        0.0018
     28 C          64.2847   90.6974   15.4682 C.3     1  UNL1        0.0215
     29 C          59.5276   85.5405    8.2192 C.3     1  UNL1        0.1535
     30 C          58.8497   86.5705    7.3464 C.2     1  UNL1        0.2443
     31 O          57.6064   86.5044    7.1418 O.2     1  UNL1       -0.2730
     32 N          59.6076   87.6841    6.8469 N.am    1  UNL1       -0.2825
     33 H          60.5777   87.8154    7.2135 H       1  UNL1        0.1549
     34 C          59.0450   88.7368    6.0470 C.ar    1  UNL1        0.0535
     35 C          57.6600   88.9660    6.0054 C.ar    1  UNL1        0.0353
     36 C          57.1564   89.9929    5.2029 C.ar    1  UNL1        0.1002
     37 N          58.0014   90.7551    4.4593 N.ar    1  UNL1       -0.2422
     38 C          59.3442   90.5441    4.4675 C.ar    1  UNL1        0.1002
     39 C          59.8887   89.5263    5.2543 C.ar    1  UNL1        0.0353
     40 C          60.0611   84.3605    7.3836 C.3     1  UNL1        0.0569
     41 C          60.4255   83.1693    8.2267 C.ar    1  UNL1       -0.0017
     42 C          59.5659   82.1582    8.6461 C.ar    1  UNL1        0.0681
     43 N          60.2134   81.2964    9.4629 N.ar    1  UNL1       -0.3523
     44 C          61.4713   81.7588    9.5694 C.ar    1  UNL1        0.0563
     45 C          62.5087   81.2174   10.3275 C.ar    1  UNL1        0.0170
     46 C          63.7493   81.8810   10.3137 C.ar    1  UNL1        0.0015
     47 C          63.9232   83.0576    9.5517 C.ar    1  UNL1        0.0001
     48 C          62.8589   83.5804    8.7957 C.ar    1  UNL1        0.0012
     49 C          61.6400   82.9014    8.8297 C.ar    1  UNL1        0.0131
     50 H          59.8092   80.4537    9.9286 H       1  UNL1        0.1660
@<TRIPOS>BOND
     1    27    28    1
     2    28    12    1
     3    12    13    1
     4    13    14    1
     5    14     5    1
     6     5     6   ar
     7     6     7   ar
     8     7     8   ar
     9     8     1    1
    10     1     2    2
    11     1     3   am
    12     3    29    1
    13    29    40    1
    14    40    41    1
    15    41    42   ar
    16    42    43   ar
    17    43    44   ar
    18    44    45   ar
    19    45    46   ar
    20    46    47   ar
    21    47    48   ar
    22    48    49   ar
    23    29    30    1
    24    30    31    2
    25    30    32   am
    26    32    34    1
    27    34    35   ar
    28    35    36   ar
    29    36    37   ar
    30    37    38   ar
    31    38    39   ar
    32     8     9   ar
    33     9    10    1
    34     9    11   ar
    35    14    15    1
    36    15    16    1
    37    16    17    1
    38    17    18    1
    39    18    19   ar
    40    19    20   ar
    41    20    21    1
    42    20    22   ar
    43    22    23   ar
    44    23    24   ar
    45    24    25    1
    46    25    26    1
    47    17    12    1
    48    24    18   ar
    49    11     5   ar
    50    49    41   ar
    51    39    34   ar
    52    49    44   ar
    53     3     4    1
    54    43    50    1
    55    32    33    1
@<TRIPOS>MOLECULE
*****
 50 55 0 0 0
SMALL
GASTEIGER

@<TRIPOS>ATOM
      1 C          59.3372   82.9426   12.4484 C.2     1  UNL1        0.2483
      2 O          58.0971   83.1077   12.6128 O.2     1  UNL1       -0.2701
      3 N          59.8700   81.6155   12.3109 N.am    1  UNL1       -0.2945
      4 H          60.8970   81.4851   12.4527 H       1  UNL1        0.1501
      5 C          61.9002   86.3970   12.3927 C.ar    1  UNL1        0.0502
      6 C          60.8343   86.2806   11.4884 C.ar    1  UNL1        0.0148
      7 C          60.0094   85.1533   11.5096 C.ar    1  UNL1        0.0080
      8 C          60.2302   84.1234   12.4399 C.ar    1  UNL1        0.0808
      9 C          61.3133   84.2320   13.3344 C.ar    1  UNL1        0.1457
     10 F          61.6120   83.2279   14.1972 F       1  UNL1       -0.2040
     11 C          62.1362   85.3623   13.3095 C.ar    1  UNL1        0.0443
     12 C          64.0259   89.0352   13.8788 C.3     1  UNL1        0.0926
     13 C          63.9323   87.6327   13.2486 C.3     1  UNL1        0.1105
     14 N          62.7577   87.5526   12.3697 N.pl3   1  UNL1       -0.3041
     15 C          62.6055   88.5710   11.3225 C.3     1  UNL1        0.1122
     16 C          62.7051   89.9679   11.9371 C.3     1  UNL1        0.1123
     17 N          63.8835   90.0416   12.8125 N.pl3   1  UNL1       -0.3034
     18 C          64.9815   90.9189   12.4894 C.ar    1  UNL1        0.0832
     19 C          65.2915   91.1862   11.1448 C.ar    1  UNL1        0.0290
     20 C          66.3633   92.0193   10.8156 C.ar    1  UNL1        0.0591
     21 CL         66.7411   92.3396    9.1328 Cl      1  UNL1       -0.0822
     22 C          67.1369   92.5921   11.8262 C.ar    1  UNL1        0.0146
     23 C          66.8409   92.3360   13.1665 C.ar    1  UNL1        0.0390
     24 C          65.7602   91.5002   13.5119 C.ar    1  UNL1        0.1519
     25 O          65.4274   91.2382   14.8500 O.3     1  UNL1       -0.4702
     26 C          66.3340   91.3292   15.9434 C.3     1  UNL1        0.2525
     27 C          62.8361   88.0699   15.9273 C.3     1  UNL1        0.0018
     28 C          62.9470   89.2535   14.9665 C.3     1  UNL1        0.0215
     29 C          59.0093   80.4262   12.2796 C.3     1  UNL1        0.1535
     30 C          58.6158   80.0726   10.8646 C.2     1  UNL1        0.2443
     31 O          57.7164   79.2126   10.6559 O.2     1  UNL1       -0.2730
     32 N          59.1898   80.8010    9.7673 N.am    1  UNL1       -0.2825
     33 H          59.7657   81.6439    9.9919 H       1  UNL1        0.1549
     34 C          58.8481   80.5697    8.3911 C.ar    1  UNL1        0.0535
     35 C          57.5277   80.7022    7.9310 C.ar    1  UNL1        0.0353
     36 C          57.2394   80.4543    6.5866 C.ar    1  UNL1        0.1002
     37 N          58.2289   80.0759    5.7347 N.ar    1  UNL1       -0.2422
     38 C          59.5120   79.9235    6.1568 C.ar    1  UNL1        0.1002
     39 C          59.8425   80.1592    7.4934 C.ar    1  UNL1        0.0353
     40 C          59.6986   79.2407   12.9832 C.3     1  UNL1        0.0569
     41 C          61.0562   79.5960   13.5246 C.ar    1  UNL1       -0.0017
     42 C          61.4870   79.4493   14.8400 C.ar    1  UNL1        0.0681
     43 N          62.7334   79.9530   14.9877 N.ar    1  UNL1       -0.3523
     44 C          63.0900   80.4235   13.7799 C.ar    1  UNL1        0.0563
     45 C          64.2836   81.0589   13.4398 C.ar    1  UNL1        0.0170
     46 C          64.4409   81.4962   12.1118 C.ar    1  UNL1        0.0015
     47 C          63.4135   81.2914   11.1643 C.ar    1  UNL1        0.0001
     48 C          62.2202   80.6465   11.5357 C.ar    1  UNL1        0.0012
     49 C          62.0922   80.2248   12.8601 C.ar    1  UNL1        0.0131
     50 H          63.2944   79.9841   15.8679 H       1  UNL1        0.1660
@<TRIPOS>BOND
     1    27    28    1
     2    28    12    1
     3    12    13    1
     4    13    14    1
     5    14     5    1
     6     5     6   ar
     7     6     7   ar
     8     7     8   ar
     9     8     1    1
    10     1     2    2
    11     1     3   am
    12     3    29    1
    13    29    40    1
    14    40    41    1
    15    41    42   ar
    16    42    43   ar
    17    43    44   ar
    18    44    45   ar
    19    45    46   ar
    20    46    47   ar
    21    47    48   ar
    22    48    49   ar
    23    29    30    1
    24    30    31    2
    25    30    32   am
    26    32    34    1
    27    34    35   ar
    28    35    36   ar
    29    36    37   ar
    30    37    38   ar
    31    38    39   ar
    32     8     9   ar
    33     9    10    1
    34     9    11   ar
    35    14    15    1
    36    15    16    1
    37    16    17    1
    38    17    18    1
    39    18    19   ar
    40    19    20   ar
    41    20    21    1
    42    20    22   ar
    43    22    23   ar
    44    23    24   ar
    45    24    25    1
    46    25    26    1
    47    17    12    1
    48    24    18   ar
    49    11     5   ar
    50    49    41   ar
    51    39    34   ar
    52    49    44   ar
    53     3     4    1
    54    43    50    1
    55    32    33    1
@<TRIPOS>MOLECULE
*****
 50 55 0 0 0
SMALL
GASTEIGER

@<TRIPOS>ATOM
      1 C          59.1569   82.7486   12.6606 C.2     1  UNL1        0.2483
      2 O          57.9138   82.9345   12.7710 O.2     1  UNL1       -0.2701
      3 N          59.6676   81.4185   12.4761 N.am    1  UNL1       -0.2945
      4 H          60.6829   81.2556   12.6622 H       1  UNL1        0.1501
      5 C          61.8581   86.0815   12.9783 C.ar    1  UNL1        0.0502
      6 C          62.1642   84.8510   13.5780 C.ar    1  UNL1        0.0148
      7 C          61.2794   83.7749   13.4745 C.ar    1  UNL1        0.0080
      8 C          60.0743   83.9061   12.7635 C.ar    1  UNL1        0.0808
      9 C          59.7585   85.1483   12.1787 C.ar    1  UNL1        0.1457
     10 F          58.5719   85.3445   11.5497 F       1  UNL1       -0.2040
     11 C          60.6473   86.2227   12.2849 C.ar    1  UNL1        0.0443
     12 C          64.0286   88.4839   14.7684 C.3     1  UNL1        0.0926
     13 C          63.9030   87.1469   14.0136 C.3     1  UNL1        0.1105
     14 N          62.7625   87.1956   13.0888 N.pl3   1  UNL1       -0.3041
     15 C          62.6943   88.3068   12.1310 C.3     1  UNL1        0.1122
     16 C          62.8263   89.6393   12.8699 C.3     1  UNL1        0.1123
     17 N          63.9706   89.5843   13.7908 N.pl3   1  UNL1       -0.3034
     18 C          65.1158   90.4368   13.5868 C.ar    1  UNL1        0.0832
     19 C          65.9150   90.8089   14.6814 C.ar    1  UNL1        0.0290
     20 C          67.0168   91.6488   14.5026 C.ar    1  UNL1        0.0591
     21 CL         68.0020   92.1088   15.8792 Cl      1  UNL1       -0.0822
     22 C          67.3299   92.1264   13.2292 C.ar    1  UNL1        0.0146
     23 C          66.5453   91.7650   12.1321 C.ar    1  UNL1        0.0390
     24 C          65.4334   90.9156   12.2985 C.ar    1  UNL1        0.1519
     25 O          64.6364   90.5209   11.2127 O.3     1  UNL1       -0.4702
     26 C          64.6216   91.1630    9.9426 C.3     1  UNL1        0.2525
     27 C          62.5386   87.3335   16.5005 C.3     1  UNL1        0.0018
     28 C          62.9167   88.6545   15.8311 C.3     1  UNL1        0.0215
     29 C          58.7844   80.2539   12.3346 C.3     1  UNL1        0.1535
     30 C          58.4685   79.9798   10.8830 C.2     1  UNL1        0.2443
     31 O          57.5529   79.1666   10.5791 O.2     1  UNL1       -0.2730
     32 N          59.1377   80.7329    9.8587 N.am    1  UNL1       -0.2825
     33 H          59.7290   81.5413   10.1577 H       1  UNL1        0.1549
     34 C          58.8756   80.5771    8.4546 C.ar    1  UNL1        0.0535
     35 C          57.5759   80.6897    7.9343 C.ar    1  UNL1        0.0353
     36 C          57.3662   80.5173    6.5637 C.ar    1  UNL1        0.1002
     37 N          58.4119   80.2304    5.7438 N.ar    1  UNL1       -0.2422
     38 C          59.6771   80.0990    6.2231 C.ar    1  UNL1        0.1002
     39 C          59.9299   80.2614    7.5873 C.ar    1  UNL1        0.0353
     40 C          59.4041   79.0188   13.0171 C.3     1  UNL1        0.0569
     41 C          60.7679   79.2938   13.5888 C.ar    1  UNL1       -0.0017
     42 C          61.1963   79.0073   14.8818 C.ar    1  UNL1        0.0681
     43 N          62.4514   79.4717   15.0771 N.ar    1  UNL1       -0.3523
     44 C          62.8158   80.0558   13.9224 C.ar    1  UNL1        0.0563
     45 C          64.0203   80.7016   13.6459 C.ar    1  UNL1        0.0170
     46 C          64.1848   81.2683   12.3686 C.ar    1  UNL1        0.0015
     47 C          63.1537   81.1783   11.4074 C.ar    1  UNL1        0.0001
     48 C          61.9494   80.5199   11.7141 C.ar    1  UNL1        0.0012
     49 C          61.8145   79.9686   12.9892 C.ar    1  UNL1        0.0131
     50 H          63.0131   79.4039   15.9548 H       1  UNL1        0.1660
@<TRIPOS>BOND
     1    27    28    1
     2    28    12    1
     3    12    13    1
     4    13    14    1
     5    14     5    1
     6     5     6   ar
     7     6     7   ar
     8     7     8   ar
     9     8     1    1
    10     1     2    2
    11     1     3   am
    12     3    29    1
    13    29    40    1
    14    40    41    1
    15    41    42   ar
    16    42    43   ar
    17    43    44   ar
    18    44    45   ar
    19    45    46   ar
    20    46    47   ar
    21    47    48   ar
    22    48    49   ar
    23    29    30    1
    24    30    31    2
    25    30    32   am
    26    32    34    1
    27    34    35   ar
    28    35    36   ar
    29    36    37   ar
    30    37    38   ar
    31    38    39   ar
    32     8     9   ar
    33     9    10    1
    34     9    11   ar
    35    14    15    1
    36    15    16    1
    37    16    17    1
    38    17    18    1
    39    18    19   ar
    40    19    20   ar
    41    20    21    1
    42    20    22   ar
    43    22    23   ar
    44    23    24   ar
    45    24    25    1
    46    25    26    1
    47    17    12    1
    48    24    18   ar
    49    11     5   ar
    50    49    41   ar
    51    39    34   ar
    52    49    44   ar
    53     3     4    1
    54    43    50    1
    55    32    33    1
