@<TRIPOS>MOLECULE
*****
 38 42 0 0 0
SMALL
GASTEIGER

@<TRIPOS>ATOM
      1 C         -22.8891   -8.5310  -10.3802 C.2     1  UNL1        0.2506
      2 O         -24.0402   -8.9974  -10.1637 O.2     1  UNL1       -0.2699
      3 N         -22.6262   -7.7919  -11.5886 N.am    1  UNL1       -0.2680
      4 C         -21.7715   -6.6017  -11.5485 C.3     1  UNL1        0.1412
      5 C         -20.3758   -6.9436  -12.0627 C.3     1  UNL1        0.2268
      6 O         -20.4199   -7.9581  -13.0639 O.3     1  UNL1       -0.4739
      7 C         -21.2400   -7.8754  -14.1918 C.ar    1  UNL1        0.1362
      8 C         -20.6264   -7.8186  -15.4463 C.ar    1  UNL1        0.0366
      9 C         -21.3906   -7.7122  -16.6075 C.ar    1  UNL1        0.0031
     10 C         -22.7915   -7.6789  -16.5357 C.ar    1  UNL1       -0.0000
     11 C         -23.4113   -7.7622  -15.2768 C.ar    1  UNL1        0.0004
     12 C         -22.6539   -7.8585  -14.0959 C.ar    1  UNL1        0.0317
     13 C         -23.4107   -8.0802  -12.7963 C.3     1  UNL1        0.1236
     14 C         -23.6047   -7.5732  -17.7733 C.ar    1  UNL1        0.0012
     15 C         -24.3456   -6.3906  -18.0499 C.ar    1  UNL1       -0.0027
     16 C         -25.1278   -6.2799  -19.2211 C.ar    1  UNL1       -0.0027
     17 C         -25.8835   -5.0232  -19.5362 C.3     1  UNL1        0.0327
     18 C         -25.1224   -7.3644  -20.1015 C.ar    1  UNL1        0.0946
     19 N         -25.7638   -7.4783  -21.2801 N.ar    1  UNL1       -0.2244
     20 C         -25.4088   -8.7198  -21.7023 C.ar    1  UNL1        0.1750
     21 N         -24.5852   -9.3665  -20.8438 N.ar    1  UNL1       -0.3349
     22 C         -24.4153   -8.4978  -19.8402 C.ar    1  UNL1        0.0753
     23 C         -23.6463   -8.6493  -18.6909 C.ar    1  UNL1        0.0185
     24 H         -24.1762  -10.3217  -20.9462 H       1  UNL1        0.1675
     25 C         -20.6255   -9.4172   -9.7042 C.ar    1  UNL1        0.0503
     26 C         -19.6246   -9.5294   -8.7175 C.ar    1  UNL1        0.0328
     27 C         -19.8246   -9.0165   -7.4300 C.ar    1  UNL1        0.1069
     28 C         -21.0280   -8.3785   -7.1166 C.ar    1  UNL1        0.0186
     29 C         -22.0255   -8.2498   -8.0823 C.ar    1  UNL1        0.0071
     30 C         -21.8299   -8.7471   -9.3784 C.ar    1  UNL1        0.0667
     31 S         -18.5520   -9.1543   -6.2208 S.O2    1  UNL1        0.0105
     32 C         -17.9087   -7.5371   -5.8573 C.3     1  UNL1        0.1816
     33 O         -17.4487  -10.0308   -6.7439 O.2     1  UNL1       -0.1686
     34 O         -19.1013   -9.7689   -4.9638 O.2     1  UNL1       -0.1686
     35 N         -20.4428  -10.0037  -11.0123 N.pl3   1  UNL1       -0.3325
     36 H         -20.0624   -9.4105  -11.7838 H       1  UNL1        0.1468
     37 C         -21.6079  -11.5183  -12.5738 C.3     1  UNL1        0.0229
     38 C         -20.7538  -11.4032  -11.3141 C.3     1  UNL1        0.0871
@<TRIPOS>BOND
     1    37    38    1
     2    38    35    1
     3    35    25    1
     4    25    26   ar
     5    26    27   ar
     6    27    31    1
     7    31    32    1
     8    31    33    2
     9    31    34    2
    10    27    28   ar
    11    28    29   ar
    12    29    30   ar
    13    30     1    1
    14     1     2    2
    15     1     3   am
    16     3     4    1
    17     4     5    1
    18     5     6    1
    19     6     7    1
    20     7     8   ar
    21     8     9   ar
    22     9    10   ar
    23    10    14    1
    24    14    15   ar
    25    15    16   ar
    26    16    17    1
    27    16    18   ar
    28    18    19   ar
    29    19    20   ar
    30    20    21   ar
    31    21    22   ar
    32    22    23   ar
    33    10    11   ar
    34    11    12   ar
    35    12    13    1
    36    30    25   ar
    37    13     3    1
    38    12     7   ar
    39    23    14   ar
    40    22    18   ar
    41    35    36    1
    42    21    24    1
@<TRIPOS>MOLECULE
*****
 38 42 0 0 0
SMALL
GASTEIGER

@<TRIPOS>ATOM
      1 C         -22.0611   -9.9370  -13.2883 C.2     1  UNL1        0.2506
      2 O         -21.7699  -10.2565  -14.4725 O.2     1  UNL1       -0.2699
      3 N         -23.3177   -9.2922  -13.0038 N.am    1  UNL1       -0.2680
      4 C         -24.0710   -9.6538  -11.7994 C.3     1  UNL1        0.1412
      5 C         -23.8684   -8.5948  -10.7192 C.3     1  UNL1        0.2268
      6 O         -23.6876   -7.2979  -11.2840 O.3     1  UNL1       -0.4739
      7 C         -24.5746   -6.7435  -12.2101 C.ar    1  UNL1        0.1362
      8 C         -25.2654   -5.5849  -11.8445 C.ar    1  UNL1        0.0366
      9 C         -26.1811   -4.9978  -12.7167 C.ar    1  UNL1        0.0031
     10 C         -26.4101   -5.5521  -13.9851 C.ar    1  UNL1       -0.0000
     11 C         -25.6970   -6.7025  -14.3648 C.ar    1  UNL1        0.0004
     12 C         -24.7787   -7.3125  -13.4920 C.ar    1  UNL1        0.0317
     13 C         -23.9573   -8.4690  -14.0385 C.3     1  UNL1        0.1236
     14 C         -27.3798   -4.9220  -14.9162 C.ar    1  UNL1        0.0012
     15 C         -28.7755   -4.9709  -14.6449 C.ar    1  UNL1       -0.0027
     16 C         -29.7085   -4.3803  -15.5259 C.ar    1  UNL1       -0.0027
     17 C         -31.1785   -4.3976  -15.2284 C.3     1  UNL1        0.0327
     18 C         -29.2033   -3.7294  -16.6539 C.ar    1  UNL1        0.0946
     19 N         -29.8901   -3.0786  -17.6123 N.ar    1  UNL1       -0.2244
     20 C         -28.9112   -2.6461  -18.4493 C.ar    1  UNL1        0.1750
     21 N         -27.6660   -2.9984  -18.0504 N.ar    1  UNL1       -0.3349
     22 C         -27.8688   -3.6808  -16.9174 C.ar    1  UNL1        0.0753
     23 C         -26.9216   -4.2635  -16.0817 C.ar    1  UNL1        0.0185
     24 H         -26.7586   -2.7826  -18.5198 H       1  UNL1        0.1675
     25 C         -20.7430  -11.5730  -11.8911 C.ar    1  UNL1        0.0503
     26 C         -19.7697  -11.7910  -10.8945 C.ar    1  UNL1        0.0328
     27 C         -19.1904  -10.7162  -10.2090 C.ar    1  UNL1        0.1069
     28 C         -19.5742   -9.4083  -10.5182 C.ar    1  UNL1        0.0186
     29 C         -20.5282   -9.1729  -11.5074 C.ar    1  UNL1        0.0071
     30 C         -21.1041  -10.2410  -12.2095 C.ar    1  UNL1        0.0667
     31 S         -17.9644  -11.0145   -8.9807 S.O2    1  UNL1        0.0105
     32 C         -17.8309  -12.7644   -8.6960 C.3     1  UNL1        0.1816
     33 O         -18.3485  -10.3228   -7.7028 O.2     1  UNL1       -0.1686
     34 O         -16.6366  -10.4790   -9.4388 O.2     1  UNL1       -0.1686
     35 N         -21.3864  -12.6856  -12.5517 N.pl3   1  UNL1       -0.3325
     36 H         -22.3640  -12.9372  -12.2821 H       1  UNL1        0.1468
     37 C         -21.7073  -13.7815  -14.7394 C.3     1  UNL1        0.0229
     38 C         -20.7389  -13.4798  -13.5989 C.3     1  UNL1        0.0871
@<TRIPOS>BOND
     1    37    38    1
     2    38    35    1
     3    35    25    1
     4    25    26   ar
     5    26    27   ar
     6    27    31    1
     7    31    32    1
     8    31    33    2
     9    31    34    2
    10    27    28   ar
    11    28    29   ar
    12    29    30   ar
    13    30     1    1
    14     1     2    2
    15     1     3   am
    16     3     4    1
    17     4     5    1
    18     5     6    1
    19     6     7    1
    20     7     8   ar
    21     8     9   ar
    22     9    10   ar
    23    10    14    1
    24    14    15   ar
    25    15    16   ar
    26    16    17    1
    27    16    18   ar
    28    18    19   ar
    29    19    20   ar
    30    20    21   ar
    31    21    22   ar
    32    22    23   ar
    33    10    11   ar
    34    11    12   ar
    35    12    13    1
    36    30    25   ar
    37    13     3    1
    38    12     7   ar
    39    23    14   ar
    40    22    18   ar
    41    35    36    1
    42    21    24    1
@<TRIPOS>MOLECULE
*****
 38 42 0 0 0
SMALL
GASTEIGER

@<TRIPOS>ATOM
      1 C         -21.7205   -8.1412   -9.3465 C.2     1  UNL1        0.2506
      2 O         -22.5018   -8.0312   -8.3632 O.2     1  UNL1       -0.2699
      3 N         -22.0079   -7.4486  -10.5767 N.am    1  UNL1       -0.2680
      4 C         -20.9212   -6.8267  -11.3389 C.3     1  UNL1        0.1412
      5 C         -20.5417   -7.7111  -12.5234 C.3     1  UNL1        0.2268
      6 O         -21.6687   -8.4253  -13.0267 O.3     1  UNL1       -0.4739
      7 C         -22.8680   -7.8003  -13.3770 C.ar    1  UNL1        0.1362
      8 C         -23.2728   -7.8597  -14.7134 C.ar    1  UNL1        0.0366
      9 C         -24.4485   -7.2358  -15.1287 C.ar    1  UNL1        0.0031
     10 C         -25.2546   -6.5525  -14.2058 C.ar    1  UNL1       -0.0000
     11 C         -24.8627   -6.5138  -12.8564 C.ar    1  UNL1        0.0004
     12 C         -23.6741   -7.1285  -12.4243 C.ar    1  UNL1        0.0317
     13 C         -23.4024   -7.1508  -10.9287 C.3     1  UNL1        0.1236
     14 C         -26.5102   -5.8949  -14.6475 C.ar    1  UNL1        0.0012
     15 C         -26.4684   -4.7869  -15.5389 C.ar    1  UNL1       -0.0027
     16 C         -27.6556   -4.1488  -15.9620 C.ar    1  UNL1       -0.0027
     17 C         -27.6210   -3.0026  -16.9288 C.3     1  UNL1        0.0327
     18 C         -28.8649   -4.6650  -15.4903 C.ar    1  UNL1        0.0946
     19 N         -30.1124   -4.2437  -15.7730 N.ar    1  UNL1       -0.2244
     20 C         -30.8919   -5.0934  -15.0545 C.ar    1  UNL1        0.1750
     21 N         -30.1850   -6.0093  -14.3509 N.ar    1  UNL1       -0.3349
     22 C         -28.9092   -5.7246  -14.6369 C.ar    1  UNL1        0.0753
     23 C         -27.7612   -6.3685  -14.1867 C.ar    1  UNL1        0.0185
     24 H         -30.5541   -6.7645  -13.7315 H       1  UNL1        0.1675
     25 C         -19.6569   -8.8675   -8.0895 C.ar    1  UNL1        0.0503
     26 C         -18.5579   -9.7450   -7.9887 C.ar    1  UNL1        0.0328
     27 C         -18.2975  -10.6880   -8.9904 C.ar    1  UNL1        0.1069
     28 C         -19.1392  -10.7683  -10.1033 C.ar    1  UNL1        0.0186
     29 C         -20.2363   -9.9152  -10.2155 C.ar    1  UNL1        0.0071
     30 C         -20.5142   -8.9771   -9.2115 C.ar    1  UNL1        0.0667
     31 S         -16.9284  -11.7840   -8.8322 S.O2    1  UNL1        0.0105
     32 C         -16.5121  -11.9604   -7.1127 C.3     1  UNL1        0.1816
     33 O         -15.7488  -11.2333   -9.5835 O.2     1  UNL1       -0.1686
     34 O         -17.2784  -13.1297   -9.4033 O.2     1  UNL1       -0.1686
     35 N         -19.8865   -7.8524   -7.0869 N.pl3   1  UNL1       -0.3325
     36 H         -20.6286   -7.1358   -7.2534 H       1  UNL1        0.1468
     37 C         -19.8082   -8.6081   -4.7390 C.3     1  UNL1        0.0229
     38 C         -19.1353   -7.7811   -5.8311 C.3     1  UNL1        0.0871
@<TRIPOS>BOND
     1    37    38    1
     2    38    35    1
     3    35    25    1
     4    25    26   ar
     5    26    27   ar
     6    27    31    1
     7    31    32    1
     8    31    33    2
     9    31    34    2
    10    27    28   ar
    11    28    29   ar
    12    29    30   ar
    13    30     1    1
    14     1     2    2
    15     1     3   am
    16     3     4    1
    17     4     5    1
    18     5     6    1
    19     6     7    1
    20     7     8   ar
    21     8     9   ar
    22     9    10   ar
    23    10    14    1
    24    14    15   ar
    25    15    16   ar
    26    16    17    1
    27    16    18   ar
    28    18    19   ar
    29    19    20   ar
    30    20    21   ar
    31    21    22   ar
    32    22    23   ar
    33    10    11   ar
    34    11    12   ar
    35    12    13    1
    36    30    25   ar
    37    13     3    1
    38    12     7   ar
    39    23    14   ar
    40    22    18   ar
    41    35    36    1
    42    21    24    1
@<TRIPOS>MOLECULE
*****
 38 42 0 0 0
SMALL
GASTEIGER

@<TRIPOS>ATOM
      1 C         -22.0790   -8.0987   -9.4005 C.2     1  UNL1        0.2506
      2 O         -22.8770   -7.9784   -8.4319 O.2     1  UNL1       -0.2699
      3 N         -22.3299   -7.3959  -10.6328 N.am    1  UNL1       -0.2680
      4 C         -21.2175   -6.7910  -11.3713 C.3     1  UNL1        0.1412
      5 C         -20.8315   -7.6774  -12.5522 C.3     1  UNL1        0.2268
      6 O         -21.9615   -8.3687  -13.0802 O.3     1  UNL1       -0.4739
      7 C         -23.1422   -7.7202  -13.4507 C.ar    1  UNL1        0.1362
      8 C         -23.5222   -7.7667  -14.7949 C.ar    1  UNL1        0.0366
      9 C         -24.6779   -7.1195  -15.2300 C.ar    1  UNL1        0.0031
     10 C         -25.4890   -6.4253  -14.3196 C.ar    1  UNL1       -0.0000
     11 C         -25.1225   -6.3994  -12.9628 C.ar    1  UNL1        0.0004
     12 C         -23.9540   -7.0376  -12.5107 C.ar    1  UNL1        0.0317
     13 C         -23.7117   -7.0711  -11.0103 C.3     1  UNL1        0.1236
     14 C         -26.7236   -5.7428  -14.7825 C.ar    1  UNL1        0.0012
     15 C         -26.6463   -4.6547  -15.6957 C.ar    1  UNL1       -0.0027
     16 C         -27.8132   -3.9933  -16.1391 C.ar    1  UNL1       -0.0027
     17 C         -27.7416   -2.8683  -17.1286 C.3     1  UNL1        0.0327
     18 C         -29.0388   -4.4666  -15.6647 C.ar    1  UNL1        0.0946
     19 N         -30.2727   -4.0173  -15.9638 N.ar    1  UNL1       -0.2244
     20 C         -31.0793   -4.8307  -15.2333 C.ar    1  UNL1        0.1750
     21 N         -30.4018   -5.7510  -14.5069 N.ar    1  UNL1       -0.3349
     22 C         -29.1170   -5.5071  -14.7905 C.ar    1  UNL1        0.0753
     23 C         -27.9898   -6.1727  -14.3202 C.ar    1  UNL1        0.0185
     24 H         -30.7950   -6.4832  -13.8747 H       1  UNL1        0.1675
     25 C         -20.6783  -10.0861  -10.0744 C.ar    1  UNL1        0.0503
     26 C         -19.4872  -10.8246   -9.9198 C.ar    1  UNL1        0.0328
     27 C         -18.5439  -10.4709   -8.9474 C.ar    1  UNL1        0.1069
     28 C         -18.7789   -9.3681   -8.1215 C.ar    1  UNL1        0.0186
     29 C         -19.9467   -8.6202   -8.2662 C.ar    1  UNL1        0.0071
     30 C         -20.8911   -8.9573   -9.2460 C.ar    1  UNL1        0.0667
     31 S         -17.0563  -11.3993   -8.7863 S.O2    1  UNL1        0.0105
     32 C         -17.3197  -13.0443   -9.4073 C.3     1  UNL1        0.1816
     33 O         -16.6535  -11.4641   -7.3397 O.2     1  UNL1       -0.1686
     34 O         -15.9523  -10.7408   -9.5654 O.2     1  UNL1       -0.1686
     35 N         -21.6797  -10.4911  -11.0344 N.pl3   1  UNL1       -0.3325
     36 H         -22.6066  -10.0088  -11.0322 H       1  UNL1        0.1468
     37 C         -22.6481  -11.6662  -12.9762 C.3     1  UNL1        0.0229
     38 C         -21.4579  -11.5440  -12.0287 C.3     1  UNL1        0.0871
@<TRIPOS>BOND
     1    37    38    1
     2    38    35    1
     3    35    25    1
     4    25    26   ar
     5    26    27   ar
     6    27    31    1
     7    31    32    1
     8    31    33    2
     9    31    34    2
    10    27    28   ar
    11    28    29   ar
    12    29    30   ar
    13    30     1    1
    14     1     2    2
    15     1     3   am
    16     3     4    1
    17     4     5    1
    18     5     6    1
    19     6     7    1
    20     7     8   ar
    21     8     9   ar
    22     9    10   ar
    23    10    14    1
    24    14    15   ar
    25    15    16   ar
    26    16    17    1
    27    16    18   ar
    28    18    19   ar
    29    19    20   ar
    30    20    21   ar
    31    21    22   ar
    32    22    23   ar
    33    10    11   ar
    34    11    12   ar
    35    12    13    1
    36    30    25   ar
    37    13     3    1
    38    12     7   ar
    39    23    14   ar
    40    22    18   ar
    41    35    36    1
    42    21    24    1
@<TRIPOS>MOLECULE
*****
 38 42 0 0 0
SMALL
GASTEIGER

@<TRIPOS>ATOM
      1 C         -22.0526   -9.8130  -13.2343 C.2     1  UNL1        0.2506
      2 O         -21.7966  -10.1535  -14.4208 O.2     1  UNL1       -0.2699
      3 N         -23.3178   -9.2014  -12.9167 N.am    1  UNL1       -0.2680
      4 C         -24.0121   -9.5556  -11.6753 C.3     1  UNL1        0.1412
      5 C         -23.8031   -8.4631  -10.6302 C.3     1  UNL1        0.2268
      6 O         -23.6867   -7.1761  -11.2333 O.3     1  UNL1       -0.4739
      7 C         -24.6262   -6.6744  -12.1374 C.ar    1  UNL1        0.1362
      8 C         -25.3402   -5.5292  -11.7735 C.ar    1  UNL1        0.0366
      9 C         -26.3074   -4.9944  -12.6234 C.ar    1  UNL1        0.0031
     10 C         -26.5666   -5.5882  -13.8679 C.ar    1  UNL1       -0.0000
     11 C         -25.8312   -6.7247  -14.2469 C.ar    1  UNL1        0.0004
     12 C         -24.8605   -7.2824  -13.3959 C.ar    1  UNL1        0.0317
     13 C         -24.0232   -8.4260  -13.9455 C.3     1  UNL1        0.1236
     14 C         -27.5913   -5.0136  -14.7755 C.ar    1  UNL1        0.0012
     15 C         -28.9756   -5.2295  -14.5283 C.ar    1  UNL1       -0.0027
     16 C         -29.9601   -4.6930  -15.3876 C.ar    1  UNL1       -0.0027
     17 C         -31.4218   -4.8874  -15.1134 C.3     1  UNL1        0.0327
     18 C         -29.5195   -3.9260  -16.4687 C.ar    1  UNL1        0.0946
     19 N         -30.2651   -3.2985  -17.3982 N.ar    1  UNL1       -0.2244
     20 C         -29.3322   -2.7138  -18.1943 C.ar    1  UNL1        0.1750
     21 N         -28.0594   -2.9516  -17.7979 N.ar    1  UNL1       -0.3349
     22 C         -28.1960   -3.7174  -16.7091 C.ar    1  UNL1        0.0753
     23 C         -27.1980   -4.2419  -15.8943 C.ar    1  UNL1        0.0185
     24 H         -27.1771   -2.6113  -18.2406 H       1  UNL1        0.1675
     25 C         -20.4163   -8.9930  -11.4975 C.ar    1  UNL1        0.0503
     26 C         -19.5130   -9.2981  -10.4587 C.ar    1  UNL1        0.0328
     27 C         -19.2174  -10.6270  -10.1311 C.ar    1  UNL1        0.1069
     28 C         -19.8285  -11.6677  -10.8361 C.ar    1  UNL1        0.0186
     29 C         -20.7316  -11.3852  -11.8601 C.ar    1  UNL1        0.0071
     30 C         -21.0454  -10.0585  -12.1866 C.ar    1  UNL1        0.0667
     31 S         -18.0989  -10.9812   -8.8181 S.O2    1  UNL1        0.0105
     32 C         -18.4717   -9.9350   -7.4297 C.3     1  UNL1        0.1816
     33 O         -16.6881  -10.7329   -9.2731 O.2     1  UNL1       -0.1686
     34 O         -18.2269  -12.4217   -8.4081 O.2     1  UNL1       -0.1686
     35 N         -20.6707   -7.6220  -11.8768 N.pl3   1  UNL1       -0.3325
     36 H         -20.9352   -7.4116  -12.8655 H       1  UNL1        0.1468
     37 C         -21.2405   -5.2484  -11.5150 C.3     1  UNL1        0.0229
     38 C         -20.5891   -6.5014  -10.9365 C.3     1  UNL1        0.0871
@<TRIPOS>BOND
     1    37    38    1
     2    38    35    1
     3    35    25    1
     4    25    26   ar
     5    26    27   ar
     6    27    31    1
     7    31    32    1
     8    31    33    2
     9    31    34    2
    10    27    28   ar
    11    28    29   ar
    12    29    30   ar
    13    30     1    1
    14     1     2    2
    15     1     3   am
    16     3     4    1
    17     4     5    1
    18     5     6    1
    19     6     7    1
    20     7     8   ar
    21     8     9   ar
    22     9    10   ar
    23    10    14    1
    24    14    15   ar
    25    15    16   ar
    26    16    17    1
    27    16    18   ar
    28    18    19   ar
    29    19    20   ar
    30    20    21   ar
    31    21    22   ar
    32    22    23   ar
    33    10    11   ar
    34    11    12   ar
    35    12    13    1
    36    30    25   ar
    37    13     3    1
    38    12     7   ar
    39    23    14   ar
    40    22    18   ar
    41    35    36    1
    42    21    24    1
@<TRIPOS>MOLECULE
*****
 38 42 0 0 0
SMALL
GASTEIGER

@<TRIPOS>ATOM
      1 C         -21.0193   -7.8988  -11.7678 C.2     1  UNL1        0.2506
      2 O         -20.2226   -7.5933  -12.6959 O.2     1  UNL1       -0.2699
      3 N         -22.4380   -7.9306  -12.0168 N.am    1  UNL1       -0.2680
      4 C         -23.2627   -8.9875  -11.4239 C.3     1  UNL1        0.1412
      5 C         -24.0071   -8.4475  -10.2059 C.3     1  UNL1        0.2268
      6 O         -24.3276   -7.0662  -10.3574 O.3     1  UNL1       -0.4739
      7 C         -24.9945   -6.5606  -11.4760 C.ar    1  UNL1        0.1362
      8 C         -26.2530   -5.9836  -11.2843 C.ar    1  UNL1        0.0366
      9 C         -26.9776   -5.4823  -12.3648 C.ar    1  UNL1        0.0031
     10 C         -26.4453   -5.5328  -13.6620 C.ar    1  UNL1       -0.0000
     11 C         -25.1686   -6.0891  -13.8534 C.ar    1  UNL1        0.0004
     12 C         -24.4305   -6.6090  -12.7753 C.ar    1  UNL1        0.0317
     13 C         -23.0080   -7.0648  -13.0574 C.3     1  UNL1        0.1236
     14 C         -27.2143   -4.9919  -14.8110 C.ar    1  UNL1        0.0012
     15 C         -28.6316   -4.8886  -14.7450 C.ar    1  UNL1       -0.0027
     16 C         -29.3752   -4.3811  -15.8337 C.ar    1  UNL1       -0.0027
     17 C         -30.8662   -4.2368  -15.7577 C.3     1  UNL1        0.0327
     18 C         -28.6615   -3.9649  -16.9600 C.ar    1  UNL1        0.0946
     19 N         -29.1458   -3.4298  -18.0970 N.ar    1  UNL1       -0.2244
     20 C         -28.0256   -3.2168  -18.8357 C.ar    1  UNL1        0.1750
     21 N         -26.8862   -3.5930  -18.2082 N.ar    1  UNL1       -0.3349
     22 C         -27.3055   -4.0625  -17.0274 C.ar    1  UNL1        0.0753
     23 C         -26.5412   -4.5708  -15.9821 C.ar    1  UNL1        0.0185
     24 H         -25.9072   -3.5273  -18.5654 H       1  UNL1        0.1675
     25 C         -19.8129   -9.4548  -10.1901 C.ar    1  UNL1        0.0503
     26 C         -19.2557   -9.6776   -8.9142 C.ar    1  UNL1        0.0328
     27 C         -19.3788   -8.7206   -7.8995 C.ar    1  UNL1        0.1069
     28 C         -20.0563   -7.5245   -8.1525 C.ar    1  UNL1        0.0186
     29 C         -20.6056   -7.2826   -9.4110 C.ar    1  UNL1        0.0071
     30 C         -20.4758   -8.2280  -10.4380 C.ar    1  UNL1        0.0667
     31 S         -18.6589   -9.0158   -6.3199 S.O2    1  UNL1        0.0105
     32 C         -17.8675   -7.5301   -5.7475 C.3     1  UNL1        0.1816
     33 O         -17.6449  -10.1204   -6.4235 O.2     1  UNL1       -0.1686
     34 O         -19.7214   -9.4268   -5.3393 O.2     1  UNL1       -0.1686
     35 N         -19.7409  -10.4704  -11.2156 N.pl3   1  UNL1       -0.3325
     36 H         -19.1272  -10.3083  -12.0457 H       1  UNL1        0.1468
     37 C         -21.2611  -11.9853  -12.4335 C.3     1  UNL1        0.0229
     38 C         -20.4801  -11.7334  -11.1467 C.3     1  UNL1        0.0871
@<TRIPOS>BOND
     1    37    38    1
     2    38    35    1
     3    35    25    1
     4    25    26   ar
     5    26    27   ar
     6    27    31    1
     7    31    32    1
     8    31    33    2
     9    31    34    2
    10    27    28   ar
    11    28    29   ar
    12    29    30   ar
    13    30     1    1
    14     1     2    2
    15     1     3   am
    16     3     4    1
    17     4     5    1
    18     5     6    1
    19     6     7    1
    20     7     8   ar
    21     8     9   ar
    22     9    10   ar
    23    10    14    1
    24    14    15   ar
    25    15    16   ar
    26    16    17    1
    27    16    18   ar
    28    18    19   ar
    29    19    20   ar
    30    20    21   ar
    31    21    22   ar
    32    22    23   ar
    33    10    11   ar
    34    11    12   ar
    35    12    13    1
    36    30    25   ar
    37    13     3    1
    38    12     7   ar
    39    23    14   ar
    40    22    18   ar
    41    35    36    1
    42    21    24    1
@<TRIPOS>MOLECULE
*****
 38 42 0 0 0
SMALL
GASTEIGER

@<TRIPOS>ATOM
      1 C         -21.6314  -10.9835  -12.6970 C.2     1  UNL1        0.2506
      2 O         -21.4918  -11.3860  -13.8836 O.2     1  UNL1       -0.2699
      3 N         -22.8209  -10.2665  -12.3141 N.am    1  UNL1       -0.2680
      4 C         -23.4428  -10.5211  -11.0113 C.3     1  UNL1        0.1412
      5 C         -23.0759   -9.4097  -10.0317 C.3     1  UNL1        0.2268
      6 O         -22.9124   -8.1584  -10.6957 O.3     1  UNL1       -0.4739
      7 C         -23.8790   -7.6206  -11.5492 C.ar    1  UNL1        0.1362
      8 C         -24.4780   -6.4121  -11.1831 C.ar    1  UNL1        0.0366
      9 C         -25.4655   -5.8372  -11.9819 C.ar    1  UNL1        0.0031
     10 C         -25.8611   -6.4553  -13.1778 C.ar    1  UNL1       -0.0000
     11 C         -25.2413   -7.6574  -13.5609 C.ar    1  UNL1        0.0004
     12 C         -24.2519   -8.2552  -12.7603 C.ar    1  UNL1        0.0317
     13 C         -23.5443   -9.4784  -13.3206 C.3     1  UNL1        0.1236
     14 C         -26.9074   -5.8385  -14.0317 C.ar    1  UNL1        0.0012
     15 C         -26.5607   -4.8543  -14.9986 C.ar    1  UNL1       -0.0027
     16 C         -27.5477   -4.2558  -15.8131 C.ar    1  UNL1       -0.0027
     17 C         -27.1848   -3.2431  -16.8583 C.3     1  UNL1        0.0327
     18 C         -28.8657   -4.6872  -15.6463 C.ar    1  UNL1        0.0946
     19 N         -29.9609   -4.2847  -16.3187 N.ar    1  UNL1       -0.2244
     20 C         -30.9532   -5.0227  -15.7560 C.ar    1  UNL1        0.1750
     21 N         -30.5196   -5.8529  -14.7781 N.ar    1  UNL1       -0.3349
     22 C         -29.2016   -5.6283  -14.7220 C.ar    1  UNL1        0.0753
     23 C         -28.2602   -6.2286  -13.8922 C.ar    1  UNL1        0.0185
     24 H         -31.0858   -6.5166  -14.2043 H       1  UNL1        0.1675
     25 C         -19.9844  -10.2368  -10.9375 C.ar    1  UNL1        0.0503
     26 C         -19.0209  -10.5846   -9.9686 C.ar    1  UNL1        0.0328
     27 C         -18.6234  -11.9162   -9.7966 C.ar    1  UNL1        0.1069
     28 C         -19.1914  -12.9176  -10.5891 C.ar    1  UNL1        0.0186
     29 C         -20.1526  -12.5938  -11.5458 C.ar    1  UNL1        0.0071
     30 C         -20.5680  -11.2657  -11.7163 C.ar    1  UNL1        0.0667
     31 S         -17.4309  -12.3264   -8.5677 S.O2    1  UNL1        0.0105
     32 C         -15.7988  -12.0488   -9.2162 C.3     1  UNL1        0.1816
     33 O         -17.5807  -13.7703   -8.1781 O.2     1  UNL1       -0.1686
     34 O         -17.6363  -11.4737   -7.3470 O.2     1  UNL1       -0.1686
     35 N         -20.3458   -8.8550  -11.1577 N.pl3   1  UNL1       -0.3325
     36 H         -20.9402   -8.3687  -10.4492 H       1  UNL1        0.1468
     37 C         -20.7370   -6.8176  -12.4938 C.3     1  UNL1        0.0229
     38 C         -19.9082   -8.0882  -12.3269 C.3     1  UNL1        0.0871
@<TRIPOS>BOND
     1    37    38    1
     2    38    35    1
     3    35    25    1
     4    25    26   ar
     5    26    27   ar
     6    27    31    1
     7    31    32    1
     8    31    33    2
     9    31    34    2
    10    27    28   ar
    11    28    29   ar
    12    29    30   ar
    13    30     1    1
    14     1     2    2
    15     1     3   am
    16     3     4    1
    17     4     5    1
    18     5     6    1
    19     6     7    1
    20     7     8   ar
    21     8     9   ar
    22     9    10   ar
    23    10    14    1
    24    14    15   ar
    25    15    16   ar
    26    16    17    1
    27    16    18   ar
    28    18    19   ar
    29    19    20   ar
    30    20    21   ar
    31    21    22   ar
    32    22    23   ar
    33    10    11   ar
    34    11    12   ar
    35    12    13    1
    36    30    25   ar
    37    13     3    1
    38    12     7   ar
    39    23    14   ar
    40    22    18   ar
    41    35    36    1
    42    21    24    1
@<TRIPOS>MOLECULE
*****
 38 42 0 0 0
SMALL
GASTEIGER

@<TRIPOS>ATOM
      1 C         -22.1255   -7.9962   -9.6407 C.2     1  UNL1        0.2506
      2 O         -22.9315   -7.8224   -8.6870 O.2     1  UNL1       -0.2699
      3 N         -22.3221   -7.3001  -10.8867 N.am    1  UNL1       -0.2680
      4 C         -21.1696   -6.7619  -11.6153 C.3     1  UNL1        0.1412
      5 C         -20.8099   -7.6835  -12.7774 C.3     1  UNL1        0.2268
      6 O         -21.9645   -8.3257  -13.3140 O.3     1  UNL1       -0.4739
      7 C         -23.1057   -7.6253  -13.7125 C.ar    1  UNL1        0.1362
      8 C         -23.4666   -7.6727  -15.0619 C.ar    1  UNL1        0.0366
      9 C         -24.5819   -6.9756  -15.5247 C.ar    1  UNL1        0.0031
     10 C         -25.3715   -6.2288  -14.6374 C.ar    1  UNL1       -0.0000
     11 C         -25.0253   -6.2011  -13.2752 C.ar    1  UNL1        0.0004
     12 C         -23.8970   -6.8896  -12.7954 C.ar    1  UNL1        0.0317
     13 C         -23.6800   -6.9129  -11.2910 C.3     1  UNL1        0.1236
     14 C         -26.5633   -5.4930  -15.1296 C.ar    1  UNL1        0.0012
     15 C         -27.8478   -5.7472  -14.5733 C.ar    1  UNL1       -0.0027
     16 C         -28.9904   -5.0580  -15.0370 C.ar    1  UNL1       -0.0027
     17 C         -30.3417   -5.2957  -14.4312 C.3     1  UNL1        0.0327
     18 C         -28.8018   -4.1051  -16.0408 C.ar    1  UNL1        0.0946
     19 N         -29.7269   -3.3140  -16.6171 N.ar    1  UNL1       -0.2244
     20 C         -28.9996   -2.5946  -17.5110 C.ar    1  UNL1        0.1750
     21 N         -27.6816   -2.9052  -17.5084 N.ar    1  UNL1       -0.3349
     22 C         -27.5746   -3.8592  -16.5761 C.ar    1  UNL1        0.0753
     23 C         -26.4297   -4.5285  -16.1560 C.ar    1  UNL1        0.0185
     24 H         -26.9253   -2.4913  -18.0973 H       1  UNL1        0.1675
     25 C         -20.8283  -10.0735  -10.2475 C.ar    1  UNL1        0.0503
     26 C         -19.6777  -10.8677  -10.0654 C.ar    1  UNL1        0.0328
     27 C         -18.7196  -10.5336   -9.1005 C.ar    1  UNL1        0.1069
     28 C         -18.8991   -9.3950   -8.3098 C.ar    1  UNL1        0.0186
     29 C         -20.0261   -8.5924   -8.4822 C.ar    1  UNL1        0.0071
     30 C         -20.9842   -8.9101   -9.4551 C.ar    1  UNL1        0.0667
     31 S         -17.2827  -11.5325   -8.9048 S.O2    1  UNL1        0.0105
     32 C         -16.9403  -11.7369   -7.1721 C.3     1  UNL1        0.1816
     33 O         -16.1114  -10.8725   -9.5766 O.2     1  UNL1       -0.1686
     34 O         -17.5034  -12.8796   -9.5340 O.2     1  UNL1       -0.1686
     35 N         -21.8471  -10.4555  -11.1987 N.pl3   1  UNL1       -0.3325
     36 H         -22.7426   -9.9177  -11.2238 H       1  UNL1        0.1468
     37 C         -22.9165  -11.7082  -13.0363 C.3     1  UNL1        0.0229
     38 C         -21.6844  -11.5596  -12.1478 C.3     1  UNL1        0.0871
@<TRIPOS>BOND
     1    37    38    1
     2    38    35    1
     3    35    25    1
     4    25    26   ar
     5    26    27   ar
     6    27    31    1
     7    31    32    1
     8    31    33    2
     9    31    34    2
    10    27    28   ar
    11    28    29   ar
    12    29    30   ar
    13    30     1    1
    14     1     2    2
    15     1     3   am
    16     3     4    1
    17     4     5    1
    18     5     6    1
    19     6     7    1
    20     7     8   ar
    21     8     9   ar
    22     9    10   ar
    23    10    14    1
    24    14    15   ar
    25    15    16   ar
    26    16    17    1
    27    16    18   ar
    28    18    19   ar
    29    19    20   ar
    30    20    21   ar
    31    21    22   ar
    32    22    23   ar
    33    10    11   ar
    34    11    12   ar
    35    12    13    1
    36    30    25   ar
    37    13     3    1
    38    12     7   ar
    39    23    14   ar
    40    22    18   ar
    41    35    36    1
    42    21    24    1
@<TRIPOS>MOLECULE
*****
 38 42 0 0 0
SMALL
GASTEIGER

@<TRIPOS>ATOM
      1 C         -26.2811   -8.0959  -11.2891 C.2     1  UNL1        0.2506
      2 O         -26.8022   -8.3059  -10.1605 O.2     1  UNL1       -0.2699
      3 N         -25.0019   -8.6751  -11.6116 N.am    1  UNL1       -0.2680
      4 C         -24.7573   -9.2105  -12.9541 C.3     1  UNL1        0.1412
      5 C         -23.9378   -8.2157  -13.7715 C.3     1  UNL1        0.2268
      6 O         -23.0426   -7.4718  -12.9475 O.3     1  UNL1       -0.4739
      7 C         -22.1480   -8.0764  -12.0610 C.ar    1  UNL1        0.1362
      8 C         -20.7802   -7.8985  -12.2862 C.ar    1  UNL1        0.0366
      9 C         -19.8382   -8.4956  -11.4495 C.ar    1  UNL1        0.0031
     10 C         -20.2500   -9.2712  -10.3552 C.ar    1  UNL1       -0.0000
     11 C         -21.6254   -9.4298  -10.1117 C.ar    1  UNL1        0.0004
     12 C         -22.5874   -8.8432  -10.9530 C.ar    1  UNL1        0.0317
     13 C         -24.0443   -8.9560  -10.5340 C.3     1  UNL1        0.1236
     14 C         -19.2463   -9.9005   -9.4604 C.ar    1  UNL1        0.0012
     15 C         -19.1092   -9.4658   -8.1128 C.ar    1  UNL1       -0.0027
     16 C         -18.1540  -10.0525   -7.2531 C.ar    1  UNL1       -0.0027
     17 C         -18.0280   -9.6232   -5.8215 C.3     1  UNL1        0.0327
     18 C         -17.3729  -11.0874   -7.7726 C.ar    1  UNL1        0.0946
     19 N         -16.4252  -11.8072   -7.1422 N.ar    1  UNL1       -0.2244
     20 C         -15.9998  -12.6638   -8.1071 C.ar    1  UNL1        0.1750
     21 N         -16.6388  -12.5038   -9.2902 N.ar    1  UNL1       -0.3349
     22 C         -17.5006  -11.5060   -9.0616 C.ar    1  UNL1        0.0753
     23 C         -18.4188  -10.9424   -9.9416 C.ar    1  UNL1        0.0185
     24 H         -16.4924  -13.0398  -10.1743 H       1  UNL1        0.1675
     25 C         -26.6444   -5.9109  -12.4973 C.ar    1  UNL1        0.0503
     26 C         -27.3311   -5.1892  -13.4952 C.ar    1  UNL1        0.0328
     27 C         -28.3683   -5.7823  -14.2253 C.ar    1  UNL1        0.1069
     28 C         -28.7264   -7.1088  -13.9694 C.ar    1  UNL1        0.0186
     29 C         -28.0523   -7.8411  -12.9929 C.ar    1  UNL1        0.0071
     30 C         -27.0030   -7.2613  -12.2661 C.ar    1  UNL1        0.0667
     31 S         -29.1985   -4.8647  -15.4781 S.O2    1  UNL1        0.0105
     32 C         -27.9963   -4.0608  -16.5123 C.3     1  UNL1        0.1816
     33 O         -30.0899   -3.8336  -14.8446 O.2     1  UNL1       -0.1686
     34 O         -30.0435   -5.7845  -16.3144 O.2     1  UNL1       -0.1686
     35 N         -25.6183   -5.2774  -11.7009 N.pl3   1  UNL1       -0.3325
     36 H         -25.7759   -5.1586  -10.6748 H       1  UNL1        0.1468
     37 C         -23.2454   -4.8139  -11.2068 C.3     1  UNL1        0.0229
     38 C         -24.3508   -4.7994  -12.2590 C.3     1  UNL1        0.0871
@<TRIPOS>BOND
     1    37    38    1
     2    38    35    1
     3    35    25    1
     4    25    26   ar
     5    26    27   ar
     6    27    31    1
     7    31    32    1
     8    31    33    2
     9    31    34    2
    10    27    28   ar
    11    28    29   ar
    12    29    30   ar
    13    30     1    1
    14     1     2    2
    15     1     3   am
    16     3     4    1
    17     4     5    1
    18     5     6    1
    19     6     7    1
    20     7     8   ar
    21     8     9   ar
    22     9    10   ar
    23    10    14    1
    24    14    15   ar
    25    15    16   ar
    26    16    17    1
    27    16    18   ar
    28    18    19   ar
    29    19    20   ar
    30    20    21   ar
    31    21    22   ar
    32    22    23   ar
    33    10    11   ar
    34    11    12   ar
    35    12    13    1
    36    30    25   ar
    37    13     3    1
    38    12     7   ar
    39    23    14   ar
    40    22    18   ar
    41    35    36    1
    42    21    24    1
