@<TRIPOS>MOLECULE
*****
 42 46 0 0 0
SMALL
GASTEIGER

@<TRIPOS>ATOM
      1 C         -59.5983  -42.2432  -20.7463 C.3     1  UNL1        0.0498
      2 C         -60.8133  -42.9440  -21.3650 C.3     1  UNL1        0.1673
      3 C         -60.8728  -44.4056  -20.9060 C.3     1  UNL1        0.0498
      4 O         -60.6675  -42.9226  -22.8021 O.3     1  UNL1       -0.4770
      5 C         -61.6847  -42.5731  -23.7155 C.ar    1  UNL1        0.1407
      6 C         -61.4768  -42.7508  -25.0872 C.ar    1  UNL1        0.0452
      7 C         -62.4792  -42.3996  -26.0023 C.ar    1  UNL1        0.0450
      8 C         -63.6916  -41.8647  -25.5438 C.ar    1  UNL1        0.0085
      9 C         -63.9035  -41.6784  -24.1742 C.ar    1  UNL1        0.0052
     10 C         -62.9010  -42.0314  -23.2620 C.ar    1  UNL1        0.0529
     11 C         -63.0482  -41.8508  -21.8214 C.ar    1  UNL1        0.1005
     12 N         -64.1037  -41.3358  -21.1633 N.ar    1  UNL1       -0.2271
     13 C         -63.7308  -41.4329  -19.8626 C.ar    1  UNL1        0.1417
     14 N         -62.5071  -41.9888  -19.6984 N.ar    1  UNL1       -0.3380
     15 C         -62.0812  -42.2366  -20.9459 C.ar    1  UNL1        0.0891
     16 H         -62.0207  -42.2185  -18.8035 H       1  UNL1        0.1672
     17 C         -64.5956  -41.0000  -18.7360 C.ar    1  UNL1        0.0531
     18 C         -65.3889  -41.9430  -18.0359 C.ar    1  UNL1        0.0720
     19 C         -66.1997  -41.5258  -16.9726 C.ar    1  UNL1        0.0104
     20 C         -66.2360  -40.1840  -16.5967 C.ar    1  UNL1        0.0014
     21 C         -65.4665  -39.2444  -17.2805 C.ar    1  UNL1        0.0104
     22 C         -64.6487  -39.6378  -18.3476 C.ar    1  UNL1        0.0720
     23 C         -65.3596  -43.3502  -18.3606 C.1     1  UNL1        0.1005
     24 N         -65.3357  -44.4777  -18.6206 N.1     1  UNL1       -0.1908
     25 C         -63.9175  -38.6153  -19.0589 C.1     1  UNL1        0.1005
     26 N         -63.3320  -37.7959  -19.6292 N.1     1  UNL1       -0.1908
     27 C         -62.2622  -42.5876  -27.4118 C.1     1  UNL1       -0.0597
     28 C         -62.0862  -42.7484  -28.5935 C.1     1  UNL1       -0.0598
     29 C         -61.8818  -42.9446  -30.0087 C.ar    1  UNL1        0.0459
     30 C         -62.7017  -42.2485  -30.9036 C.ar    1  UNL1        0.0084
     31 C         -62.5420  -42.4049  -32.2804 C.ar    1  UNL1        0.0070
     32 C         -61.5521  -43.2596  -32.7897 C.ar    1  UNL1        0.0754
     33 C         -60.7354  -43.9694  -31.8911 C.ar    1  UNL1        0.0109
     34 C         -60.8845  -43.8209  -30.4973 C.ar    1  UNL1        0.0793
     35 C         -61.3758  -43.4383  -34.2521 C.2     1  UNL1        0.3380
     36 O         -62.3754  -43.3696  -35.0158 O.2     1  UNL1       -0.2451
     37 O         -60.1264  -43.6977  -34.8147 O.3     1  UNL1       -0.4771
     38 H         -59.3011  -43.8682  -34.2550 H       1  UNL1        0.2954
     39 C         -59.9893  -44.5878  -29.5430 C.3     1  UNL1        0.4191
     40 F         -59.0636  -45.3210  -30.2635 F       1  UNL1       -0.1658
     41 F         -59.3215  -43.7001  -28.7188 F       1  UNL1       -0.1658
     42 F         -60.7099  -45.4614  -28.7465 F       1  UNL1       -0.1658
@<TRIPOS>BOND
     1     1     2    1
     2     2     3    1
     3     2     4    1
     4     4     5    1
     5     5     6   ar
     6     6     7   ar
     7     7    27    1
     8    27    28    3
     9    28    29    1
    10    29    30   ar
    11    30    31   ar
    12    31    32   ar
    13    32    35    1
    14    35    36    2
    15    35    37    1
    16    32    33   ar
    17    33    34   ar
    18    34    39    1
    19    39    40    1
    20    39    41    1
    21    39    42    1
    22     7     8   ar
    23     8     9   ar
    24     9    10   ar
    25    10    11    1
    26    11    12   ar
    27    12    13   ar
    28    13    17    1
    29    17    18   ar
    30    18    23    1
    31    23    24    3
    32    18    19   ar
    33    19    20   ar
    34    20    21   ar
    35    21    22   ar
    36    22    25    1
    37    25    26    3
    38    13    14   ar
    39    14    15   ar
    40    15     2    1
    41    10     5   ar
    42    15    11   ar
    43    34    29   ar
    44    22    17   ar
    45    37    38    1
    46    14    16    1
@<TRIPOS>MOLECULE
*****
 42 46 0 0 0
SMALL
GASTEIGER

@<TRIPOS>ATOM
      1 C         -60.9845  -47.5361  -27.9906 C.3     1  UNL1        0.0498
      2 C         -60.5279  -46.1006  -27.7059 C.3     1  UNL1        0.1673
      3 C         -59.0019  -46.0474  -27.5676 C.3     1  UNL1        0.0498
      4 O         -61.1144  -45.6764  -26.4558 O.3     1  UNL1       -0.4770
      5 C         -61.7474  -44.4344  -26.2368 C.ar    1  UNL1        0.1407
      6 C         -62.1281  -44.0683  -24.9416 C.ar    1  UNL1        0.0452
      7 C         -62.7640  -42.8393  -24.7159 C.ar    1  UNL1        0.0450
      8 C         -63.0239  -41.9762  -25.7899 C.ar    1  UNL1        0.0085
      9 C         -62.6518  -42.3389  -27.0882 C.ar    1  UNL1        0.0052
     10 C         -62.0154  -43.5666  -27.3108 C.ar    1  UNL1        0.0529
     11 C         -61.6132  -44.0154  -28.6398 C.ar    1  UNL1        0.1005
     12 N         -61.7838  -43.3708  -29.8093 N.ar    1  UNL1       -0.2271
     13 C         -61.2036  -44.2062  -30.7071 C.ar    1  UNL1        0.1417
     14 N         -60.6821  -45.3197  -30.1401 N.ar    1  UNL1       -0.3380
     15 C         -60.9594  -45.1924  -28.8340 C.ar    1  UNL1        0.0891
     16 H         -60.1431  -46.0845  -30.6037 H       1  UNL1        0.1672
     17 C         -61.1244  -43.9082  -32.1595 C.ar    1  UNL1        0.0531
     18 C         -62.2794  -43.5019  -32.8734 C.ar    1  UNL1        0.0720
     19 C         -62.1944  -43.2203  -34.2429 C.ar    1  UNL1        0.0104
     20 C         -60.9786  -43.3394  -34.9142 C.ar    1  UNL1        0.0014
     21 C         -59.8360  -43.7446  -34.2265 C.ar    1  UNL1        0.0104
     22 C         -59.8967  -44.0326  -32.8569 C.ar    1  UNL1        0.0720
     23 C         -63.5547  -43.3266  -32.2183 C.1     1  UNL1        0.1005
     24 N         -64.5765  -43.1864  -31.6932 N.1     1  UNL1       -0.1908
     25 C         -58.6968  -44.5046  -32.2060 C.1     1  UNL1        0.1005
     26 N         -57.7353  -44.8832  -31.6848 N.1     1  UNL1       -0.1908
     27 C         -63.1503  -42.4654  -23.3817 C.1     1  UNL1       -0.0597
     28 C         -63.4778  -42.1576  -22.2631 C.1     1  UNL1       -0.0598
     29 C         -63.8741  -41.7950  -20.9235 C.ar    1  UNL1        0.0459
     30 C         -65.2386  -41.7738  -20.6147 C.ar    1  UNL1        0.0084
     31 C         -65.6705  -41.4301  -19.3337 C.ar    1  UNL1        0.0070
     32 C         -64.7420  -41.1052  -18.3326 C.ar    1  UNL1        0.0754
     33 C         -63.3707  -41.1142  -18.6452 C.ar    1  UNL1        0.0109
     34 C         -62.9192  -41.4602  -19.9349 C.ar    1  UNL1        0.0793
     35 C         -65.1892  -40.7330  -16.9676 C.2     1  UNL1        0.3380
     36 O         -65.9443  -39.7375  -16.8064 O.2     1  UNL1       -0.2451
     37 O         -64.7842  -41.4491  -15.8416 O.3     1  UNL1       -0.4771
     38 H         -64.0994  -42.1924  -15.8853 H       1  UNL1        0.2954
     39 C         -61.4362  -41.4728  -20.2520 C.3     1  UNL1        0.4191
     40 F         -61.1743  -40.5861  -21.2810 F       1  UNL1       -0.1658
     41 F         -60.7191  -41.0915  -19.1322 F       1  UNL1       -0.1658
     42 F         -61.0004  -42.7284  -20.6395 F       1  UNL1       -0.1658
@<TRIPOS>BOND
     1     1     2    1
     2     2     3    1
     3     2     4    1
     4     4     5    1
     5     5     6   ar
     6     6     7   ar
     7     7    27    1
     8    27    28    3
     9    28    29    1
    10    29    30   ar
    11    30    31   ar
    12    31    32   ar
    13    32    35    1
    14    35    36    2
    15    35    37    1
    16    32    33   ar
    17    33    34   ar
    18    34    39    1
    19    39    40    1
    20    39    41    1
    21    39    42    1
    22     7     8   ar
    23     8     9   ar
    24     9    10   ar
    25    10    11    1
    26    11    12   ar
    27    12    13   ar
    28    13    17    1
    29    17    18   ar
    30    18    23    1
    31    23    24    3
    32    18    19   ar
    33    19    20   ar
    34    20    21   ar
    35    21    22   ar
    36    22    25    1
    37    25    26    3
    38    13    14   ar
    39    14    15   ar
    40    15     2    1
    41    10     5   ar
    42    15    11   ar
    43    34    29   ar
    44    22    17   ar
    45    37    38    1
    46    14    16    1
@<TRIPOS>MOLECULE
*****
 42 46 0 0 0
SMALL
GASTEIGER

@<TRIPOS>ATOM
      1 C         -59.6047  -42.2440  -20.7322 C.3     1  UNL1        0.0498
      2 C         -60.8142  -42.9496  -21.3564 C.3     1  UNL1        0.1673
      3 C         -60.8693  -44.4117  -20.8985 C.3     1  UNL1        0.0498
      4 O         -60.6625  -42.9267  -22.7928 O.3     1  UNL1       -0.4770
      5 C         -61.6773  -42.5810  -23.7103 C.ar    1  UNL1        0.1407
      6 C         -61.4629  -42.7570  -25.0812 C.ar    1  UNL1        0.0452
      7 C         -62.4630  -42.4096  -26.0003 C.ar    1  UNL1        0.0450
      8 C         -63.6795  -41.8801  -25.5466 C.ar    1  UNL1        0.0085
      9 C         -63.8979  -41.6955  -24.1778 C.ar    1  UNL1        0.0052
     10 C         -62.8978  -42.0448  -23.2616 C.ar    1  UNL1        0.0529
     11 C         -63.0518  -41.8657  -21.8216 C.ar    1  UNL1        0.1005
     12 N         -64.1122  -41.3556  -21.1676 N.ar    1  UNL1       -0.2271
     13 C         -63.7443  -41.4519  -19.8653 C.ar    1  UNL1        0.1417
     14 N         -62.5190  -42.0026  -19.6964 N.ar    1  UNL1       -0.3380
     15 C         -62.0868  -42.2478  -20.9422 C.ar    1  UNL1        0.0891
     16 H         -62.0353  -42.2308  -18.7995 H       1  UNL1        0.1672
     17 C         -64.6157  -41.0233  -18.7421 C.ar    1  UNL1        0.0531
     18 C         -64.6740  -39.6604  -18.3577 C.ar    1  UNL1        0.0720
     19 C         -65.5010  -39.2651  -17.2986 C.ar    1  UNL1        0.0104
     20 C         -66.2691  -40.2053  -16.6137 C.ar    1  UNL1        0.0014
     21 C         -66.2167  -41.5501  -16.9762 C.ar    1  UNL1        0.0104
     22 C         -65.3963  -41.9693  -18.0315 C.ar    1  UNL1        0.0720
     23 C         -63.9275  -38.6412  -19.0580 C.1     1  UNL1        0.1005
     24 N         -63.3297  -37.8246  -19.6195 N.1     1  UNL1       -0.1908
     25 C         -65.3349  -43.3817  -18.3273 C.1     1  UNL1        0.1005
     26 N         -65.2852  -44.5135  -18.5641 N.1     1  UNL1       -0.1908
     27 C         -62.2393  -42.5958  -27.4090 C.1     1  UNL1       -0.0597
     28 C         -62.0482  -42.7574  -28.5883 C.1     1  UNL1       -0.0598
     29 C         -61.8154  -42.9567  -29.9987 C.ar    1  UNL1        0.0459
     30 C         -62.5960  -42.2388  -30.9112 C.ar    1  UNL1        0.0084
     31 C         -62.4079  -42.3973  -32.2842 C.ar    1  UNL1        0.0070
     32 C         -61.4282  -43.2760  -32.7717 C.ar    1  UNL1        0.0754
     33 C         -60.6511  -44.0075  -31.8555 C.ar    1  UNL1        0.0109
     34 C         -60.8293  -43.8573  -30.4653 C.ar    1  UNL1        0.0793
     35 C         -61.2218  -43.4571  -34.2299 C.2     1  UNL1        0.3380
     36 O         -62.2030  -43.3735  -35.0157 O.2     1  UNL1       -0.2451
     37 O         -59.9642  -43.7349  -34.7645 O.3     1  UNL1       -0.4771
     38 H         -59.1542  -43.9176  -34.1867 H       1  UNL1        0.2954
     39 C         -59.9766  -44.6479  -29.4917 C.3     1  UNL1        0.4191
     40 F         -59.1410  -45.4992  -30.1923 F       1  UNL1       -0.1658
     41 F         -59.2088  -43.7797  -28.7365 F       1  UNL1       -0.1658
     42 F         -60.7467  -45.4088  -28.6288 F       1  UNL1       -0.1658
@<TRIPOS>BOND
     1     1     2    1
     2     2     3    1
     3     2     4    1
     4     4     5    1
     5     5     6   ar
     6     6     7   ar
     7     7    27    1
     8    27    28    3
     9    28    29    1
    10    29    30   ar
    11    30    31   ar
    12    31    32   ar
    13    32    35    1
    14    35    36    2
    15    35    37    1
    16    32    33   ar
    17    33    34   ar
    18    34    39    1
    19    39    40    1
    20    39    41    1
    21    39    42    1
    22     7     8   ar
    23     8     9   ar
    24     9    10   ar
    25    10    11    1
    26    11    12   ar
    27    12    13   ar
    28    13    17    1
    29    17    18   ar
    30    18    23    1
    31    23    24    3
    32    18    19   ar
    33    19    20   ar
    34    20    21   ar
    35    21    22   ar
    36    22    25    1
    37    25    26    3
    38    13    14   ar
    39    14    15   ar
    40    15     2    1
    41    10     5   ar
    42    15    11   ar
    43    34    29   ar
    44    22    17   ar
    45    37    38    1
    46    14    16    1
@<TRIPOS>MOLECULE
*****
 42 46 0 0 0
SMALL
GASTEIGER

@<TRIPOS>ATOM
      1 C         -60.9298  -47.5221  -27.9880 C.3     1  UNL1        0.0498
      2 C         -60.4845  -46.0826  -27.7054 C.3     1  UNL1        0.1673
      3 C         -58.9590  -46.0174  -27.5663 C.3     1  UNL1        0.0498
      4 O         -61.0750  -45.6610  -26.4563 O.3     1  UNL1       -0.4770
      5 C         -61.7177  -44.4236  -26.2397 C.ar    1  UNL1        0.1407
      6 C         -62.1020  -44.0582  -24.9454 C.ar    1  UNL1        0.0452
      7 C         -62.7475  -42.8339  -24.7220 C.ar    1  UNL1        0.0450
      8 C         -63.0134  -41.9745  -25.7976 C.ar    1  UNL1        0.0085
      9 C         -62.6378  -42.3365  -27.0951 C.ar    1  UNL1        0.0052
     10 C         -61.9917  -43.5596  -27.3153 C.ar    1  UNL1        0.0529
     11 C         -61.5853  -44.0074  -28.6434 C.ar    1  UNL1        0.1005
     12 N         -61.7602  -43.3661  -29.8140 N.ar    1  UNL1       -0.2271
     13 C         -61.1730  -44.1984  -30.7100 C.ar    1  UNL1        0.1417
     14 N         -60.6432  -45.3069  -30.1410 N.ar    1  UNL1       -0.3380
     15 C         -60.9223  -45.1796  -28.8352 C.ar    1  UNL1        0.0891
     16 H         -60.0981  -46.0683  -30.6030 H       1  UNL1        0.1672
     17 C         -61.0953  -43.9022  -32.1629 C.ar    1  UNL1        0.0531
     18 C         -59.8688  -44.0402  -32.8595 C.ar    1  UNL1        0.0720
     19 C         -59.8057  -43.7610  -34.2307 C.ar    1  UNL1        0.0104
     20 C         -60.9434  -43.3437  -34.9194 C.ar    1  UNL1        0.0014
     21 C         -62.1549  -43.1969  -34.2459 C.ar    1  UNL1        0.0104
     22 C         -62.2422  -43.4694  -32.8746 C.ar    1  UNL1        0.0720
     23 C         -58.6698  -44.5051  -32.2017 C.1     1  UNL1        0.1005
     24 N         -57.7093  -44.8777  -31.6742 N.1     1  UNL1       -0.1908
     25 C         -63.5070  -43.2446  -32.2144 C.1     1  UNL1        0.1005
     26 N         -64.5202  -43.0647  -31.6849 N.1     1  UNL1       -0.1908
     27 C         -63.1374  -42.4608  -23.3886 C.1     1  UNL1       -0.0597
     28 C         -63.4656  -42.1546  -22.2698 C.1     1  UNL1       -0.0598
     29 C         -63.8600  -41.7949  -20.9289 C.ar    1  UNL1        0.0459
     30 C         -65.2219  -41.8076  -20.6084 C.ar    1  UNL1        0.0084
     31 C         -65.6518  -41.4681  -19.3257 C.ar    1  UNL1        0.0070
     32 C         -64.7238  -41.1134  -18.3344 C.ar    1  UNL1        0.0754
     33 C         -63.3554  -41.0884  -18.6587 C.ar    1  UNL1        0.0109
     34 C         -62.9059  -41.4297  -19.9503 C.ar    1  UNL1        0.0793
     35 C         -65.1690  -40.7454  -16.9677 C.2     1  UNL1        0.3380
     36 O         -65.9094  -39.7398  -16.8005 O.2     1  UNL1       -0.2451
     37 O         -64.7781  -41.4765  -15.8463 O.3     1  UNL1       -0.4771
     38 H         -64.1045  -42.2297  -15.8941 H       1  UNL1        0.2954
     39 C         -61.4257  -41.4054  -20.2800 C.3     1  UNL1        0.4191
     40 F         -61.1847  -40.4612  -21.2619 F       1  UNL1       -0.1658
     41 F         -60.7035  -41.0753  -19.1473 F       1  UNL1       -0.1658
     42 F         -60.9772  -42.6324  -20.7382 F       1  UNL1       -0.1658
@<TRIPOS>BOND
     1     1     2    1
     2     2     3    1
     3     2     4    1
     4     4     5    1
     5     5     6   ar
     6     6     7   ar
     7     7    27    1
     8    27    28    3
     9    28    29    1
    10    29    30   ar
    11    30    31   ar
    12    31    32   ar
    13    32    35    1
    14    35    36    2
    15    35    37    1
    16    32    33   ar
    17    33    34   ar
    18    34    39    1
    19    39    40    1
    20    39    41    1
    21    39    42    1
    22     7     8   ar
    23     8     9   ar
    24     9    10   ar
    25    10    11    1
    26    11    12   ar
    27    12    13   ar
    28    13    17    1
    29    17    18   ar
    30    18    23    1
    31    23    24    3
    32    18    19   ar
    33    19    20   ar
    34    20    21   ar
    35    21    22   ar
    36    22    25    1
    37    25    26    3
    38    13    14   ar
    39    14    15   ar
    40    15     2    1
    41    10     5   ar
    42    15    11   ar
    43    34    29   ar
    44    22    17   ar
    45    37    38    1
    46    14    16    1
@<TRIPOS>MOLECULE
*****
 42 46 0 0 0
SMALL
GASTEIGER

@<TRIPOS>ATOM
      1 C         -60.3571  -45.7894  -26.8034 C.3     1  UNL1        0.0498
      2 C         -61.6508  -45.7392  -25.9825 C.3     1  UNL1        0.1673
      3 C         -62.8698  -45.8144  -26.9094 C.3     1  UNL1        0.0498
      4 O         -61.6921  -44.4801  -25.2756 O.3     1  UNL1       -0.4770
      5 C         -62.0244  -44.3253  -23.9129 C.ar    1  UNL1        0.1407
      6 C         -62.1942  -43.0428  -23.3813 C.ar    1  UNL1        0.0452
      7 C         -62.5173  -42.8795  -22.0268 C.ar    1  UNL1        0.0450
      8 C         -62.6665  -44.0027  -21.2008 C.ar    1  UNL1        0.0085
      9 C         -62.4917  -45.2876  -21.7244 C.ar    1  UNL1        0.0052
     10 C         -62.1703  -45.4480  -23.0782 C.ar    1  UNL1        0.0529
     11 C         -61.9593  -46.7571  -23.6876 C.ar    1  UNL1        0.1005
     12 N         -62.0230  -47.9605  -23.0876 N.ar    1  UNL1       -0.2271
     13 C         -61.7832  -48.8238  -24.1063 C.ar    1  UNL1        0.1417
     14 N         -61.5865  -48.2053  -25.2946 N.ar    1  UNL1       -0.3380
     15 C         -61.6879  -46.8978  -25.0131 C.ar    1  UNL1        0.0891
     16 H         -61.4368  -48.6441  -26.2303 H       1  UNL1        0.1672
     17 C         -61.7703  -50.2985  -23.9343 C.ar    1  UNL1        0.0531
     18 C         -62.9581  -51.0522  -24.1068 C.ar    1  UNL1        0.0720
     19 C         -62.9358  -52.4434  -23.9451 C.ar    1  UNL1        0.0104
     20 C         -61.7504  -53.0964  -23.6114 C.ar    1  UNL1        0.0014
     21 C         -60.5761  -52.3674  -23.4319 C.ar    1  UNL1        0.0104
     22 C         -60.5742  -50.9752  -23.5874 C.ar    1  UNL1        0.0720
     23 C         -64.2041  -50.4294  -24.4893 C.1     1  UNL1        0.1005
     24 N         -65.2023  -49.9306  -24.7961 N.1     1  UNL1       -0.1908
     25 C         -59.3439  -50.2628  -23.3324 C.1     1  UNL1        0.1005
     26 N         -58.3583  -49.6916  -23.1277 N.1     1  UNL1       -0.1908
     27 C         -62.6946  -41.5587  -21.4854 C.1     1  UNL1       -0.0597
     28 C         -62.8474  -40.4543  -21.0270 C.1     1  UNL1       -0.0598
     29 C         -63.0349  -39.1347  -20.4733 C.ar    1  UNL1        0.0459
     30 C         -62.4029  -38.0537  -21.0976 C.ar    1  UNL1        0.0084
     31 C         -62.5545  -36.7596  -20.5997 C.ar    1  UNL1        0.0070
     32 C         -63.3483  -36.5210  -19.4671 C.ar    1  UNL1        0.0754
     33 C         -63.9742  -37.6084  -18.8315 C.ar    1  UNL1        0.0109
     34 C         -63.8310  -38.9215  -19.3235 C.ar    1  UNL1        0.0793
     35 C         -63.5132  -35.1497  -18.9249 C.2     1  UNL1        0.3380
     36 O         -62.5167  -34.5389  -18.4547 O.2     1  UNL1       -0.2451
     37 O         -64.7534  -34.5123  -18.9052 O.3     1  UNL1       -0.4771
     38 H         -65.6109  -34.9793  -19.1695 H       1  UNL1        0.2954
     39 C         -64.5201  -40.0811  -18.6302 C.3     1  UNL1        0.4191
     40 F         -63.5742  -41.0005  -18.2132 F       1  UNL1       -0.1658
     41 F         -65.2158  -39.6159  -17.5288 F       1  UNL1       -0.1658
     42 F         -65.4140  -40.7272  -19.4670 F       1  UNL1       -0.1658
@<TRIPOS>BOND
     1     1     2    1
     2     2     3    1
     3     2     4    1
     4     4     5    1
     5     5     6   ar
     6     6     7   ar
     7     7    27    1
     8    27    28    3
     9    28    29    1
    10    29    30   ar
    11    30    31   ar
    12    31    32   ar
    13    32    35    1
    14    35    36    2
    15    35    37    1
    16    32    33   ar
    17    33    34   ar
    18    34    39    1
    19    39    40    1
    20    39    41    1
    21    39    42    1
    22     7     8   ar
    23     8     9   ar
    24     9    10   ar
    25    10    11    1
    26    11    12   ar
    27    12    13   ar
    28    13    17    1
    29    17    18   ar
    30    18    23    1
    31    23    24    3
    32    18    19   ar
    33    19    20   ar
    34    20    21   ar
    35    21    22   ar
    36    22    25    1
    37    25    26    3
    38    13    14   ar
    39    14    15   ar
    40    15     2    1
    41    10     5   ar
    42    15    11   ar
    43    34    29   ar
    44    22    17   ar
    45    37    38    1
    46    14    16    1
@<TRIPOS>MOLECULE
*****
 42 46 0 0 0
SMALL
GASTEIGER

@<TRIPOS>ATOM
      1 C         -60.3907  -45.8038  -26.7966 C.3     1  UNL1        0.0498
      2 C         -61.6786  -45.7560  -25.9664 C.3     1  UNL1        0.1673
      3 C         -62.9040  -45.8390  -26.8839 C.3     1  UNL1        0.0498
      4 O         -61.7197  -44.4947  -25.2632 O.3     1  UNL1       -0.4770
      5 C         -62.0425  -44.3368  -23.8987 C.ar    1  UNL1        0.1407
      6 C         -62.2135  -43.0533  -23.3699 C.ar    1  UNL1        0.0452
      7 C         -62.5273  -42.8868  -22.0136 C.ar    1  UNL1        0.0450
      8 C         -62.6658  -44.0079  -21.1829 C.ar    1  UNL1        0.0085
      9 C         -62.4898  -45.2937  -21.7036 C.ar    1  UNL1        0.0052
     10 C         -62.1778  -45.4573  -23.0592 C.ar    1  UNL1        0.0529
     11 C         -61.9661  -46.7675  -23.6659 C.ar    1  UNL1        0.1005
     12 N         -62.0205  -47.9693  -23.0616 N.ar    1  UNL1       -0.2271
     13 C         -61.7848  -48.8349  -24.0792 C.ar    1  UNL1        0.1417
     14 N         -61.5993  -48.2195  -25.2709 N.ar    1  UNL1       -0.3380
     15 C         -61.7039  -46.9115  -24.9929 C.ar    1  UNL1        0.0891
     16 H         -61.4547  -48.6608  -26.2062 H       1  UNL1        0.1672
     17 C         -61.7647  -50.3090  -23.9025 C.ar    1  UNL1        0.0531
     18 C         -60.5618  -50.9750  -23.5591 C.ar    1  UNL1        0.0720
     19 C         -60.5531  -52.3657  -23.3918 C.ar    1  UNL1        0.0104
     20 C         -61.7223  -53.1048  -23.5639 C.ar    1  UNL1        0.0014
     21 C         -62.9112  -52.4641  -23.9084 C.ar    1  UNL1        0.0104
     22 C         -62.9441  -51.0744  -24.0819 C.ar    1  UNL1        0.0720
     23 C         -59.3316  -50.2526  -23.3325 C.1     1  UNL1        0.1005
     24 N         -58.3458  -49.6741  -23.1508 N.1     1  UNL1       -0.1908
     25 C         -64.1883  -50.4687  -24.4960 C.1     1  UNL1        0.1005
     26 N         -65.1850  -49.9835  -24.8283 N.1     1  UNL1       -0.1908
     27 C         -62.7058  -41.5649  -21.4752 C.1     1  UNL1       -0.0597
     28 C         -62.8584  -40.4598  -21.0185 C.1     1  UNL1       -0.0598
     29 C         -63.0443  -39.1395  -20.4659 C.ar    1  UNL1        0.0459
     30 C         -62.4180  -38.0587  -21.0961 C.ar    1  UNL1        0.0084
     31 C         -62.5682  -36.7640  -20.5995 C.ar    1  UNL1        0.0070
     32 C         -63.3550  -36.5245  -19.4622 C.ar    1  UNL1        0.0754
     33 C         -63.9751  -37.6118  -18.8206 C.ar    1  UNL1        0.0109
     34 C         -63.8331  -38.9255  -19.3113 C.ar    1  UNL1        0.0793
     35 C         -63.5184  -35.1526  -18.9213 C.2     1  UNL1        0.3380
     36 O         -62.5225  -34.5449  -18.4457 O.2     1  UNL1       -0.2451
     37 O         -64.7565  -34.5110  -18.9086 O.3     1  UNL1       -0.4771
     38 H         -65.6141  -34.9753  -19.1776 H       1  UNL1        0.2954
     39 C         -64.5160  -40.0849  -18.6115 C.3     1  UNL1        0.4191
     40 F         -63.5640  -40.9889  -18.1752 F       1  UNL1       -0.1658
     41 F         -65.2274  -39.6152  -17.5221 F       1  UNL1       -0.1658
     42 F         -65.3945  -40.7503  -19.4494 F       1  UNL1       -0.1658
@<TRIPOS>BOND
     1     1     2    1
     2     2     3    1
     3     2     4    1
     4     4     5    1
     5     5     6   ar
     6     6     7   ar
     7     7    27    1
     8    27    28    3
     9    28    29    1
    10    29    30   ar
    11    30    31   ar
    12    31    32   ar
    13    32    35    1
    14    35    36    2
    15    35    37    1
    16    32    33   ar
    17    33    34   ar
    18    34    39    1
    19    39    40    1
    20    39    41    1
    21    39    42    1
    22     7     8   ar
    23     8     9   ar
    24     9    10   ar
    25    10    11    1
    26    11    12   ar
    27    12    13   ar
    28    13    17    1
    29    17    18   ar
    30    18    23    1
    31    23    24    3
    32    18    19   ar
    33    19    20   ar
    34    20    21   ar
    35    21    22   ar
    36    22    25    1
    37    25    26    3
    38    13    14   ar
    39    14    15   ar
    40    15     2    1
    41    10     5   ar
    42    15    11   ar
    43    34    29   ar
    44    22    17   ar
    45    37    38    1
    46    14    16    1
@<TRIPOS>MOLECULE
*****
 42 46 0 0 0
SMALL
GASTEIGER

@<TRIPOS>ATOM
      1 C         -61.1247  -47.4824  -28.0002 C.3     1  UNL1        0.0498
      2 C         -60.6446  -46.0535  -27.7210 C.3     1  UNL1        0.1673
      3 C         -59.1211  -46.0300  -27.5509 C.3     1  UNL1        0.0498
      4 O         -61.2484  -45.6038  -26.4881 O.3     1  UNL1       -0.4770
      5 C         -61.8601  -44.3468  -26.2956 C.ar    1  UNL1        0.1407
      6 C         -62.2601  -43.9588  -25.0128 C.ar    1  UNL1        0.0452
      7 C         -62.8751  -42.7147  -24.8135 C.ar    1  UNL1        0.0450
      8 C         -63.0945  -41.8583  -25.9018 C.ar    1  UNL1        0.0085
      9 C         -62.7030  -42.2428  -27.1880 C.ar    1  UNL1        0.0052
     10 C         -62.0875  -43.4855  -27.3841 C.ar    1  UNL1        0.0529
     11 C         -61.6669  -43.9569  -28.6996 C.ar    1  UNL1        0.1005
     12 N         -61.7996  -43.3219  -29.8791 N.ar    1  UNL1       -0.2271
     13 C         -61.2181  -44.1787  -30.7555 C.ar    1  UNL1        0.1417
     14 N         -60.7316  -45.2963  -30.1660 N.ar    1  UNL1       -0.3380
     15 C         -61.0336  -45.1491  -28.8674 C.ar    1  UNL1        0.0891
     16 H         -60.1990  -46.0770  -30.6100 H       1  UNL1        0.1672
     17 C         -61.1023  -43.8983  -32.2090 C.ar    1  UNL1        0.0531
     18 C         -62.2419  -43.5159  -32.9598 C.ar    1  UNL1        0.0720
     19 C         -62.1225  -43.2507  -34.3300 C.ar    1  UNL1        0.0104
     20 C         -60.8873  -43.3630  -34.9659 C.ar    1  UNL1        0.0014
     21 C         -59.7592  -43.7449  -34.2417 C.ar    1  UNL1        0.0104
     22 C         -59.8543  -44.0161  -32.8706 C.ar    1  UNL1        0.0720
     23 C         -63.5371  -43.3483  -32.3424 C.1     1  UNL1        0.1005
     24 N         -64.5746  -43.2144  -31.8474 N.1     1  UNL1       -0.1908
     25 C         -58.6672  -44.4645  -32.1807 C.1     1  UNL1        0.1005
     26 N         -57.7157  -44.8238  -31.6284 N.1     1  UNL1       -0.1908
     27 C         -63.2815  -42.3184  -23.4917 C.1     1  UNL1       -0.0597
     28 C         -63.6280  -41.9893  -22.3850 C.1     1  UNL1       -0.0598
     29 C         -64.0493  -41.5983  -21.0611 C.ar    1  UNL1        0.0459
     30 C         -63.1927  -41.8567  -19.9854 C.ar    1  UNL1        0.0084
     31 C         -63.5557  -41.4970  -18.6876 C.ar    1  UNL1        0.0070
     32 C         -64.7845  -40.8651  -18.4412 C.ar    1  UNL1        0.0754
     33 C         -65.6518  -40.6159  -19.5202 C.ar    1  UNL1        0.0109
     34 C         -65.2983  -40.9729  -20.8371 C.ar    1  UNL1        0.0793
     35 C         -65.1842  -40.4822  -17.0645 C.2     1  UNL1        0.3380
     36 O         -65.8110  -39.4066  -16.8715 O.2     1  UNL1       -0.2451
     37 O         -64.8721  -41.2766  -15.9617 O.3     1  UNL1       -0.4771
     38 H         -64.2841  -42.0970  -16.0295 H       1  UNL1        0.2954
     39 C         -66.2423  -40.6890  -21.9897 C.3     1  UNL1        0.4191
     40 F         -67.3755  -40.0530  -21.5151 F       1  UNL1       -0.1658
     41 F         -65.6158  -39.8698  -22.9115 F       1  UNL1       -0.1658
     42 F         -66.6341  -41.8491  -22.6357 F       1  UNL1       -0.1658
@<TRIPOS>BOND
     1     1     2    1
     2     2     3    1
     3     2     4    1
     4     4     5    1
     5     5     6   ar
     6     6     7   ar
     7     7    27    1
     8    27    28    3
     9    28    29    1
    10    29    30   ar
    11    30    31   ar
    12    31    32   ar
    13    32    35    1
    14    35    36    2
    15    35    37    1
    16    32    33   ar
    17    33    34   ar
    18    34    39    1
    19    39    40    1
    20    39    41    1
    21    39    42    1
    22     7     8   ar
    23     8     9   ar
    24     9    10   ar
    25    10    11    1
    26    11    12   ar
    27    12    13   ar
    28    13    17    1
    29    17    18   ar
    30    18    23    1
    31    23    24    3
    32    18    19   ar
    33    19    20   ar
    34    20    21   ar
    35    21    22   ar
    36    22    25    1
    37    25    26    3
    38    13    14   ar
    39    14    15   ar
    40    15     2    1
    41    10     5   ar
    42    15    11   ar
    43    34    29   ar
    44    22    17   ar
    45    37    38    1
    46    14    16    1
@<TRIPOS>MOLECULE
*****
 42 46 0 0 0
SMALL
GASTEIGER

@<TRIPOS>ATOM
      1 C         -59.6408  -42.4799  -20.7132 C.3     1  UNL1        0.0498
      2 C         -60.8805  -43.1192  -21.3492 C.3     1  UNL1        0.1673
      3 C         -61.0037  -44.5841  -20.9141 C.3     1  UNL1        0.0498
      4 O         -60.7257  -43.0812  -22.7850 O.3     1  UNL1       -0.4770
      5 C         -61.7220  -42.6750  -23.6979 C.ar    1  UNL1        0.1407
      6 C         -61.5138  -42.8396  -25.0712 C.ar    1  UNL1        0.0452
      7 C         -62.4954  -42.4322  -25.9857 C.ar    1  UNL1        0.0450
      8 C         -63.6869  -41.8543  -25.5249 C.ar    1  UNL1        0.0085
      9 C         -63.8987  -41.6809  -24.1536 C.ar    1  UNL1        0.0052
     10 C         -62.9172  -42.0900  -23.2420 C.ar    1  UNL1        0.0529
     11 C         -63.0651  -41.9262  -21.7995 C.ar    1  UNL1        0.1005
     12 N         -64.1018  -41.3779  -21.1386 N.ar    1  UNL1       -0.2271
     13 C         -63.7408  -41.5111  -19.8377 C.ar    1  UNL1        0.1417
     14 N         -62.5425  -42.1203  -19.6763 N.ar    1  UNL1       -0.3380
     15 C         -62.1201  -42.3660  -20.9254 C.ar    1  UNL1        0.0891
     16 H         -62.0712  -42.3843  -18.7826 H       1  UNL1        0.1672
     17 C         -64.5933  -41.0601  -18.7088 C.ar    1  UNL1        0.0531
     18 C         -65.3831  -41.9909  -17.9887 C.ar    1  UNL1        0.0720
     19 C         -66.1822  -41.5567  -16.9233 C.ar    1  UNL1        0.0104
     20 C         -66.2102  -40.2099  -16.5649 C.ar    1  UNL1        0.0014
     21 C         -65.4440  -39.2822  -17.2685 C.ar    1  UNL1        0.0104
     22 C         -64.6378  -39.6928  -18.3381 C.ar    1  UNL1        0.0720
     23 C         -65.3618  -43.4024  -18.2948 C.1     1  UNL1        0.1005
     24 N         -65.3451  -44.5334  -18.5399 N.1     1  UNL1       -0.1908
     25 C         -63.9100  -38.6823  -19.0698 C.1     1  UNL1        0.1005
     26 N         -63.3266  -37.8725  -19.6557 N.1     1  UNL1       -0.1908
     27 C         -62.2783  -42.6069  -27.3969 C.1     1  UNL1       -0.0597
     28 C         -62.0898  -42.7525  -28.5786 C.1     1  UNL1       -0.0598
     29 C         -61.8569  -42.9261  -29.9924 C.ar    1  UNL1        0.0459
     30 C         -60.7364  -43.6591  -30.3985 C.ar    1  UNL1        0.0084
     31 C         -60.4696  -43.8542  -31.7535 C.ar    1  UNL1        0.0070
     32 C         -61.3246  -43.3224  -32.7313 C.ar    1  UNL1        0.0754
     33 C         -62.4446  -42.5750  -32.3245 C.ar    1  UNL1        0.0109
     34 C         -62.7275  -42.3702  -30.9589 C.ar    1  UNL1        0.0793
     35 C         -61.0488  -43.5188  -34.1759 C.2     1  UNL1        0.3380
     36 O         -61.9787  -43.3809  -35.0147 O.2     1  UNL1       -0.2451
     37 O         -59.7816  -43.8698  -34.6404 O.3     1  UNL1       -0.4771
     38 H         -59.0167  -44.0974  -34.0187 H       1  UNL1        0.2954
     39 C         -63.9444  -41.5686  -30.5384 C.3     1  UNL1        0.4191
     40 F         -63.5720  -40.6127  -29.6102 F       1  UNL1       -0.1658
     41 F         -64.4897  -40.9392  -31.6429 F       1  UNL1       -0.1658
     42 F         -64.9202  -42.3691  -29.9694 F       1  UNL1       -0.1658
@<TRIPOS>BOND
     1     1     2    1
     2     2     3    1
     3     2     4    1
     4     4     5    1
     5     5     6   ar
     6     6     7   ar
     7     7    27    1
     8    27    28    3
     9    28    29    1
    10    29    30   ar
    11    30    31   ar
    12    31    32   ar
    13    32    35    1
    14    35    36    2
    15    35    37    1
    16    32    33   ar
    17    33    34   ar
    18    34    39    1
    19    39    40    1
    20    39    41    1
    21    39    42    1
    22     7     8   ar
    23     8     9   ar
    24     9    10   ar
    25    10    11    1
    26    11    12   ar
    27    12    13   ar
    28    13    17    1
    29    17    18   ar
    30    18    23    1
    31    23    24    3
    32    18    19   ar
    33    19    20   ar
    34    20    21   ar
    35    21    22   ar
    36    22    25    1
    37    25    26    3
    38    13    14   ar
    39    14    15   ar
    40    15     2    1
    41    10     5   ar
    42    15    11   ar
    43    34    29   ar
    44    22    17   ar
    45    37    38    1
    46    14    16    1
@<TRIPOS>MOLECULE
*****
 42 46 0 0 0
SMALL
GASTEIGER

@<TRIPOS>ATOM
      1 C         -60.4856  -44.3059  -26.0365 C.3     1  UNL1        0.0498
      2 C         -61.8679  -44.8056  -26.4723 C.3     1  UNL1        0.1673
      3 C         -62.9468  -43.7897  -26.0796 C.3     1  UNL1        0.0498
      4 O         -62.1394  -46.0477  -25.7864 O.3     1  UNL1       -0.4770
      5 C         -62.6523  -47.2140  -26.3928 C.ar    1  UNL1        0.1407
      6 C         -63.0316  -48.3004  -25.5977 C.ar    1  UNL1        0.0452
      7 C         -63.5355  -49.4658  -26.1923 C.ar    1  UNL1        0.0450
      8 C         -63.6561  -49.5461  -27.5869 C.ar    1  UNL1        0.0085
      9 C         -63.2726  -48.4661  -28.3882 C.ar    1  UNL1        0.0052
     10 C         -62.7708  -47.3024  -27.7916 C.ar    1  UNL1        0.0529
     11 C         -62.3384  -46.1439  -28.5665 C.ar    1  UNL1        0.1005
     12 N         -62.3377  -46.0073  -29.9058 N.ar    1  UNL1       -0.2271
     13 C         -61.8773  -44.7437  -30.0845 C.ar    1  UNL1        0.1417
     14 N         -61.6077  -44.1046  -28.9217 N.ar    1  UNL1       -0.3380
     15 C         -61.8915  -45.0060  -27.9699 C.ar    1  UNL1        0.0891
     16 H         -61.2947  -43.1173  -28.7889 H       1  UNL1        0.1672
     17 C         -61.7174  -44.1200  -31.4224 C.ar    1  UNL1        0.0531
     18 C         -62.8159  -43.4865  -32.0555 C.ar    1  UNL1        0.0720
     19 C         -62.6549  -42.8984  -33.3166 C.ar    1  UNL1        0.0104
     20 C         -61.4185  -42.9333  -33.9593 C.ar    1  UNL1        0.0014
     21 C         -60.3311  -43.5588  -33.3518 C.ar    1  UNL1        0.0104
     22 C         -60.4682  -44.1546  -32.0914 C.ar    1  UNL1        0.0720
     23 C         -64.1080  -43.3896  -31.4171 C.1     1  UNL1        0.1005
     24 N         -65.1434  -43.3117  -30.9059 N.1     1  UNL1       -0.1908
     25 C         -59.3257  -44.8399  -31.5337 C.1     1  UNL1        0.1005
     26 N         -58.4101  -45.3894  -31.0872 N.1     1  UNL1       -0.1908
     27 C         -63.9277  -50.5791  -25.3702 C.1     1  UNL1       -0.0597
     28 C         -64.2552  -51.5163  -24.6863 C.1     1  UNL1       -0.0598
     29 C         -64.6461  -52.6428  -23.8732 C.ar    1  UNL1        0.0459
     30 C         -65.9344  -53.1648  -24.0324 C.ar    1  UNL1        0.0084
     31 C         -66.3579  -54.2532  -23.2696 C.ar    1  UNL1        0.0070
     32 C         -65.4956  -54.8452  -22.3338 C.ar    1  UNL1        0.0754
     33 C         -64.2045  -54.3137  -22.1642 C.ar    1  UNL1        0.0109
     34 C         -63.7623  -53.2148  -22.9283 C.ar    1  UNL1        0.0793
     35 C         -65.9360  -56.0001  -21.5129 C.2     1  UNL1        0.3380
     36 O         -65.9728  -57.1518  -22.0221 O.2     1  UNL1       -0.2451
     37 O         -66.3295  -55.8484  -20.1836 O.3     1  UNL1       -0.4771
     38 H         -66.4236  -54.9428  -19.7427 H       1  UNL1        0.2954
     39 C         -62.3637  -52.6599  -22.7380 C.3     1  UNL1        0.4191
     40 F         -61.8136  -53.1762  -21.5784 F       1  UNL1       -0.1658
     41 F         -61.5718  -53.0190  -23.8138 F       1  UNL1       -0.1658
     42 F         -62.3635  -51.2789  -22.6409 F       1  UNL1       -0.1658
@<TRIPOS>BOND
     1     1     2    1
     2     2     3    1
     3     2     4    1
     4     4     5    1
     5     5     6   ar
     6     6     7   ar
     7     7    27    1
     8    27    28    3
     9    28    29    1
    10    29    30   ar
    11    30    31   ar
    12    31    32   ar
    13    32    35    1
    14    35    36    2
    15    35    37    1
    16    32    33   ar
    17    33    34   ar
    18    34    39    1
    19    39    40    1
    20    39    41    1
    21    39    42    1
    22     7     8   ar
    23     8     9   ar
    24     9    10   ar
    25    10    11    1
    26    11    12   ar
    27    12    13   ar
    28    13    17    1
    29    17    18   ar
    30    18    23    1
    31    23    24    3
    32    18    19   ar
    33    19    20   ar
    34    20    21   ar
    35    21    22   ar
    36    22    25    1
    37    25    26    3
    38    13    14   ar
    39    14    15   ar
    40    15     2    1
    41    10     5   ar
    42    15    11   ar
    43    34    29   ar
    44    22    17   ar
    45    37    38    1
    46    14    16    1
