@<TRIPOS>MOLECULE
*****
 43 47 0 0 0
SMALL
GASTEIGER

@<TRIPOS>ATOM
      1 C          -6.1228  -15.7683   24.2246 C.ar    1  UNL1        0.0888
      2 C          -5.8764  -15.1519   25.4817 C.ar    1  UNL1        0.0282
      3 C          -6.9706  -14.8985   26.3218 C.ar    1  UNL1        0.0997
      4 N          -6.9607  -14.3357   27.5432 N.ar    1  UNL1       -0.2137
      5 C          -8.2786  -14.3515   27.8872 C.ar    1  UNL1        0.1984
      6 N          -9.0901  -14.9021   26.9509 N.ar    1  UNL1       -0.3255
      7 C          -8.2461  -15.2361   25.9688 C.ar    1  UNL1        0.0755
      8 C          -8.5066  -15.8490   24.7514 C.ar    1  UNL1        0.0325
      9 C          -7.4609  -16.1096   23.9022 C.ar    1  UNL1        0.1401
     10 O          -7.9061  -16.7565   22.7683 O.3     1  UNL1       -0.4824
     11 C          -9.3190  -16.9717   22.8223 C.3     1  UNL1        0.1375
     12 C          -9.9797  -16.2720   21.6276 C.3     1  UNL1        0.0439
     13 C          -9.5945  -18.4806   22.7795 C.3     1  UNL1        0.0439
     14 C          -9.7842  -16.3446   24.1797 C.3     1  UNL1        0.0709
     15 H         -10.1251  -15.0357   26.9885 H       1  UNL1        0.1686
     16 N          -4.8391  -17.4199   22.8022 N.am    1  UNL1       -0.2808
     17 C          -5.0072  -16.0897   23.3110 C.2     1  UNL1        0.2525
     18 O          -4.1934  -15.1856   22.9773 O.2     1  UNL1       -0.2697
     19 H          -5.6759  -18.0353   22.6926 H       1  UNL1        0.1552
     20 C          -2.6591  -17.8669   24.6264 C.3     1  UNL1        0.0323
     21 C          -2.5063  -18.1011   23.1474 C.ar    1  UNL1       -0.0087
     22 C          -1.2776  -18.5433   22.6384 C.ar    1  UNL1        0.0008
     23 C          -1.1137  -18.7848   21.2679 C.ar    1  UNL1        0.0709
     24 C          -2.1767  -18.5144   20.3944 C.ar    1  UNL1        0.0008
     25 C          -3.4179  -18.0544   20.8746 C.ar    1  UNL1       -0.0094
     26 C          -3.5858  -17.8695   22.2700 C.ar    1  UNL1        0.0424
     27 C           0.2240  -19.2240   20.7249 C.3     1  UNL1        0.4186
     28 F           0.3301  -20.6041   20.7448 F       1  UNL1       -0.1659
     29 F           1.2573  -18.7017   21.4836 F       1  UNL1       -0.1659
     30 F           0.3536  -18.7812   19.4220 F       1  UNL1       -0.1659
     31 C          -4.5317  -17.7275   19.8840 C.3     1  UNL1        0.0236
     32 C          -4.7195  -16.2126   19.7427 C.3     1  UNL1        0.0047
     33 C          -5.8456  -18.4145   20.2763 C.3     1  UNL1        0.0047
     34 N          -8.7685  -13.8642   29.1421 N.pl3   1  UNL1       -0.2816
     35 H          -9.0391  -14.5637   29.8696 H       1  UNL1        0.1551
     36 C          -8.6656  -12.4855   29.5227 C.ar    1  UNL1        0.0889
     37 C          -7.4104  -11.8565   29.4929 C.ar    1  UNL1        0.1543
     38 F          -6.3114  -12.5428   29.0902 F       1  UNL1       -0.2028
     39 C          -7.2864  -10.5126   29.8574 C.ar    1  UNL1        0.0310
     40 C          -8.4095   -9.7916   30.2679 C.ar    1  UNL1        0.0033
     41 C          -9.6581  -10.4150   30.3260 C.ar    1  UNL1        0.0128
     42 C          -9.7937  -11.7604   29.9625 C.ar    1  UNL1        0.0733
     43 CL        -11.3682  -12.5250   30.1434 Cl      1  UNL1       -0.0809
@<TRIPOS>BOND
     1    20    21    1
     2    21    22   ar
     3    22    23   ar
     4    23    27    1
     5    27    28    1
     6    27    29    1
     7    27    30    1
     8    23    24   ar
     9    24    25   ar
    10    25    31    1
    11    31    32    1
    12    31    33    1
    13    25    26   ar
    14    26    16    1
    15    16    17   am
    16    17    18    2
    17    17     1    1
    18     1     2   ar
    19     2     3   ar
    20     3     4   ar
    21     4     5   ar
    22     5    34    1
    23    34    36    1
    24    36    37   ar
    25    37    38    1
    26    37    39   ar
    27    39    40   ar
    28    40    41   ar
    29    41    42   ar
    30    42    43    1
    31     5     6   ar
    32     6     7   ar
    33     7     8   ar
    34     8     9   ar
    35     9    10    1
    36    10    11    1
    37    11    12    1
    38    11    13    1
    39    11    14    1
    40    26    21   ar
    41     9     1   ar
    42     7     3   ar
    43    14     8    1
    44    42    36   ar
    45    16    19    1
    46    34    35    1
    47     6    15    1
@<TRIPOS>MOLECULE
*****
 43 47 0 0 0
SMALL
GASTEIGER

@<TRIPOS>ATOM
      1 C          -7.3282  -13.9243   27.8294 C.ar    1  UNL1        0.0888
      2 C          -8.5860  -14.2793   28.3886 C.ar    1  UNL1        0.0282
      3 C          -9.1208  -13.4582   29.3923 C.ar    1  UNL1        0.0997
      4 N         -10.2874  -13.6057   30.0449 N.ar    1  UNL1       -0.2137
      5 C         -10.2955  -12.5321   30.8832 C.ar    1  UNL1        0.1984
      6 N          -9.2066  -11.7321   30.7710 N.ar    1  UNL1       -0.3255
      7 C          -8.4751  -12.3367   29.8288 C.ar    1  UNL1        0.0755
      8 C          -7.2521  -11.9663   29.2877 C.ar    1  UNL1        0.0325
      9 C          -6.6967  -12.7475   28.3060 C.ar    1  UNL1        0.1401
     10 O          -5.5100  -12.2007   27.8640 O.3     1  UNL1       -0.4824
     11 C          -5.2204  -10.9805   28.5514 C.3     1  UNL1        0.1375
     12 C          -3.8770  -11.1203   29.2788 C.3     1  UNL1        0.0439
     13 C          -5.1610   -9.8363   27.5306 C.3     1  UNL1        0.0439
     14 C          -6.3993  -10.7824   29.5630 C.3     1  UNL1        0.0709
     15 H          -8.9917  -10.8535   31.2930 H       1  UNL1        0.1686
     16 N          -7.1426  -14.5502   25.3855 N.am    1  UNL1       -0.2808
     17 C          -6.7297  -14.7319   26.7467 C.2     1  UNL1        0.2525
     18 O          -5.8484  -15.5911   27.0230 O.2     1  UNL1       -0.2697
     19 H          -7.5001  -13.6178   25.0793 H       1  UNL1        0.1552
     20 C          -4.5913  -14.5962   24.0553 C.3     1  UNL1        0.0323
     21 C          -5.6655  -15.5988   23.7290 C.ar    1  UNL1       -0.0087
     22 C          -5.4277  -16.5777   22.7545 C.ar    1  UNL1        0.0008
     23 C          -6.4046  -17.5330   22.4436 C.ar    1  UNL1        0.0709
     24 C          -7.6560  -17.4602   23.0719 C.ar    1  UNL1        0.0008
     25 C          -7.9297  -16.4783   24.0435 C.ar    1  UNL1       -0.0094
     26 C          -6.9114  -15.5544   24.3882 C.ar    1  UNL1        0.0424
     27 C          -6.1531  -18.5590   21.3661 C.3     1  UNL1        0.4186
     28 F          -5.2908  -18.0580   20.4060 F       1  UNL1       -0.1659
     29 F          -7.3357  -18.9134   20.7399 F       1  UNL1       -0.1659
     30 F          -5.5890  -19.6859   21.9339 F       1  UNL1       -0.1659
     31 C          -9.3206  -16.4064   24.6670 C.3     1  UNL1        0.0236
     32 C          -9.5179  -17.5137   25.7087 C.3     1  UNL1        0.0047
     33 C         -10.4154  -16.4535   23.5939 C.3     1  UNL1        0.0047
     34 N         -11.3736  -12.2457   31.7820 N.pl3   1  UNL1       -0.2816
     35 H         -12.0011  -11.4412   31.5571 H       1  UNL1        0.1551
     36 C         -11.7695  -13.1535   32.8191 C.ar    1  UNL1        0.0889
     37 C         -12.9741  -13.8632   32.6880 C.ar    1  UNL1        0.1543
     38 F         -13.7444  -13.7038   31.5824 F       1  UNL1       -0.2028
     39 C         -13.3790  -14.7552   33.6852 C.ar    1  UNL1        0.0310
     40 C         -12.5937  -14.9346   34.8257 C.ar    1  UNL1        0.0033
     41 C         -11.4067  -14.2142   34.9780 C.ar    1  UNL1        0.0128
     42 C         -10.9915  -13.3186   33.9850 C.ar    1  UNL1        0.0733
     43 CL         -9.5391  -12.3658   34.2669 Cl      1  UNL1       -0.0809
@<TRIPOS>BOND
     1    20    21    1
     2    21    22   ar
     3    22    23   ar
     4    23    27    1
     5    27    28    1
     6    27    29    1
     7    27    30    1
     8    23    24   ar
     9    24    25   ar
    10    25    31    1
    11    31    32    1
    12    31    33    1
    13    25    26   ar
    14    26    16    1
    15    16    17   am
    16    17    18    2
    17    17     1    1
    18     1     2   ar
    19     2     3   ar
    20     3     4   ar
    21     4     5   ar
    22     5    34    1
    23    34    36    1
    24    36    37   ar
    25    37    38    1
    26    37    39   ar
    27    39    40   ar
    28    40    41   ar
    29    41    42   ar
    30    42    43    1
    31     5     6   ar
    32     6     7   ar
    33     7     8   ar
    34     8     9   ar
    35     9    10    1
    36    10    11    1
    37    11    12    1
    38    11    13    1
    39    11    14    1
    40    26    21   ar
    41     9     1   ar
    42     7     3   ar
    43    14     8    1
    44    42    36   ar
    45    16    19    1
    46    34    35    1
    47     6    15    1
