@<TRIPOS>MOLECULE
*****
 38 43 0 0 0
SMALL
GASTEIGER

@<TRIPOS>ATOM
      1 C         -23.9890   -7.1739  -11.4612 C.ar    1  UNL1        0.1097
      2 N         -23.6045   -5.9747  -10.9569 N.ar    1  UNL1       -0.1677
      3 N         -22.3420   -5.7645  -11.3114 N.ar    1  UNL1       -0.2319
      4 C         -21.6033   -4.5414  -11.0285 C.3     1  UNL1        0.1554
      5 C         -21.9320   -6.8018  -12.0577 C.ar    1  UNL1        0.1654
      6 N         -20.7382   -6.9376  -12.6837 N.ar    1  UNL1       -0.2050
      7 C         -20.5300   -8.0581  -13.4362 C.ar    1  UNL1        0.2014
      8 N         -21.5046   -9.0158  -13.5423 N.ar    1  UNL1       -0.2089
      9 C         -22.7110   -8.8845  -12.9136 C.ar    1  UNL1        0.1379
     10 C         -22.9255   -7.7249  -12.1652 C.ar    1  UNL1        0.0865
     11 C         -26.4280   -7.4026  -12.1877 C.ar    1  UNL1        0.0811
     12 C         -25.3615   -7.6902  -11.3530 C.ar    1  UNL1        0.0625
     13 C         -25.9078   -8.4665  -10.3393 C.ar    1  UNL1        0.1789
     14 N         -27.2299   -8.6201  -10.5550 N.ar    1  UNL1       -0.1626
     15 N         -27.5364   -7.9783  -11.6718 N.ar    1  UNL1       -0.2486
     16 C         -28.8965   -7.8914  -12.1926 C.3     1  UNL1        0.1537
     17 C         -26.3706   -3.9712  -16.8492 C.3     1  UNL1        0.0310
     18 C         -26.3566   -4.8386  -15.6257 C.ar    1  UNL1       -0.0218
     19 C         -27.2009   -4.5479  -14.5435 C.ar    1  UNL1       -0.0042
     20 C         -27.2163   -5.3778  -13.4188 C.ar    1  UNL1        0.0012
     21 C         -26.3983   -6.5157  -13.3680 C.ar    1  UNL1        0.0174
     22 C         -25.5652   -6.8150  -14.4561 C.ar    1  UNL1        0.0012
     23 C         -25.5496   -5.9854  -15.5811 C.ar    1  UNL1       -0.0042
     24 C         -25.2006   -9.0870   -9.2094 C.2     1  UNL1        0.3578
     25 O         -23.9645   -8.8921   -9.0636 O.2     1  UNL1       -0.2433
     26 O         -25.8854   -9.8788   -8.2931 O.3     1  UNL1       -0.4760
     27 H         -25.4016  -10.3123   -7.5160 H       1  UNL1        0.2955
     28 N         -23.6808   -9.9335  -12.9976 N.pl3   1  UNL1       -0.2917
     29 C         -23.7008  -11.0440  -12.0591 C.3     1  UNL1        0.0937
     30 C         -24.6128  -12.1037  -12.6695 C.3     1  UNL1        0.0391
     31 C         -25.2633  -11.4430  -13.8987 C.3     1  UNL1        0.0790
     32 C         -24.4126  -10.2113  -14.2185 C.3     1  UNL1        0.1081
     33 N         -25.4450  -12.3437  -15.0677 N.3     1  UNL1       -0.2723
     34 C         -25.8361  -13.7242  -14.6991 C.3     1  UNL1        0.0721
     35 C         -24.6295  -14.6586  -14.5014 C.3     1  UNL1        0.0174
     36 C         -23.5584  -14.5197  -15.5998 C.3     1  UNL1        0.0029
     37 C         -23.9901  -13.5809  -16.7258 C.3     1  UNL1        0.0174
     38 C         -24.4315  -12.2281  -16.1521 C.3     1  UNL1        0.0721
@<TRIPOS>BOND
     1    17    18    1
     2    18    19   ar
     3    19    20   ar
     4    20    21   ar
     5    21    11    1
     6    11    12   ar
     7    12     1    1
     8     1     2   ar
     9     2     3   ar
    10     3     4    1
    11     3     5   ar
    12     5     6   ar
    13     6     7   ar
    14     7     8   ar
    15     8     9   ar
    16     9    28    1
    17    28    29    1
    18    29    30    1
    19    30    31    1
    20    31    33    1
    21    33    34    1
    22    34    35    1
    23    35    36    1
    24    36    37    1
    25    37    38    1
    26    31    32    1
    27     9    10   ar
    28    12    13   ar
    29    13    24    1
    30    24    25    2
    31    24    26    1
    32    13    14   ar
    33    14    15   ar
    34    15    16    1
    35    21    22   ar
    36    22    23   ar
    37    23    18   ar
    38    15    11   ar
    39    10     1   ar
    40    10     5   ar
    41    32    28    1
    42    38    33    1
    43    26    27    1
@<TRIPOS>MOLECULE
*****
 38 43 0 0 0
SMALL
GASTEIGER

@<TRIPOS>ATOM
      1 C         -21.9214  -11.2838  -13.6268 C.ar    1  UNL1        0.1097
      2 N         -21.1281  -12.0025  -14.4599 N.ar    1  UNL1       -0.1677
      3 N         -21.8796  -12.9241  -15.0511 N.ar    1  UNL1       -0.2319
      4 C         -21.4010  -13.8357  -16.0814 C.3     1  UNL1        0.1554
      5 C         -23.1437  -12.7790  -14.6245 C.ar    1  UNL1        0.1654
      6 N         -24.2330  -13.4653  -15.0462 N.ar    1  UNL1       -0.2050
      7 C         -25.4471  -13.1354  -14.5147 C.ar    1  UNL1        0.2014
      8 N         -25.5486  -12.1420  -13.5761 N.ar    1  UNL1       -0.2089
      9 C         -24.4537  -11.4458  -13.1468 C.ar    1  UNL1        0.1379
     10 C         -23.2191  -11.7726  -13.7123 C.ar    1  UNL1        0.0865
     11 C         -21.5606   -8.7813  -13.2570 C.ar    1  UNL1        0.0811
     12 C         -21.4490  -10.1087  -12.8796 C.ar    1  UNL1        0.0625
     13 C         -20.6938  -10.0807  -11.7145 C.ar    1  UNL1        0.1789
     14 N         -20.3647   -8.8058  -11.4238 N.ar    1  UNL1       -0.1626
     15 N         -20.8922   -8.0276  -12.3563 N.ar    1  UNL1       -0.2486
     16 C         -20.7011   -6.5816  -12.3882 C.3     1  UNL1        0.1537
     17 C         -23.9875   -6.7235  -18.0926 C.3     1  UNL1        0.0310
     18 C         -23.3741   -7.2921  -16.8476 C.ar    1  UNL1       -0.0218
     19 C         -22.0752   -7.8216  -16.8778 C.ar    1  UNL1       -0.0042
     20 C         -21.4884   -8.3165  -15.7097 C.ar    1  UNL1        0.0012
     21 C         -22.1874   -8.2754  -14.4947 C.ar    1  UNL1        0.0174
     22 C         -23.4802   -7.7322  -14.4611 C.ar    1  UNL1        0.0012
     23 C         -24.0673   -7.2370  -15.6290 C.ar    1  UNL1       -0.0042
     24 C         -20.3187  -11.2209  -10.8654 C.2     1  UNL1        0.3578
     25 O         -21.0086  -12.2745  -10.8942 O.2     1  UNL1       -0.2433
     26 O         -19.2023  -11.1516  -10.0379 O.3     1  UNL1       -0.4760
     27 H         -18.9428  -11.9326   -9.4477 H       1  UNL1        0.2955
     28 N         -24.5898  -10.4575  -12.1208 N.pl3   1  UNL1       -0.2917
     29 C         -24.9070  -10.8097  -10.7461 C.3     1  UNL1        0.0937
     30 C         -25.3130   -9.5117  -10.0548 C.3     1  UNL1        0.0391
     31 C         -25.0082   -8.3855  -11.0592 C.3     1  UNL1        0.0790
     32 C         -24.8525   -9.0635  -12.4227 C.3     1  UNL1        0.1081
     33 N         -25.9977   -7.2758  -11.0712 N.3     1  UNL1       -0.2723
     34 C         -27.3974   -7.7296  -11.2437 C.3     1  UNL1        0.0721
     35 C         -27.8349   -7.7832  -12.7181 C.3     1  UNL1        0.0174
     36 C         -27.4108   -6.5448  -13.5302 C.3     1  UNL1        0.0029
     37 C         -26.7659   -5.4654  -12.6615 C.3     1  UNL1        0.0174
     38 C         -25.6144   -6.0598  -11.8399 C.3     1  UNL1        0.0721
@<TRIPOS>BOND
     1    17    18    1
     2    18    19   ar
     3    19    20   ar
     4    20    21   ar
     5    21    11    1
     6    11    12   ar
     7    12     1    1
     8     1     2   ar
     9     2     3   ar
    10     3     4    1
    11     3     5   ar
    12     5     6   ar
    13     6     7   ar
    14     7     8   ar
    15     8     9   ar
    16     9    28    1
    17    28    29    1
    18    29    30    1
    19    30    31    1
    20    31    33    1
    21    33    34    1
    22    34    35    1
    23    35    36    1
    24    36    37    1
    25    37    38    1
    26    31    32    1
    27     9    10   ar
    28    12    13   ar
    29    13    24    1
    30    24    25    2
    31    24    26    1
    32    13    14   ar
    33    14    15   ar
    34    15    16    1
    35    21    22   ar
    36    22    23   ar
    37    23    18   ar
    38    15    11   ar
    39    10     1   ar
    40    10     5   ar
    41    32    28    1
    42    38    33    1
    43    26    27    1
@<TRIPOS>MOLECULE
*****
 38 43 0 0 0
SMALL
GASTEIGER

@<TRIPOS>ATOM
      1 C         -23.0756   -9.1815  -10.5209 C.ar    1  UNL1        0.1097
      2 N         -22.5024   -8.4272   -9.5500 N.ar    1  UNL1       -0.1677
      3 N         -21.3162   -8.9527   -9.2666 N.ar    1  UNL1       -0.2319
      4 C         -20.3633   -8.3703   -8.3314 C.3     1  UNL1        0.1554
      5 C         -21.1192  -10.0126  -10.0658 C.ar    1  UNL1        0.1654
      6 N         -20.0026  -10.7750  -10.1526 N.ar    1  UNL1       -0.2050
      7 C         -19.9857  -11.7896  -11.0667 C.ar    1  UNL1        0.2014
      8 N         -21.0754  -12.0264  -11.8633 N.ar    1  UNL1       -0.2089
      9 C         -22.2045  -11.2608  -11.7807 C.ar    1  UNL1        0.1379
     10 C         -22.2056  -10.2103  -10.8603 C.ar    1  UNL1        0.0865
     11 C         -24.5532   -8.4369  -12.4680 C.ar    1  UNL1        0.0811
     12 C         -24.3556   -8.8377  -11.1575 C.ar    1  UNL1        0.0625
     13 C         -25.6053   -8.7232  -10.5627 C.ar    1  UNL1        0.1789
     14 N         -26.4934   -8.2670  -11.4690 N.ar    1  UNL1       -0.1626
     15 N         -25.8532   -8.0987  -12.6157 N.ar    1  UNL1       -0.2486
     16 C         -26.4938   -7.5701  -13.8151 C.3     1  UNL1        0.1537
     17 C         -20.4345   -7.8951  -16.4991 C.3     1  UNL1        0.0310
     18 C         -21.5116   -7.9978  -15.4604 C.ar    1  UNL1       -0.0218
     19 C         -22.8008   -8.4200  -15.8183 C.ar    1  UNL1       -0.0042
     20 C         -23.7947   -8.5529  -14.8445 C.ar    1  UNL1        0.0012
     21 C         -23.5083   -8.2788  -13.4994 C.ar    1  UNL1        0.0174
     22 C         -22.2154   -7.8712  -13.1390 C.ar    1  UNL1        0.0012
     23 C         -21.2211   -7.7383  -14.1125 C.ar    1  UNL1       -0.0042
     24 C         -25.9728   -9.0710   -9.1822 C.2     1  UNL1        0.3578
     25 O         -27.1553   -8.8915   -8.7867 O.2     1  UNL1       -0.2433
     26 O         -25.0295   -9.6067   -8.3110 O.3     1  UNL1       -0.4760
     27 H         -25.2767   -9.8432   -7.3577 H       1  UNL1        0.2955
     28 N         -23.3449  -11.5764  -12.5855 N.pl3   1  UNL1       -0.2917
     29 C         -24.5162  -12.2422  -12.0384 C.3     1  UNL1        0.0937
     30 C         -25.3362  -12.7167  -13.2341 C.3     1  UNL1        0.0391
     31 C         -24.6660  -12.1013  -14.4760 C.3     1  UNL1        0.0790
     32 C         -23.2684  -11.6636  -14.0312 C.3     1  UNL1        0.1081
     33 N         -24.6458  -12.9815  -15.6743 N.3     1  UNL1       -0.2723
     34 C         -24.9126  -14.4065  -15.3695 C.3     1  UNL1        0.0721
     35 C         -23.6319  -15.2104  -15.0838 C.3     1  UNL1        0.0174
     36 C         -22.4919  -14.9241  -16.0796 C.3     1  UNL1        0.0029
     37 C         -22.9258  -14.0047  -17.2206 C.3     1  UNL1        0.0174
     38 C         -23.5615  -12.7250  -16.6617 C.3     1  UNL1        0.0721
@<TRIPOS>BOND
     1    17    18    1
     2    18    19   ar
     3    19    20   ar
     4    20    21   ar
     5    21    11    1
     6    11    12   ar
     7    12     1    1
     8     1     2   ar
     9     2     3   ar
    10     3     4    1
    11     3     5   ar
    12     5     6   ar
    13     6     7   ar
    14     7     8   ar
    15     8     9   ar
    16     9    28    1
    17    28    29    1
    18    29    30    1
    19    30    31    1
    20    31    33    1
    21    33    34    1
    22    34    35    1
    23    35    36    1
    24    36    37    1
    25    37    38    1
    26    31    32    1
    27     9    10   ar
    28    12    13   ar
    29    13    24    1
    30    24    25    2
    31    24    26    1
    32    13    14   ar
    33    14    15   ar
    34    15    16    1
    35    21    22   ar
    36    22    23   ar
    37    23    18   ar
    38    15    11   ar
    39    10     1   ar
    40    10     5   ar
    41    32    28    1
    42    38    33    1
    43    26    27    1
@<TRIPOS>MOLECULE
*****
 38 43 0 0 0
SMALL
GASTEIGER

@<TRIPOS>ATOM
      1 C         -23.7485   -8.8784  -10.9941 C.ar    1  UNL1        0.1097
      2 N         -23.2389   -9.8036  -10.1430 N.ar    1  UNL1       -0.1677
      3 N         -24.1714  -10.0930   -9.2428 N.ar    1  UNL1       -0.2319
      4 C         -24.0275  -11.1107   -8.2107 C.3     1  UNL1        0.1554
      5 C         -25.2741   -9.3844   -9.5306 C.ar    1  UNL1        0.1654
      6 N         -26.4750   -9.4512   -8.9070 N.ar    1  UNL1       -0.2050
      7 C         -27.4914   -8.6728   -9.3828 C.ar    1  UNL1        0.2014
      8 N         -27.2896   -7.8451  -10.4563 N.ar    1  UNL1       -0.2089
      9 C         -26.0807   -7.7734  -11.0899 C.ar    1  UNL1        0.1379
     10 C         -25.0530   -8.5899  -10.6125 C.ar    1  UNL1        0.0865
     11 C         -22.9235   -9.0325  -13.4076 C.ar    1  UNL1        0.0811
     12 C         -23.0303   -8.3956  -12.1829 C.ar    1  UNL1        0.0625
     13 C         -22.2157   -7.2765  -12.2964 C.ar    1  UNL1        0.1789
     14 N         -21.6468   -7.2579  -13.5187 N.ar    1  UNL1       -0.1626
     15 N         -22.0794   -8.3178  -14.1841 N.ar    1  UNL1       -0.2486
     16 C         -21.6341   -8.6469  -15.5338 C.3     1  UNL1        0.1537
     17 C         -25.2910  -14.1412  -14.7504 C.3     1  UNL1        0.0310
     18 C         -24.6638  -12.8148  -14.4393 C.ar    1  UNL1       -0.0218
     19 C         -25.3993  -11.6306  -14.5976 C.ar    1  UNL1       -0.0042
     20 C         -24.8283  -10.3972  -14.2712 C.ar    1  UNL1        0.0012
     21 C         -23.5203  -10.3337  -13.7697 C.ar    1  UNL1        0.0174
     22 C         -22.7899  -11.5188  -13.5971 C.ar    1  UNL1        0.0012
     23 C         -23.3606  -12.7524  -13.9232 C.ar    1  UNL1       -0.0042
     24 C         -22.0026   -6.2215  -11.2947 C.2     1  UNL1        0.3578
     25 O         -22.2417   -5.0209  -11.5919 O.2     1  UNL1       -0.2433
     26 O         -21.5494   -6.5374  -10.0178 O.3     1  UNL1       -0.4760
     27 H         -21.3965   -5.8136   -9.3260 H       1  UNL1        0.2955
     28 N         -25.8904   -6.8525  -12.1686 N.pl3   1  UNL1       -0.2917
     29 C         -25.7230   -5.4254  -11.9455 C.3     1  UNL1        0.0937
     30 C         -25.9059   -4.7557  -13.3039 C.3     1  UNL1        0.0391
     31 C         -25.9798   -5.8996  -14.3316 C.3     1  UNL1        0.0790
     32 C         -26.2715   -7.1713  -13.5311 C.3     1  UNL1        0.1081
     33 N         -26.9426   -5.6784  -15.4429 N.3     1  UNL1       -0.2723
     34 C         -26.3303   -5.0719  -16.6478 C.3     1  UNL1        0.0721
     35 C         -26.3887   -3.5342  -16.6429 C.3     1  UNL1        0.0174
     36 C         -27.7573   -2.9728  -16.2131 C.3     1  UNL1        0.0029
     37 C         -28.8058   -4.0672  -16.0169 C.3     1  UNL1        0.0174
     38 C         -28.2788   -5.1449  -15.0603 C.3     1  UNL1        0.0721
@<TRIPOS>BOND
     1    17    18    1
     2    18    19   ar
     3    19    20   ar
     4    20    21   ar
     5    21    11    1
     6    11    12   ar
     7    12     1    1
     8     1     2   ar
     9     2     3   ar
    10     3     4    1
    11     3     5   ar
    12     5     6   ar
    13     6     7   ar
    14     7     8   ar
    15     8     9   ar
    16     9    28    1
    17    28    29    1
    18    29    30    1
    19    30    31    1
    20    31    33    1
    21    33    34    1
    22    34    35    1
    23    35    36    1
    24    36    37    1
    25    37    38    1
    26    31    32    1
    27     9    10   ar
    28    12    13   ar
    29    13    24    1
    30    24    25    2
    31    24    26    1
    32    13    14   ar
    33    14    15   ar
    34    15    16    1
    35    21    22   ar
    36    22    23   ar
    37    23    18   ar
    38    15    11   ar
    39    10     1   ar
    40    10     5   ar
    41    32    28    1
    42    38    33    1
    43    26    27    1
@<TRIPOS>MOLECULE
*****
 38 43 0 0 0
SMALL
GASTEIGER

@<TRIPOS>ATOM
      1 C         -23.5509   -9.8152  -14.3518 C.ar    1  UNL1        0.1097
      2 N         -24.0959  -10.5106  -15.3812 N.ar    1  UNL1       -0.1677
      3 N         -23.4078  -10.2256  -16.4807 N.ar    1  UNL1       -0.2319
      4 C         -23.6399  -10.8467  -17.7777 C.3     1  UNL1        0.1554
      5 C         -22.4167   -9.3815  -16.1548 C.ar    1  UNL1        0.1654
      6 N         -21.4401   -8.9136  -16.9690 N.ar    1  UNL1       -0.2050
      7 C         -20.4921   -8.0914  -16.4302 C.ar    1  UNL1        0.2014
      8 N         -20.5407   -7.7490  -15.1041 N.ar    1  UNL1       -0.2089
      9 C         -21.5230   -8.2180  -14.2775 C.ar    1  UNL1        0.1379
     10 C         -22.4752   -9.0773  -14.8302 C.ar    1  UNL1        0.0865
     11 C         -24.9961   -9.2499  -12.3219 C.ar    1  UNL1        0.0811
     12 C         -23.9931   -9.9621  -12.9572 C.ar    1  UNL1        0.0625
     13 C         -23.4306  -10.7450  -11.9576 C.ar    1  UNL1        0.1789
     14 N         -24.0585  -10.5006  -10.7896 N.ar    1  UNL1       -0.1626
     15 N         -25.0024   -9.6002  -11.0167 N.ar    1  UNL1       -0.2486
     16 C         -25.8572   -9.0601   -9.9650 C.3     1  UNL1        0.1537
     17 C         -28.2619   -5.1410  -14.7631 C.3     1  UNL1        0.0310
     18 C         -27.4244   -6.1908  -14.0951 C.ar    1  UNL1       -0.0218
     19 C         -27.9872   -7.4278  -13.7465 C.ar    1  UNL1       -0.0042
     20 C         -27.1981   -8.4208  -13.1591 C.ar    1  UNL1        0.0012
     21 C         -25.8340   -8.1944  -12.9256 C.ar    1  UNL1        0.0174
     22 C         -25.2676   -6.9632  -13.2878 C.ar    1  UNL1        0.0012
     23 C         -26.0564   -5.9701  -13.8755 C.ar    1  UNL1       -0.0042
     24 C         -22.3512  -11.7334  -12.0981 C.2     1  UNL1        0.3578
     25 O         -22.3693  -12.5451  -13.0613 O.2     1  UNL1       -0.2433
     26 O         -21.3036  -11.7740  -11.1833 O.3     1  UNL1       -0.4760
     27 H         -20.5604  -12.4562  -11.2732 H       1  UNL1        0.2955
     28 N         -21.5763   -7.7899  -12.9130 N.pl3   1  UNL1       -0.2917
     29 C         -22.0559   -6.4700  -12.5357 C.3     1  UNL1        0.0937
     30 C         -21.6345   -6.2604  -11.0845 C.3     1  UNL1        0.0391
     31 C         -21.0752   -7.6133  -10.6081 C.3     1  UNL1        0.0790
     32 C         -20.7861   -8.4229  -11.8746 C.3     1  UNL1        0.1081
     33 N         -19.9027   -7.5180   -9.6987 N.3     1  UNL1       -0.2723
     34 C         -18.8524   -8.5254   -9.9757 C.3     1  UNL1        0.0721
     35 C         -19.0374   -9.8240   -9.1710 C.3     1  UNL1        0.0174
     36 C         -19.3838   -9.5846   -7.6893 C.3     1  UNL1        0.0029
     37 C         -19.3330   -8.1061   -7.3057 C.3     1  UNL1        0.0174
     38 C         -20.2026   -7.2775   -8.2604 C.3     1  UNL1        0.0721
@<TRIPOS>BOND
     1    17    18    1
     2    18    19   ar
     3    19    20   ar
     4    20    21   ar
     5    21    11    1
     6    11    12   ar
     7    12     1    1
     8     1     2   ar
     9     2     3   ar
    10     3     4    1
    11     3     5   ar
    12     5     6   ar
    13     6     7   ar
    14     7     8   ar
    15     8     9   ar
    16     9    28    1
    17    28    29    1
    18    29    30    1
    19    30    31    1
    20    31    33    1
    21    33    34    1
    22    34    35    1
    23    35    36    1
    24    36    37    1
    25    37    38    1
    26    31    32    1
    27     9    10   ar
    28    12    13   ar
    29    13    24    1
    30    24    25    2
    31    24    26    1
    32    13    14   ar
    33    14    15   ar
    34    15    16    1
    35    21    22   ar
    36    22    23   ar
    37    23    18   ar
    38    15    11   ar
    39    10     1   ar
    40    10     5   ar
    41    32    28    1
    42    38    33    1
    43    26    27    1
@<TRIPOS>MOLECULE
*****
 38 43 0 0 0
SMALL
GASTEIGER

@<TRIPOS>ATOM
      1 C         -23.7040   -7.6515  -14.1393 C.ar    1  UNL1        0.1097
      2 N         -24.5564   -7.1100  -15.0450 N.ar    1  UNL1       -0.1677
      3 N         -23.9150   -7.0060  -16.2033 N.ar    1  UNL1       -0.2319
      4 C         -24.5283   -6.5471  -17.4422 C.3     1  UNL1        0.1554
      5 C         -22.6773   -7.5014  -16.0495 C.ar    1  UNL1        0.1654
      6 N         -21.7334   -7.6563  -17.0089 N.ar    1  UNL1       -0.2050
      7 C         -20.5430   -8.2244  -16.6547 C.ar    1  UNL1        0.2014
      8 N         -20.3168   -8.6161  -15.3611 N.ar    1  UNL1       -0.2089
      9 C         -21.2650   -8.4628  -14.3887 C.ar    1  UNL1        0.1379
     10 C         -22.4884   -7.9029  -14.7635 C.ar    1  UNL1        0.0865
     11 C         -24.5189   -9.2496  -12.3196 C.ar    1  UNL1        0.0811
     12 C         -24.1039   -8.0079  -12.7699 C.ar    1  UNL1        0.0625
     13 C         -24.2673   -7.1653  -11.6781 C.ar    1  UNL1        0.1789
     14 N         -24.7645   -7.8677  -10.6400 N.ar    1  UNL1       -0.1626
     15 N         -24.9116   -9.1236  -11.0327 N.ar    1  UNL1       -0.2486
     16 C         -25.4722  -10.1646  -10.1781 C.3     1  UNL1        0.1537
     17 C         -25.0523  -14.0850  -15.4569 C.3     1  UNL1        0.0310
     18 C         -24.8826  -12.8222  -14.6655 C.ar    1  UNL1       -0.0218
     19 C         -25.5491  -11.6501  -15.0532 C.ar    1  UNL1       -0.0042
     20 C         -25.4220  -10.4831  -14.2944 C.ar    1  UNL1        0.0012
     21 C         -24.6384  -10.4773  -13.1314 C.ar    1  UNL1        0.0174
     22 C         -23.9841  -11.6531  -12.7352 C.ar    1  UNL1        0.0012
     23 C         -24.1110  -12.8204  -13.4936 C.ar    1  UNL1       -0.0042
     24 C         -23.9285   -5.7371  -11.5932 C.2     1  UNL1        0.3578
     25 O         -24.7166   -4.8789  -12.0720 O.2     1  UNL1       -0.2433
     26 O         -22.7505   -5.3233  -10.9792 O.3     1  UNL1       -0.4760
     27 H         -22.5106   -4.3409  -10.9227 H       1  UNL1        0.2955
     28 N         -20.9703   -8.8271  -13.0366 N.pl3   1  UNL1       -0.2917
     29 C         -21.1989  -10.1714  -12.5314 C.3     1  UNL1        0.0937
     30 C         -21.1110  -10.0778  -11.0112 C.3     1  UNL1        0.0391
     31 C         -20.6179   -8.6520  -10.7042 C.3     1  UNL1        0.0790
     32 C         -20.8455   -7.8399  -11.9815 C.3     1  UNL1        0.1081
     33 N         -21.2281   -8.0267   -9.5011 N.3     1  UNL1       -0.2723
     34 C         -20.2998   -7.1474   -8.7529 C.3     1  UNL1        0.0721
     35 C         -19.5260   -7.8901   -7.6494 C.3     1  UNL1        0.0174
     36 C         -20.4085   -8.8304   -6.8067 C.3     1  UNL1        0.0029
     37 C         -21.8910   -8.7182   -7.1603 C.3     1  UNL1        0.0174
     38 C         -22.0948   -8.9063   -8.6694 C.3     1  UNL1        0.0721
@<TRIPOS>BOND
     1    17    18    1
     2    18    19   ar
     3    19    20   ar
     4    20    21   ar
     5    21    11    1
     6    11    12   ar
     7    12     1    1
     8     1     2   ar
     9     2     3   ar
    10     3     4    1
    11     3     5   ar
    12     5     6   ar
    13     6     7   ar
    14     7     8   ar
    15     8     9   ar
    16     9    28    1
    17    28    29    1
    18    29    30    1
    19    30    31    1
    20    31    33    1
    21    33    34    1
    22    34    35    1
    23    35    36    1
    24    36    37    1
    25    37    38    1
    26    31    32    1
    27     9    10   ar
    28    12    13   ar
    29    13    24    1
    30    24    25    2
    31    24    26    1
    32    13    14   ar
    33    14    15   ar
    34    15    16    1
    35    21    22   ar
    36    22    23   ar
    37    23    18   ar
    38    15    11   ar
    39    10     1   ar
    40    10     5   ar
    41    32    28    1
    42    38    33    1
    43    26    27    1
@<TRIPOS>MOLECULE
*****
 38 43 0 0 0
SMALL
GASTEIGER

@<TRIPOS>ATOM
      1 C         -22.1903   -9.0579   -8.7025 C.ar    1  UNL1        0.1097
      2 N         -22.0106   -8.7043   -7.4053 N.ar    1  UNL1       -0.1677
      3 N         -20.7495   -8.9629   -7.0789 N.ar    1  UNL1       -0.2319
      4 C         -20.1524   -8.6379   -5.7907 C.3     1  UNL1        0.1554
      5 C         -20.1216   -9.4485   -8.1610 C.ar    1  UNL1        0.1654
      6 N         -18.8077   -9.7590   -8.2735 N.ar    1  UNL1       -0.2050
      7 C         -18.3524  -10.2021   -9.4824 C.ar    1  UNL1        0.2014
      8 N         -19.2100  -10.3328  -10.5433 N.ar    1  UNL1       -0.2089
      9 C         -20.5364  -10.0209  -10.4363 C.ar    1  UNL1        0.1379
     10 C         -20.9899   -9.5460   -9.2037 C.ar    1  UNL1        0.0865
     11 C         -23.7274   -7.7504  -10.2699 C.ar    1  UNL1        0.0811
     12 C         -23.4418   -8.8184   -9.4365 C.ar    1  UNL1        0.0625
     13 C         -24.6307   -9.5319   -9.3592 C.ar    1  UNL1        0.1789
     14 N         -25.5741   -8.9128  -10.0974 N.ar    1  UNL1       -0.1626
     15 N         -25.0224   -7.8411  -10.6454 N.ar    1  UNL1       -0.2486
     16 C         -25.7649   -6.9010  -11.4781 C.3     1  UNL1        0.1537
     17 C         -20.1116   -3.4089  -11.5289 C.3     1  UNL1        0.0310
     18 C         -21.0790   -4.5102  -11.2109 C.ar    1  UNL1       -0.0218
     19 C         -21.4735   -5.4142  -12.2086 C.ar    1  UNL1       -0.0042
     20 C         -22.3449   -6.4639  -11.9041 C.ar    1  UNL1        0.0012
     21 C         -22.8215   -6.6308  -10.5958 C.ar    1  UNL1        0.0174
     22 C         -22.4152   -5.7360   -9.5948 C.ar    1  UNL1        0.0012
     23 C         -21.5437   -4.6863   -9.8989 C.ar    1  UNL1       -0.0042
     24 C         -24.8715  -10.7915   -8.6400 C.2     1  UNL1        0.3578
     25 O         -25.8419  -11.5237   -8.9708 O.2     1  UNL1       -0.2433
     26 O         -24.0315  -11.1883   -7.6044 O.3     1  UNL1       -0.4760
     27 H         -24.1963  -12.0527   -7.1029 H       1  UNL1        0.2955
     28 N         -21.4133  -10.2285  -11.5480 N.pl3   1  UNL1       -0.2917
     29 C         -22.1754  -11.4560  -11.7122 C.3     1  UNL1        0.0937
     30 C         -22.6913  -11.4505  -13.1479 C.3     1  UNL1        0.0391
     31 C         -22.3505  -10.0597  -13.7132 C.3     1  UNL1        0.0790
     32 C         -21.2934   -9.4684  -12.7774 C.3     1  UNL1        0.1081
     33 N         -21.9334  -10.0518  -15.1404 N.3     1  UNL1       -0.2723
     34 C         -21.2318   -8.8121  -15.5476 C.3     1  UNL1        0.0721
     35 C         -22.1842   -7.7339  -16.0939 C.3     1  UNL1        0.0174
     36 C         -23.2333   -8.2830  -17.0793 C.3     1  UNL1        0.0029
     37 C         -23.0140   -9.7592  -17.4083 C.3     1  UNL1        0.0174
     38 C         -22.9213  -10.5848  -16.1183 C.3     1  UNL1        0.0721
@<TRIPOS>BOND
     1    17    18    1
     2    18    19   ar
     3    19    20   ar
     4    20    21   ar
     5    21    11    1
     6    11    12   ar
     7    12     1    1
     8     1     2   ar
     9     2     3   ar
    10     3     4    1
    11     3     5   ar
    12     5     6   ar
    13     6     7   ar
    14     7     8   ar
    15     8     9   ar
    16     9    28    1
    17    28    29    1
    18    29    30    1
    19    30    31    1
    20    31    33    1
    21    33    34    1
    22    34    35    1
    23    35    36    1
    24    36    37    1
    25    37    38    1
    26    31    32    1
    27     9    10   ar
    28    12    13   ar
    29    13    24    1
    30    24    25    2
    31    24    26    1
    32    13    14   ar
    33    14    15   ar
    34    15    16    1
    35    21    22   ar
    36    22    23   ar
    37    23    18   ar
    38    15    11   ar
    39    10     1   ar
    40    10     5   ar
    41    32    28    1
    42    38    33    1
    43    26    27    1
@<TRIPOS>MOLECULE
*****
 38 43 0 0 0
SMALL
GASTEIGER

@<TRIPOS>ATOM
      1 C         -25.0122   -6.6680  -14.7006 C.ar    1  UNL1        0.1097
      2 N         -25.3252   -5.4630  -15.2392 N.ar    1  UNL1       -0.1677
      3 N         -26.6130   -5.2321  -15.0115 N.ar    1  UNL1       -0.2319
      4 C         -27.3000   -3.9972  -15.3650 C.3     1  UNL1        0.1554
      5 C         -27.1119   -6.2621  -14.3107 C.ar    1  UNL1        0.1654
      6 N         -28.3639   -6.3781  -13.8063 N.ar    1  UNL1       -0.2050
      7 C         -28.6640   -7.4946  -13.0793 C.ar    1  UNL1        0.2014
      8 N         -27.7205   -8.4680  -12.8781 N.ar    1  UNL1       -0.2089
      9 C         -26.4557   -8.3568  -13.3839 C.ar    1  UNL1        0.1379
     10 C         -26.1492   -7.2012  -14.1061 C.ar    1  UNL1        0.0865
     11 C         -22.9432   -7.7555  -15.7330 C.ar    1  UNL1        0.0811
     12 C         -23.6443   -7.2068  -14.6727 C.ar    1  UNL1        0.0625
     13 C         -22.8184   -7.3919  -13.5717 C.ar    1  UNL1        0.1789
     14 N         -21.6934   -8.0276  -13.9567 N.ar    1  UNL1       -0.1626
     15 N         -21.7741   -8.2417  -15.2609 N.ar    1  UNL1       -0.2486
     16 C         -20.7479   -8.9524  -16.0161 C.3     1  UNL1        0.1537
     17 C         -24.9332   -8.3620  -21.1348 C.3     1  UNL1        0.0310
     18 C         -24.3819   -8.1966  -19.7497 C.ar    1  UNL1       -0.0218
     19 C         -24.4398   -6.9491  -19.1103 C.ar    1  UNL1       -0.0042
     20 C         -23.9612   -6.8032  -17.8051 C.ar    1  UNL1        0.0012
     21 C         -23.4319   -7.9053  -17.1184 C.ar    1  UNL1        0.0174
     22 C         -23.3877   -9.1561  -17.7520 C.ar    1  UNL1        0.0012
     23 C         -23.8663   -9.3024  -19.0571 C.ar    1  UNL1       -0.0042
     24 C         -23.0580   -6.9481  -12.1905 C.2     1  UNL1        0.3578
     25 O         -22.3291   -7.3831  -11.2596 O.2     1  UNL1       -0.2433
     26 O         -24.0754   -6.0437  -11.9029 O.3     1  UNL1       -0.4760
     27 H         -24.2473   -5.7389  -10.9525 H       1  UNL1        0.2955
     28 N         -25.5162   -9.4214  -13.2053 N.pl3   1  UNL1       -0.2917
     29 C         -24.6550   -9.5037  -12.0365 C.3     1  UNL1        0.0937
     30 C         -23.5800  -10.5339  -12.3689 C.3     1  UNL1        0.0391
     31 C         -24.0058  -11.1721  -13.7037 C.3     1  UNL1        0.0790
     32 C         -25.0426  -10.2263  -14.3148 C.3     1  UNL1        0.1081
     33 N         -22.8861  -11.4847  -14.6306 N.3     1  UNL1       -0.2723
     34 C         -23.3233  -12.1062  -15.9024 C.3     1  UNL1        0.0721
     35 C         -23.3529  -13.6435  -15.8416 C.3     1  UNL1        0.0174
     36 C         -22.1082  -14.2560  -15.1718 C.3     1  UNL1        0.0029
     37 C         -21.0470  -13.2088  -14.8356 C.3     1  UNL1        0.0174
     38 C         -21.6639  -12.0695  -14.0136 C.3     1  UNL1        0.0721
@<TRIPOS>BOND
     1    17    18    1
     2    18    19   ar
     3    19    20   ar
     4    20    21   ar
     5    21    11    1
     6    11    12   ar
     7    12     1    1
     8     1     2   ar
     9     2     3   ar
    10     3     4    1
    11     3     5   ar
    12     5     6   ar
    13     6     7   ar
    14     7     8   ar
    15     8     9   ar
    16     9    28    1
    17    28    29    1
    18    29    30    1
    19    30    31    1
    20    31    33    1
    21    33    34    1
    22    34    35    1
    23    35    36    1
    24    36    37    1
    25    37    38    1
    26    31    32    1
    27     9    10   ar
    28    12    13   ar
    29    13    24    1
    30    24    25    2
    31    24    26    1
    32    13    14   ar
    33    14    15   ar
    34    15    16    1
    35    21    22   ar
    36    22    23   ar
    37    23    18   ar
    38    15    11   ar
    39    10     1   ar
    40    10     5   ar
    41    32    28    1
    42    38    33    1
    43    26    27    1
@<TRIPOS>MOLECULE
*****
 38 43 0 0 0
SMALL
GASTEIGER

@<TRIPOS>ATOM
      1 C         -26.1995   -6.0470  -13.8037 C.ar    1  UNL1        0.1097
      2 N         -26.9426   -4.9403  -14.0549 N.ar    1  UNL1       -0.1677
      3 N         -26.6107   -4.4857  -15.2578 N.ar    1  UNL1       -0.2319
      4 C         -27.2566   -3.3578  -15.9153 C.3     1  UNL1        0.1554
      5 C         -25.6883   -5.3070  -15.7827 C.ar    1  UNL1        0.1654
      6 N         -25.1494   -5.2445  -17.0241 N.ar    1  UNL1       -0.2050
      7 C         -24.2508   -6.2077  -17.3848 C.ar    1  UNL1        0.2014
      8 N         -23.9050   -7.2005  -16.5057 N.ar    1  UNL1       -0.2089
      9 C         -24.4454   -7.2693  -15.2522 C.ar    1  UNL1        0.1379
     10 C         -25.3813   -6.2946  -14.8990 C.ar    1  UNL1        0.0865
     11 C         -25.4797   -7.0216  -11.5540 C.ar    1  UNL1        0.0811
     12 C         -26.3722   -6.8774  -12.6026 C.ar    1  UNL1        0.0625
     13 C         -27.3932   -7.7758  -12.3213 C.ar    1  UNL1        0.1789
     14 N         -27.1144   -8.4267  -11.1738 N.ar    1  UNL1       -0.1626
     15 N         -25.9609   -7.9657  -10.7154 N.ar    1  UNL1       -0.2486
     16 C         -25.3225   -8.4773   -9.5075 C.3     1  UNL1        0.1537
     17 C         -20.3128   -4.4447  -11.1407 C.3     1  UNL1        0.0310
     18 C         -21.6586   -5.1033  -11.2101 C.ar    1  UNL1       -0.0218
     19 C         -22.7830   -4.3722  -11.6220 C.ar    1  UNL1       -0.0042
     20 C         -24.0301   -4.9951  -11.7239 C.ar    1  UNL1        0.0012
     21 C         -24.1659   -6.3592  -11.4287 C.ar    1  UNL1        0.0174
     22 C         -23.0389   -7.0940  -11.0314 C.ar    1  UNL1        0.0012
     23 C         -21.7915   -6.4716  -10.9296 C.ar    1  UNL1       -0.0042
     24 C         -28.6271   -7.9952  -13.0901 C.2     1  UNL1        0.3578
     25 O         -29.6867   -8.3200  -12.4910 O.2     1  UNL1       -0.2433
     26 O         -28.6387   -7.8370  -14.4723 O.3     1  UNL1       -0.4760
     27 H         -29.4851   -7.9917  -15.0067 H       1  UNL1        0.2955
     28 N         -24.0142   -8.2847  -14.3406 N.pl3   1  UNL1       -0.2917
     29 C         -22.6290   -8.4021  -13.9139 C.3     1  UNL1        0.0937
     30 C         -22.4988   -9.7722  -13.2557 C.3     1  UNL1        0.0391
     31 C         -23.9306  -10.3288  -13.1534 C.3     1  UNL1        0.0790
     32 C         -24.7796   -9.4961  -14.1171 C.3     1  UNL1        0.1081
     33 N         -24.0493  -11.7920  -13.3897 N.3     1  UNL1       -0.2723
     34 C         -22.8347  -12.3986  -13.9828 C.3     1  UNL1        0.0721
     35 C         -22.8609  -12.4153  -15.5213 C.3     1  UNL1        0.0174
     36 C         -24.2107  -12.8702  -16.1080 C.3     1  UNL1        0.0029
     37 C         -25.1900  -13.3398  -15.0328 C.3     1  UNL1        0.0174
     38 C         -25.3455  -12.2661  -13.9478 C.3     1  UNL1        0.0721
@<TRIPOS>BOND
     1    17    18    1
     2    18    19   ar
     3    19    20   ar
     4    20    21   ar
     5    21    11    1
     6    11    12   ar
     7    12     1    1
     8     1     2   ar
     9     2     3   ar
    10     3     4    1
    11     3     5   ar
    12     5     6   ar
    13     6     7   ar
    14     7     8   ar
    15     8     9   ar
    16     9    28    1
    17    28    29    1
    18    29    30    1
    19    30    31    1
    20    31    33    1
    21    33    34    1
    22    34    35    1
    23    35    36    1
    24    36    37    1
    25    37    38    1
    26    31    32    1
    27     9    10   ar
    28    12    13   ar
    29    13    24    1
    30    24    25    2
    31    24    26    1
    32    13    14   ar
    33    14    15   ar
    34    15    16    1
    35    21    22   ar
    36    22    23   ar
    37    23    18   ar
    38    15    11   ar
    39    10     1   ar
    40    10     5   ar
    41    32    28    1
    42    38    33    1
    43    26    27    1
