@<TRIPOS>MOLECULE
*****
 29 32 0 0 0
SMALL
GASTEIGER

@<TRIPOS>ATOM
      1 C          49.3073   10.5360  -21.7029 C.3     1  UNL1        0.0773
      2 C          49.9041   10.6116  -20.2789 C.3     1  UNL1        0.0292
      3 C          49.7384   12.0304  -19.7166 C.3     1  UNL1        0.0826
      4 C          48.2472   12.4163  -19.5800 C.3     1  UNL1        0.0309
      5 C          47.3244   11.6593  -20.5535 C.3     1  UNL1        0.0954
      6 N          48.0353   11.2834  -21.7851 N.am    1  UNL1       -0.2658
      7 C          47.4825   11.6088  -23.0764 C.2     1  UNL1        0.3039
      8 O          48.2549   11.8174  -24.0519 O.2     1  UNL1       -0.2526
      9 N          46.0627   11.6705  -23.2714 N.am    1  UNL1       -0.2901
     10 H          45.4246   11.2644  -22.5511 H       1  UNL1        0.1509
     11 C          50.4486   12.1692  -18.4002 C.ar    1  UNL1        0.2359
     12 N          49.8267   12.3253  -17.2148 N.ar    1  UNL1       -0.1949
     13 C          50.8799   12.4121  -16.3746 C.ar    1  UNL1        0.1800
     14 N          52.0619   12.3178  -17.0142 N.ar    1  UNL1       -0.0606
     15 O          51.7519   12.1694  -18.2657 O.2     1  UNL1       -0.3374
     16 C          50.7528   12.5978  -14.8892 C.3     1  UNL1        0.0621
     17 C          49.4793   13.3802  -14.5561 C.3     1  UNL1        0.0081
     18 C          51.9917   13.3044  -14.3320 C.3     1  UNL1        0.0081
     19 C          45.4905   12.1040  -24.5416 C.3     1  UNL1        0.0774
     20 C          44.2309   12.9500  -24.3840 C.3     1  UNL1        0.0259
     21 C          45.5579   13.6137  -24.7415 C.3     1  UNL1        0.0420
     22 C          45.7124   14.1153  -26.1662 C.ar    1  UNL1       -0.0208
     23 C          46.1022   13.1880  -27.1479 C.ar    1  UNL1       -0.0042
     24 C          46.2591   13.5822  -28.4800 C.ar    1  UNL1       -0.0003
     25 C          46.0286   14.9082  -28.8497 C.ar    1  UNL1       -0.0000
     26 C          45.6406   15.8426  -27.8881 C.ar    1  UNL1       -0.0003
     27 C          45.4818   15.4545  -26.5541 C.ar    1  UNL1       -0.0042
     28 C          50.0509    8.6368  -23.2482 C.3     1  UNL1        0.0018
     29 C          49.0836    9.0749  -22.1484 C.3     1  UNL1        0.0199
@<TRIPOS>BOND
     1    28    29    1
     2    29     1    1
     3     1     2    1
     4     2     3    1
     5     3    11    1
     6    11    12   ar
     7    12    13   ar
     8    13    16    1
     9    16    17    1
    10    16    18    1
    11    13    14   ar
    12    14    15   ar
    13     3     4    1
    14     4     5    1
    15     5     6    1
    16     6     7   am
    17     7     8    2
    18     7     9   am
    19     9    19    1
    20    19    20    1
    21    20    21    1
    22    21    22    1
    23    22    23   ar
    24    23    24   ar
    25    24    25   ar
    26    25    26   ar
    27    26    27   ar
    28     6     1    1
    29    21    19    1
    30    27    22   ar
    31    15    11   ar
    32     9    10    1
@<TRIPOS>MOLECULE
*****
 29 32 0 0 0
SMALL
GASTEIGER

@<TRIPOS>ATOM
      1 C          48.3557   10.6674  -21.3639 C.3     1  UNL1        0.0773
      2 C          48.5410   10.5233  -19.8359 C.3     1  UNL1        0.0292
      3 C          48.0997   11.8139  -19.1313 C.3     1  UNL1        0.0826
      4 C          46.5970   12.0994  -19.3583 C.3     1  UNL1        0.0309
      5 C          46.0423   11.4796  -20.6546 C.3     1  UNL1        0.0954
      6 N          47.0880   11.3567  -21.6817 N.am    1  UNL1       -0.2658
      7 C          46.8722   11.8743  -23.0100 C.2     1  UNL1        0.3039
      8 O          47.8542   12.2850  -23.6875 O.2     1  UNL1       -0.2526
      9 N          45.5567   11.9017  -23.5812 N.am    1  UNL1       -0.2901
     10 H          44.7901   11.3473  -23.1386 H       1  UNL1        0.1509
     11 C          48.4166   11.7560  -17.6640 C.ar    1  UNL1        0.2359
     12 N          49.4494   12.3994  -17.0845 N.ar    1  UNL1       -0.1949
     13 C          49.3048   12.0220  -15.7963 C.ar    1  UNL1        0.1800
     14 N          48.2532   11.2002  -15.6122 N.ar    1  UNL1       -0.0606
     15 O          47.7306   11.0594  -16.7917 O.2     1  UNL1       -0.3374
     16 C          50.2166   12.4640  -14.6871 C.3     1  UNL1        0.0621
     17 C          49.6331   13.6856  -13.9713 C.3     1  UNL1        0.0081
     18 C          51.6148   12.7652  -15.2338 C.3     1  UNL1        0.0081
     19 C          45.3066   12.5210  -24.8784 C.3     1  UNL1        0.0774
     20 C          45.9315   13.9052  -25.0220 C.3     1  UNL1        0.0259
     21 C          46.5735   12.7018  -25.7067 C.3     1  UNL1        0.0420
     22 C          46.4302   12.6138  -27.2157 C.ar    1  UNL1       -0.0208
     23 C          46.6115   11.3569  -27.8181 C.ar    1  UNL1       -0.0042
     24 C          46.4900   11.2046  -29.2025 C.ar    1  UNL1       -0.0003
     25 C          46.1853   12.3058  -30.0041 C.ar    1  UNL1       -0.0000
     26 C          46.0016   13.5615  -29.4229 C.ar    1  UNL1       -0.0003
     27 C          46.1216   13.7203  -28.0387 C.ar    1  UNL1       -0.0042
     28 C          49.7088    9.0542  -22.8181 C.3     1  UNL1        0.0018
     29 C          48.3961    9.2966  -22.0728 C.3     1  UNL1        0.0199
@<TRIPOS>BOND
     1    28    29    1
     2    29     1    1
     3     1     2    1
     4     2     3    1
     5     3    11    1
     6    11    12   ar
     7    12    13   ar
     8    13    16    1
     9    16    17    1
    10    16    18    1
    11    13    14   ar
    12    14    15   ar
    13     3     4    1
    14     4     5    1
    15     5     6    1
    16     6     7   am
    17     7     8    2
    18     7     9   am
    19     9    19    1
    20    19    20    1
    21    20    21    1
    22    21    22    1
    23    22    23   ar
    24    23    24   ar
    25    24    25   ar
    26    25    26   ar
    27    26    27   ar
    28     6     1    1
    29    21    19    1
    30    27    22   ar
    31    15    11   ar
    32     9    10    1
@<TRIPOS>MOLECULE
*****
 29 32 0 0 0
SMALL
GASTEIGER

@<TRIPOS>ATOM
      1 C          48.6561   10.5869  -21.0314 C.3     1  UNL1        0.0773
      2 C          48.7668   10.4618  -19.4945 C.3     1  UNL1        0.0292
      3 C          48.3234   11.7724  -18.8294 C.3     1  UNL1        0.0826
      4 C          46.8399   12.0883  -19.1304 C.3     1  UNL1        0.0309
      5 C          46.3317   11.4617  -20.4425 C.3     1  UNL1        0.0954
      6 N          47.4208   11.2998  -21.4177 N.am    1  UNL1       -0.2658
      7 C          47.2789   11.8020  -22.7618 C.2     1  UNL1        0.3039
      8 O          48.3006   12.1802  -23.3983 O.2     1  UNL1       -0.2526
      9 N          45.9923   11.8504  -23.3942 N.am    1  UNL1       -0.2901
     10 H          45.1934   11.3202  -22.9801 H       1  UNL1        0.1509
     11 C          48.5705   11.7296  -17.3483 C.ar    1  UNL1        0.2359
     12 N          49.5626   12.3953  -16.7246 N.ar    1  UNL1       -0.1949
     13 C          49.3631   12.0234  -15.4422 C.ar    1  UNL1        0.1800
     14 N          48.3186   11.1839  -15.3027 N.ar    1  UNL1       -0.0606
     15 O          47.8559   11.0262  -16.5049 O.2     1  UNL1       -0.3374
     16 C          50.2125   12.4889  -14.2937 C.3     1  UNL1        0.0621
     17 C          49.5361   13.6553  -13.5680 C.3     1  UNL1        0.0081
     18 C          51.6066   12.8852  -14.7876 C.3     1  UNL1        0.0081
     19 C          45.8172   12.4556  -24.7101 C.3     1  UNL1        0.0774
     20 C          44.4129   13.0031  -24.9457 C.3     1  UNL1        0.0259
     21 C          45.5656   13.9577  -24.6468 C.3     1  UNL1        0.0420
     22 C          46.0820   14.7937  -25.8043 C.ar    1  UNL1       -0.0208
     23 C          47.4742   14.9178  -25.9520 C.ar    1  UNL1       -0.0042
     24 C          48.0167   15.6697  -26.9983 C.ar    1  UNL1       -0.0003
     25 C          47.1759   16.3076  -27.9117 C.ar    1  UNL1       -0.0000
     26 C          45.7909   16.1950  -27.7804 C.ar    1  UNL1       -0.0003
     27 C          45.2420   15.4443  -26.7361 C.ar    1  UNL1       -0.0042
     28 C          49.8522    9.0721  -22.7115 C.3     1  UNL1        0.0018
     29 C          48.6975    9.2050  -21.7184 C.3     1  UNL1        0.0199
@<TRIPOS>BOND
     1    28    29    1
     2    29     1    1
     3     1     2    1
     4     2     3    1
     5     3    11    1
     6    11    12   ar
     7    12    13   ar
     8    13    16    1
     9    16    17    1
    10    16    18    1
    11    13    14   ar
    12    14    15   ar
    13     3     4    1
    14     4     5    1
    15     5     6    1
    16     6     7   am
    17     7     8    2
    18     7     9   am
    19     9    19    1
    20    19    20    1
    21    20    21    1
    22    21    22    1
    23    22    23   ar
    24    23    24   ar
    25    24    25   ar
    26    25    26   ar
    27    26    27   ar
    28     6     1    1
    29    21    19    1
    30    27    22   ar
    31    15    11   ar
    32     9    10    1
@<TRIPOS>MOLECULE
*****
 29 32 0 0 0
SMALL
GASTEIGER

@<TRIPOS>ATOM
      1 C          48.3019   13.6154  -21.6791 C.3     1  UNL1        0.0773
      2 C          48.7657   13.1983  -20.2647 C.3     1  UNL1        0.0292
      3 C          47.7765   12.1884  -19.6661 C.3     1  UNL1        0.0826
      4 C          47.7175   10.8883  -20.5012 C.3     1  UNL1        0.0309
      5 C          48.1037   11.0884  -21.9788 C.3     1  UNL1        0.0954
      6 N          47.7939   12.4519  -22.4352 N.am    1  UNL1       -0.2658
      7 C          47.0256   12.6635  -23.6367 C.2     1  UNL1        0.3039
      8 O          46.2993   13.6900  -23.7410 O.2     1  UNL1       -0.2526
      9 N          47.0991   11.7342  -24.7269 N.am    1  UNL1       -0.2901
     10 H          47.8692   11.0291  -24.7531 H       1  UNL1        0.1509
     11 C          48.1202   11.8886  -18.2349 C.ar    1  UNL1        0.2359
     12 N          49.1897   12.3941  -17.5891 N.ar    1  UNL1       -0.1949
     13 C          49.0559   11.8242  -16.3725 C.ar    1  UNL1        0.1800
     14 N          47.9757   11.0231  -16.2917 N.ar    1  UNL1       -0.0606
     15 O          47.4242   11.0892  -17.4646 O.2     1  UNL1       -0.3374
     16 C          50.0070   12.0520  -15.2321 C.3     1  UNL1        0.0621
     17 C          49.4108   13.0447  -14.2300 C.3     1  UNL1        0.0081
     18 C          51.3585   12.5464  -15.7551 C.3     1  UNL1        0.0081
     19 C          46.2469   11.8766  -25.9026 C.3     1  UNL1        0.0774
     20 C          45.7173   13.2933  -26.1019 C.3     1  UNL1        0.0259
     21 C          46.8556   12.7728  -26.9751 C.3     1  UNL1        0.0420
     22 C          46.5190   12.4475  -28.4194 C.ar    1  UNL1       -0.0208
     23 C          46.7247   11.1281  -28.8582 C.ar    1  UNL1       -0.0042
     24 C          46.4317   10.7598  -30.1746 C.ar    1  UNL1       -0.0003
     25 C          45.9289   11.7044  -31.0707 C.ar    1  UNL1       -0.0000
     26 C          45.7181   13.0192  -30.6522 C.ar    1  UNL1       -0.0003
     27 C          46.0090   13.3938  -29.3367 C.ar    1  UNL1       -0.0042
     28 C          50.8097   14.1029  -21.8248 C.3     1  UNL1        0.0018
     29 C          49.4381   14.2968  -22.4716 C.3     1  UNL1        0.0199
@<TRIPOS>BOND
     1    28    29    1
     2    29     1    1
     3     1     2    1
     4     2     3    1
     5     3    11    1
     6    11    12   ar
     7    12    13   ar
     8    13    16    1
     9    16    17    1
    10    16    18    1
    11    13    14   ar
    12    14    15   ar
    13     3     4    1
    14     4     5    1
    15     5     6    1
    16     6     7   am
    17     7     8    2
    18     7     9   am
    19     9    19    1
    20    19    20    1
    21    20    21    1
    22    21    22    1
    23    22    23   ar
    24    23    24   ar
    25    24    25   ar
    26    25    26   ar
    27    26    27   ar
    28     6     1    1
    29    21    19    1
    30    27    22   ar
    31    15    11   ar
    32     9    10    1
@<TRIPOS>MOLECULE
*****
 29 32 0 0 0
SMALL
GASTEIGER

@<TRIPOS>ATOM
      1 C          50.3187   10.4320  -25.8879 C.3     1  UNL1        0.0773
      2 C          51.1745    9.3887  -26.6420 C.3     1  UNL1        0.0292
      3 C          51.7320   10.0039  -27.9333 C.3     1  UNL1        0.0826
      4 C          52.6701   11.1965  -27.6351 C.3     1  UNL1        0.0309
      5 C          52.3712   11.8938  -26.2947 C.3     1  UNL1        0.0954
      6 N          50.9526   11.7662  -25.9273 N.am    1  UNL1       -0.2658
      7 C          50.1823   12.9316  -25.5707 C.2     1  UNL1        0.3039
      8 O          48.9419   12.9547  -25.8005 O.2     1  UNL1       -0.2526
      9 N          50.8052   14.0547  -24.9318 N.am    1  UNL1       -0.2901
     10 H          51.7590   13.9502  -24.5193 H       1  UNL1        0.1509
     11 C          52.4353    8.9649  -28.7593 C.ar    1  UNL1        0.2359
     12 N          53.7701    8.7788  -28.7693 N.ar    1  UNL1       -0.1949
     13 C          53.8879    7.7671  -29.6555 C.ar    1  UNL1        0.1800
     14 N          52.6992    7.3711  -30.1508 N.ar    1  UNL1       -0.0606
     15 O          51.8260    8.1373  -29.5722 O.2     1  UNL1       -0.3374
     16 C          55.1990    7.1501  -30.0523 C.3     1  UNL1        0.0621
     17 C          56.3256    8.1828  -29.9564 C.3     1  UNL1        0.0081
     18 C          55.1085    6.5674  -31.4653 C.3     1  UNL1        0.0081
     19 C          50.0629   15.2819  -24.6641 C.3     1  UNL1        0.0774
     20 C          50.8031   16.2531  -23.7498 C.3     1  UNL1        0.0259
     21 C          50.7291   16.5214  -25.2503 C.3     1  UNL1        0.0420
     22 C          49.8163   17.6476  -25.7019 C.ar    1  UNL1       -0.0208
     23 C          50.1761   18.3569  -26.8608 C.ar    1  UNL1       -0.0042
     24 C          49.3783   19.4029  -27.3340 C.ar    1  UNL1       -0.0003
     25 C          48.2099   19.7544  -26.6563 C.ar    1  UNL1       -0.0000
     26 C          47.8370   19.0606  -25.5039 C.ar    1  UNL1       -0.0003
     27 C          48.6306   18.0133  -25.0256 C.ar    1  UNL1       -0.0042
     28 C          50.7156    8.6699  -24.0753 C.3     1  UNL1        0.0018
     29 C          50.0742   10.0137  -24.4221 C.3     1  UNL1        0.0199
@<TRIPOS>BOND
     1    28    29    1
     2    29     1    1
     3     1     2    1
     4     2     3    1
     5     3    11    1
     6    11    12   ar
     7    12    13   ar
     8    13    16    1
     9    16    17    1
    10    16    18    1
    11    13    14   ar
    12    14    15   ar
    13     3     4    1
    14     4     5    1
    15     5     6    1
    16     6     7   am
    17     7     8    2
    18     7     9   am
    19     9    19    1
    20    19    20    1
    21    20    21    1
    22    21    22    1
    23    22    23   ar
    24    23    24   ar
    25    24    25   ar
    26    25    26   ar
    27    26    27   ar
    28     6     1    1
    29    21    19    1
    30    27    22   ar
    31    15    11   ar
    32     9    10    1
@<TRIPOS>MOLECULE
*****
 29 32 0 0 0
SMALL
GASTEIGER

@<TRIPOS>ATOM
      1 C          49.7740   11.0713  -21.0245 C.3     1  UNL1        0.0773
      2 C          49.3838   10.7519  -19.5632 C.3     1  UNL1        0.0292
      3 C          49.1339   12.0552  -18.7914 C.3     1  UNL1        0.0826
      4 C          47.9506   12.8511  -19.3894 C.3     1  UNL1        0.0309
      5 C          47.7068   12.5618  -20.8824 C.3     1  UNL1        0.0954
      6 N          48.9507   12.1731  -21.5645 N.am    1  UNL1       -0.2658
      7 C          49.3569   12.8371  -22.7781 C.2     1  UNL1        0.3039
      8 O          50.5840   12.9425  -23.0518 O.2     1  UNL1       -0.2526
      9 N          48.3804   13.3549  -23.6924 N.am    1  UNL1       -0.2901
     10 H          47.3823   13.0604  -23.6030 H       1  UNL1        0.1509
     11 C          48.9073   11.7767  -17.3328 C.ar    1  UNL1        0.2359
     12 N          49.6836   12.2532  -16.3395 N.ar    1  UNL1       -0.1949
     13 C          49.0809   11.7194  -15.2556 C.ar    1  UNL1        0.1800
     14 N          48.0111   10.9659  -15.5763 N.ar    1  UNL1       -0.0606
     15 O          47.9380   11.0259  -16.8707 O.2     1  UNL1       -0.3374
     16 C          49.5506   11.9357  -13.8451 C.3     1  UNL1        0.0621
     17 C          50.2955   13.2686  -13.7289 C.3     1  UNL1        0.0081
     18 C          50.4368   10.7715  -13.3935 C.3     1  UNL1        0.0081
     19 C          48.7755   14.1234  -24.8680 C.3     1  UNL1        0.0774
     20 C          47.6123   14.4528  -25.7984 C.3     1  UNL1        0.0259
     21 C          48.1895   15.5306  -24.8849 C.3     1  UNL1        0.0420
     22 C          49.0203   16.6167  -25.5448 C.ar    1  UNL1       -0.0208
     23 C          48.3618   17.7922  -25.9449 C.ar    1  UNL1       -0.0042
     24 C          49.0677   18.8334  -26.5548 C.ar    1  UNL1       -0.0003
     25 C          50.4411   18.7148  -26.7732 C.ar    1  UNL1       -0.0000
     26 C          51.1114   17.5546  -26.3820 C.ar    1  UNL1       -0.0003
     27 C          50.4111   16.5096  -25.7713 C.ar    1  UNL1       -0.0042
     28 C          48.4703    8.9305  -21.5395 C.3     1  UNL1        0.0018
     29 C          49.6431    9.8292  -21.9320 C.3     1  UNL1        0.0199
@<TRIPOS>BOND
     1    28    29    1
     2    29     1    1
     3     1     2    1
     4     2     3    1
     5     3    11    1
     6    11    12   ar
     7    12    13   ar
     8    13    16    1
     9    16    17    1
    10    16    18    1
    11    13    14   ar
    12    14    15   ar
    13     3     4    1
    14     4     5    1
    15     5     6    1
    16     6     7   am
    17     7     8    2
    18     7     9   am
    19     9    19    1
    20    19    20    1
    21    20    21    1
    22    21    22    1
    23    22    23   ar
    24    23    24   ar
    25    24    25   ar
    26    25    26   ar
    27    26    27   ar
    28     6     1    1
    29    21    19    1
    30    27    22   ar
    31    15    11   ar
    32     9    10    1
@<TRIPOS>MOLECULE
*****
 29 32 0 0 0
SMALL
GASTEIGER

@<TRIPOS>ATOM
      1 C          50.4037   11.6842  -25.0539 C.3     1  UNL1        0.0773
      2 C          50.2754   11.5592  -23.5184 C.3     1  UNL1        0.0292
      3 C          49.8404   10.1354  -23.1438 C.3     1  UNL1        0.0826
      4 C          50.8932    9.0881  -23.5751 C.3     1  UNL1        0.0309
      5 C          51.7604    9.5416  -24.7645 C.3     1  UNL1        0.0954
      6 N          51.0326   10.4792  -25.6334 N.am    1  UNL1       -0.2658
      7 C          50.9569   10.2498  -27.0548 C.2     1  UNL1        0.3039
      8 O          49.9511   10.6546  -27.7001 O.2     1  UNL1       -0.2526
      9 N          52.0254    9.5909  -27.7489 N.am    1  UNL1       -0.2901
     10 H          52.9521    9.4769  -27.2807 H       1  UNL1        0.1509
     11 C          49.5576   10.0335  -21.6721 C.ar    1  UNL1        0.2359
     12 N          48.8716   10.9535  -20.9654 N.ar    1  UNL1       -0.1949
     13 C          48.9066   10.4144  -19.7281 C.ar    1  UNL1        0.1800
     14 N          49.5746    9.2450  -19.6912 N.ar    1  UNL1       -0.0606
     15 O          49.9624    9.0449  -20.9135 O.2     1  UNL1       -0.3374
     16 C          48.2749   11.0474  -18.5209 C.3     1  UNL1        0.0621
     17 C          47.1099   11.9491  -18.9390 C.3     1  UNL1        0.0081
     18 C          49.3185   11.8348  -17.7238 C.3     1  UNL1        0.0081
     19 C          51.9160    9.2551  -29.1645 C.3     1  UNL1        0.0774
     20 C          53.1721    8.6029  -29.7336 C.3     1  UNL1        0.0259
     21 C          51.9426    7.7532  -29.4246 C.3     1  UNL1        0.0420
     22 C          51.1446    7.2438  -30.6116 C.ar    1  UNL1       -0.0208
     23 C          49.7424    7.2723  -30.5182 C.ar    1  UNL1       -0.0042
     24 C          48.9473    6.8219  -31.5762 C.ar    1  UNL1       -0.0003
     25 C          49.5420    6.3371  -32.7421 C.ar    1  UNL1       -0.0000
     26 C          50.9330    6.3018  -32.8524 C.ar    1  UNL1       -0.0003
     27 C          51.7338    6.7510  -31.7977 C.ar    1  UNL1       -0.0042
     28 C          50.4996   14.2411  -25.0885 C.3     1  UNL1        0.0018
     29 C          51.2095   12.9381  -25.4564 C.3     1  UNL1        0.0199
@<TRIPOS>BOND
     1    28    29    1
     2    29     1    1
     3     1     2    1
     4     2     3    1
     5     3    11    1
     6    11    12   ar
     7    12    13   ar
     8    13    16    1
     9    16    17    1
    10    16    18    1
    11    13    14   ar
    12    14    15   ar
    13     3     4    1
    14     4     5    1
    15     5     6    1
    16     6     7   am
    17     7     8    2
    18     7     9   am
    19     9    19    1
    20    19    20    1
    21    20    21    1
    22    21    22    1
    23    22    23   ar
    24    23    24   ar
    25    24    25   ar
    26    25    26   ar
    27    26    27   ar
    28     6     1    1
    29    21    19    1
    30    27    22   ar
    31    15    11   ar
    32     9    10    1
@<TRIPOS>MOLECULE
*****
 29 32 0 0 0
SMALL
GASTEIGER

@<TRIPOS>ATOM
      1 C          50.3043   10.6002  -25.7745 C.3     1  UNL1        0.0773
      2 C          51.0805    9.5758  -26.6334 C.3     1  UNL1        0.0292
      3 C          51.6908   10.2741  -27.8568 C.3     1  UNL1        0.0826
      4 C          52.7170   11.3536  -27.4410 C.3     1  UNL1        0.0309
      5 C          52.4661   11.9318  -26.0356 C.3     1  UNL1        0.0954
      6 N          51.0400   11.8781  -25.6793 N.am    1  UNL1       -0.2658
      7 C          50.3607   13.0574  -25.2036 C.2     1  UNL1        0.3039
      8 O          49.1270   13.2002  -25.4264 O.2     1  UNL1       -0.2526
      9 N          51.0656   14.0578  -24.4552 N.am    1  UNL1       -0.2901
     10 H          52.0063   13.8379  -24.0581 H       1  UNL1        0.1509
     11 C          52.3156    9.2732  -28.7864 C.ar    1  UNL1        0.2359
     12 N          51.6222    8.4930  -29.6390 N.ar    1  UNL1       -0.1949
     13 C          52.6168    7.7863  -30.2169 C.ar    1  UNL1        0.1800
     14 N          53.8325    8.1175  -29.7398 N.ar    1  UNL1       -0.0606
     15 O          53.6030    9.0398  -28.8561 O.2     1  UNL1       -0.3374
     16 C          52.3968    6.7412  -31.2735 C.3     1  UNL1        0.0621
     17 C          53.6111    6.6576  -32.2027 C.3     1  UNL1        0.0081
     18 C          51.1211    7.0429  -32.0648 C.3     1  UNL1        0.0081
     19 C          50.4194   15.3053  -24.0617 C.3     1  UNL1        0.0774
     20 C          51.3927   16.4682  -23.8955 C.3     1  UNL1        0.0259
     21 C          50.5051   16.3851  -25.1343 C.3     1  UNL1        0.0420
     22 C          49.3507   17.3678  -25.2185 C.ar    1  UNL1       -0.0208
     23 C          49.5582   18.5617  -25.9305 C.ar    1  UNL1       -0.0042
     24 C          48.5363   19.5081  -26.0504 C.ar    1  UNL1       -0.0003
     25 C          47.2929   19.2747  -25.4609 C.ar    1  UNL1       -0.0000
     26 C          47.0689   18.0943  -24.7503 C.ar    1  UNL1       -0.0003
     27 C          48.0870   17.1436  -24.6269 C.ar    1  UNL1       -0.0042
     28 C          50.6530    8.6848  -24.1138 C.3     1  UNL1        0.0018
     29 C          50.0204   10.0549  -24.3583 C.3     1  UNL1        0.0199
@<TRIPOS>BOND
     1    28    29    1
     2    29     1    1
     3     1     2    1
     4     2     3    1
     5     3    11    1
     6    11    12   ar
     7    12    13   ar
     8    13    16    1
     9    16    17    1
    10    16    18    1
    11    13    14   ar
    12    14    15   ar
    13     3     4    1
    14     4     5    1
    15     5     6    1
    16     6     7   am
    17     7     8    2
    18     7     9   am
    19     9    19    1
    20    19    20    1
    21    20    21    1
    22    21    22    1
    23    22    23   ar
    24    23    24   ar
    25    24    25   ar
    26    25    26   ar
    27    26    27   ar
    28     6     1    1
    29    21    19    1
    30    27    22   ar
    31    15    11   ar
    32     9    10    1
@<TRIPOS>MOLECULE
*****
 29 32 0 0 0
SMALL
GASTEIGER

@<TRIPOS>ATOM
      1 C          48.2268   10.3751  -20.4734 C.3     1  UNL1        0.0773
      2 C          48.0595   11.0389  -19.0873 C.3     1  UNL1        0.0292
      3 C          49.3997   11.0324  -18.3387 C.3     1  UNL1        0.0826
      4 C          50.4714   11.8595  -19.0861 C.3     1  UNL1        0.0309
      5 C          50.2234   11.9600  -20.6030 C.3     1  UNL1        0.0954
      6 N          49.4970   10.7847  -21.1076 N.am    1  UNL1       -0.2658
      7 C          49.9975   10.0473  -22.2410 C.2     1  UNL1        0.3039
      8 O          49.7608    8.8117  -22.3361 O.2     1  UNL1       -0.2526
      9 N          50.7382   10.7083  -23.2764 N.am    1  UNL1       -0.2901
     10 H          50.7266   11.7511  -23.3340 H       1  UNL1        0.1509
     11 C          49.2275   11.5288  -16.9315 C.ar    1  UNL1        0.2359
     12 N          50.2136   12.0762  -16.1936 N.ar    1  UNL1       -0.1949
     13 C          49.5649   12.3343  -15.0379 C.ar    1  UNL1        0.1800
     14 N          48.2705   11.9626  -15.0762 N.ar    1  UNL1       -0.0606
     15 O          48.1016   11.4679  -16.2642 O.2     1  UNL1       -0.3374
     16 C          50.2124   12.9630  -13.8369 C.3     1  UNL1        0.0621
     17 C          49.4361   14.2098  -13.4035 C.3     1  UNL1        0.0081
     18 C          51.6746   13.3044  -14.1365 C.3     1  UNL1        0.0081
     19 C          51.3432    9.9585  -24.3720 C.3     1  UNL1        0.0774
     20 C          50.4939    8.7834  -24.8466 C.3     1  UNL1        0.0259
     21 C          50.5562   10.0649  -25.6732 C.3     1  UNL1        0.0420
     22 C          51.3496   10.0093  -26.9666 C.ar    1  UNL1       -0.0208
     23 C          52.3308   10.9937  -27.1752 C.ar    1  UNL1       -0.0042
     24 C          53.1001   10.9987  -28.3425 C.ar    1  UNL1       -0.0003
     25 C          52.8999   10.0200  -29.3173 C.ar    1  UNL1       -0.0000
     26 C          51.9300    9.0345  -29.1267 C.ar    1  UNL1       -0.0003
     27 C          51.1574    9.0240  -27.9612 C.ar    1  UNL1       -0.0042
     28 C          46.5359   12.1392  -21.2329 C.3     1  UNL1        0.0018
     29 C          47.0451   10.7085  -21.4093 C.3     1  UNL1        0.0199
@<TRIPOS>BOND
     1    28    29    1
     2    29     1    1
     3     1     2    1
     4     2     3    1
     5     3    11    1
     6    11    12   ar
     7    12    13   ar
     8    13    16    1
     9    16    17    1
    10    16    18    1
    11    13    14   ar
    12    14    15   ar
    13     3     4    1
    14     4     5    1
    15     5     6    1
    16     6     7   am
    17     7     8    2
    18     7     9   am
    19     9    19    1
    20    19    20    1
    21    20    21    1
    22    21    22    1
    23    22    23   ar
    24    23    24   ar
    25    24    25   ar
    26    25    26   ar
    27    26    27   ar
    28     6     1    1
    29    21    19    1
    30    27    22   ar
    31    15    11   ar
    32     9    10    1
