@<TRIPOS>MOLECULE
*****
 49 54 0 0 0
SMALL
GASTEIGER

@<TRIPOS>ATOM
      1 O          14.0350   83.5289   25.8300 O.2     1  UNL1       -0.2701
      2 C          13.4871   82.9870   24.8311 C.2     1  UNL1        0.2483
      3 N          13.6818   83.5423   23.5215 N.am    1  UNL1       -0.2945
      4 H          13.4590   82.9500   22.6900 H       1  UNL1        0.1501
      5 C          12.6770   81.7637   25.0219 C.ar    1  UNL1        0.0808
      6 C          11.2875   81.8701   25.1926 C.ar    1  UNL1        0.0080
      7 C          10.5050   80.7282   25.3818 C.ar    1  UNL1        0.0148
      8 C          11.0942   79.4527   25.3974 C.ar    1  UNL1        0.0502
      9 C          12.4826   79.3454   25.2038 C.ar    1  UNL1        0.0443
     10 C          13.2680   80.4864   25.0145 C.ar    1  UNL1        0.1457
     11 F          14.5931   80.3317   24.7695 F       1  UNL1       -0.2040
     12 N          10.2843   78.2722   25.5886 N.pl3   1  UNL1       -0.3040
     13 C          10.9146   76.9965   25.9669 C.3     1  UNL1        0.1122
     14 C           9.9928   76.1812   26.8853 C.3     1  UNL1        0.1122
     15 N           8.6010   76.1874   26.4106 N.pl3   1  UNL1       -0.3041
     16 C           8.2554   76.9056   25.1788 C.3     1  UNL1        0.1122
     17 C           8.8569   78.3107   25.2249 C.3     1  UNL1        0.1122
     18 C           7.5759   75.5659   27.2083 C.ar    1  UNL1        0.0479
     19 C           6.3548   75.1891   26.6270 C.ar    1  UNL1        0.0145
     20 C           5.3535   74.5979   27.4022 C.ar    1  UNL1        0.0051
     21 C           5.5608   74.3575   28.7712 C.ar    1  UNL1        0.0715
     22 C           6.7713   74.7643   29.3581 C.ar    1  UNL1        0.0051
     23 C           7.7718   75.3566   28.5822 C.ar    1  UNL1        0.0145
     24 C           4.4626   73.7652   29.6179 C.3     1  UNL1        0.4186
     25 F           3.4764   74.7043   29.8662 F       1  UNL1       -0.1659
     26 F           3.8796   72.6857   28.9769 F       1  UNL1       -0.1659
     27 F           4.9942   73.3412   30.8213 F       1  UNL1       -0.1659
     28 C          14.3417   84.8351   23.3147 C.3     1  UNL1        0.1535
     29 C          14.9063   84.9021   21.9213 C.2     1  UNL1        0.2443
     30 O          16.0599   85.3807   21.7479 O.2     1  UNL1       -0.2730
     31 N          14.1540   84.3908   20.8078 N.am    1  UNL1       -0.2825
     32 H          13.3434   83.7633   21.0112 H       1  UNL1        0.1549
     33 C          14.5106   84.5999   19.4311 C.ar    1  UNL1        0.0535
     34 C          15.4973   83.8233   18.8002 C.ar    1  UNL1        0.0353
     35 C          15.8287   84.0807   17.4675 C.ar    1  UNL1        0.1002
     36 N          15.2105   85.0851   16.7919 N.ar    1  UNL1       -0.2422
     37 C          14.2663   85.8643   17.3826 C.ar    1  UNL1        0.1002
     38 C          13.9064   85.6415   18.7138 C.ar    1  UNL1        0.0353
     39 C          13.3617   85.9990   23.5467 C.3     1  UNL1        0.0569
     40 C          13.6869   87.1682   22.6614 C.ar    1  UNL1       -0.0017
     41 C          14.7189   88.0827   22.8503 C.ar    1  UNL1        0.0681
     42 N          14.6636   89.0575   21.9148 N.ar    1  UNL1       -0.3523
     43 C          13.6009   88.7720   21.1425 C.ar    1  UNL1        0.0563
     44 C          13.1244   89.5069   20.0578 C.ar    1  UNL1        0.0170
     45 C          11.9737   89.0369   19.3993 C.ar    1  UNL1        0.0015
     46 C          11.3314   87.8571   19.8353 C.ar    1  UNL1        0.0001
     47 C          11.8336   87.1361   20.9337 C.ar    1  UNL1        0.0012
     48 C          12.9771   87.6263   21.5672 C.ar    1  UNL1        0.0131
     49 H          15.3074   89.8747   21.8250 H       1  UNL1        0.1660
@<TRIPOS>BOND
     1     1     2    2
     2     2     3   am
     3     3    28    1
     4    28    39    1
     5    39    40    1
     6    40    41   ar
     7    41    42   ar
     8    42    43   ar
     9    43    44   ar
    10    44    45   ar
    11    45    46   ar
    12    46    47   ar
    13    47    48   ar
    14    28    29    1
    15    29    30    2
    16    29    31   am
    17    31    33    1
    18    33    34   ar
    19    34    35   ar
    20    35    36   ar
    21    36    37   ar
    22    37    38   ar
    23     2     5    1
    24     5     6   ar
    25     6     7   ar
    26     7     8   ar
    27     8    12    1
    28    12    13    1
    29    13    14    1
    30    14    15    1
    31    15    18    1
    32    18    19   ar
    33    19    20   ar
    34    20    21   ar
    35    21    24    1
    36    24    25    1
    37    24    26    1
    38    24    27    1
    39    21    22   ar
    40    22    23   ar
    41    15    16    1
    42    16    17    1
    43     8     9   ar
    44     9    10   ar
    45    10    11    1
    46    48    40   ar
    47    38    33   ar
    48    10     5   ar
    49    48    43   ar
    50    17    12    1
    51    23    18   ar
    52     3     4    1
    53    42    49    1
    54    31    32    1
@<TRIPOS>MOLECULE
*****
 49 54 0 0 0
SMALL
GASTEIGER

@<TRIPOS>ATOM
      1 O          13.9819   83.5676   25.8925 O.2     1  UNL1       -0.2701
      2 C          13.5144   83.0151   24.8591 C.2     1  UNL1        0.2483
      3 N          13.8271   83.5461   23.5624 N.am    1  UNL1       -0.2945
      4 H          13.6686   82.9424   22.7243 H       1  UNL1        0.1501
      5 C          12.6759   81.8042   24.9993 C.ar    1  UNL1        0.0808
      6 C          11.2849   81.9346   25.1381 C.ar    1  UNL1        0.0080
      7 C          10.4754   80.8046   25.2794 C.ar    1  UNL1        0.0148
      8 C          11.0388   79.5174   25.2779 C.ar    1  UNL1        0.0502
      9 C          12.4293   79.3866   25.1162 C.ar    1  UNL1        0.0443
     10 C          13.2415   80.5157   24.9748 C.ar    1  UNL1        0.1457
     11 F          14.5692   80.3402   24.7591 F       1  UNL1       -0.2040
     12 N          10.2012   78.3493   25.4195 N.pl3   1  UNL1       -0.3040
     13 C          10.8088   77.0256   25.6350 C.3     1  UNL1        0.1122
     14 C           9.9231   76.1571   26.5400 C.3     1  UNL1        0.1122
     15 N           8.5031   76.2492   26.1689 N.pl3   1  UNL1       -0.3041
     16 C           8.1002   77.0884   25.0349 C.3     1  UNL1        0.1122
     17 C           8.7546   78.4644   25.1642 C.3     1  UNL1        0.1122
     18 C           7.5132   75.5879   26.9788 C.ar    1  UNL1        0.0479
     19 C           6.1867   75.4801   26.5318 C.ar    1  UNL1        0.0145
     20 C           5.2214   74.8503   27.3222 C.ar    1  UNL1        0.0051
     21 C           5.5684   74.3018   28.5686 C.ar    1  UNL1        0.0715
     22 C           6.8893   74.4386   29.0287 C.ar    1  UNL1        0.0051
     23 C           7.8539   75.0697   28.2380 C.ar    1  UNL1        0.0145
     24 C           4.5170   73.6663   29.4431 C.3     1  UNL1        0.4186
     25 F           3.4562   74.5334   29.6407 F       1  UNL1       -0.1659
     26 F           4.0277   72.5112   28.8580 F       1  UNL1       -0.1659
     27 F           5.0742   73.3498   30.6678 F       1  UNL1       -0.1659
     28 C          14.5183   84.8278   23.3923 C.3     1  UNL1        0.1535
     29 C          14.9857   84.9699   21.9689 C.2     1  UNL1        0.2443
     30 O          16.0501   85.6031   21.7318 O.2     1  UNL1       -0.2730
     31 N          14.2474   84.3578   20.8977 N.am    1  UNL1       -0.2825
     32 H          13.5445   83.6247   21.1439 H       1  UNL1        0.1549
     33 C          14.4906   84.6120   19.5040 C.ar    1  UNL1        0.0535
     34 C          15.3523   83.7999   18.7471 C.ar    1  UNL1        0.0353
     35 C          15.5782   84.1017   17.4017 C.ar    1  UNL1        0.1002
     36 N          14.9795   85.1820   16.8344 N.ar    1  UNL1       -0.2422
     37 C          14.1565   85.9956   17.5473 C.ar    1  UNL1        0.1002
     38 C          13.9047   85.7304   18.8955 C.ar    1  UNL1        0.0353
     39 C          13.6008   86.0046   23.7695 C.3     1  UNL1        0.0569
     40 C          14.3820   87.1236   24.3972 C.ar    1  UNL1       -0.0017
     41 C          15.0728   88.1258   23.7223 C.ar    1  UNL1        0.0681
     42 N          15.7386   88.9126   24.5977 N.ar    1  UNL1       -0.3523
     43 C          15.4819   88.4111   25.8182 C.ar    1  UNL1        0.0563
     44 C          15.9707   88.8723   27.0398 C.ar    1  UNL1        0.0170
     45 C          15.5914   88.1797   28.2039 C.ar    1  UNL1        0.0015
     46 C          14.7427   87.0537   28.1221 C.ar    1  UNL1        0.0001
     47 C          14.2653   86.6097   26.8757 C.ar    1  UNL1        0.0012
     48 C          14.6582   87.3169   25.7379 C.ar    1  UNL1        0.0131
     49 H          16.3432   89.7321   24.3666 H       1  UNL1        0.1660
@<TRIPOS>BOND
     1     1     2    2
     2     2     3   am
     3     3    28    1
     4    28    39    1
     5    39    40    1
     6    40    41   ar
     7    41    42   ar
     8    42    43   ar
     9    43    44   ar
    10    44    45   ar
    11    45    46   ar
    12    46    47   ar
    13    47    48   ar
    14    28    29    1
    15    29    30    2
    16    29    31   am
    17    31    33    1
    18    33    34   ar
    19    34    35   ar
    20    35    36   ar
    21    36    37   ar
    22    37    38   ar
    23     2     5    1
    24     5     6   ar
    25     6     7   ar
    26     7     8   ar
    27     8    12    1
    28    12    13    1
    29    13    14    1
    30    14    15    1
    31    15    18    1
    32    18    19   ar
    33    19    20   ar
    34    20    21   ar
    35    21    24    1
    36    24    25    1
    37    24    26    1
    38    24    27    1
    39    21    22   ar
    40    22    23   ar
    41    15    16    1
    42    16    17    1
    43     8     9   ar
    44     9    10   ar
    45    10    11    1
    46    48    40   ar
    47    38    33   ar
    48    10     5   ar
    49    48    43   ar
    50    17    12    1
    51    23    18   ar
    52     3     4    1
    53    42    49    1
    54    31    32    1
@<TRIPOS>MOLECULE
*****
 49 54 0 0 0
SMALL
GASTEIGER

@<TRIPOS>ATOM
      1 O           9.9725   76.3293   26.8138 O.2     1  UNL1       -0.2701
      2 C           8.7787   76.7371   26.8030 C.2     1  UNL1        0.2483
      3 N           8.2777   77.5083   27.9055 N.am    1  UNL1       -0.2945
      4 H           7.4006   78.0600   27.7711 H       1  UNL1        0.1501
      5 C           7.9210   76.4415   25.6342 C.ar    1  UNL1        0.0808
      6 C           8.5059   75.9970   24.4378 C.ar    1  UNL1        0.0080
      7 C           7.7151   75.7194   23.3199 C.ar    1  UNL1        0.0148
      8 C           6.3196   75.8736   23.3759 C.ar    1  UNL1        0.0502
      9 C           5.7325   76.2970   24.5812 C.ar    1  UNL1        0.0443
     10 C           6.5216   76.5756   25.7011 C.ar    1  UNL1        0.1457
     11 F           5.9081   76.9211   26.8605 F       1  UNL1       -0.2040
     12 N           5.5020   75.5823   22.2214 N.pl3   1  UNL1       -0.3040
     13 C           5.6817   74.3182   21.4881 C.3     1  UNL1        0.1122
     14 C           4.3429   73.8128   20.9314 C.3     1  UNL1        0.1122
     15 N           3.5581   74.8969   20.3222 N.pl3   1  UNL1       -0.3041
     16 C           4.1018   76.2592   20.2893 C.3     1  UNL1        0.1122
     17 C           4.6218   76.6316   21.6781 C.3     1  UNL1        0.1122
     18 C           2.2257   74.6284   19.8469 C.ar    1  UNL1        0.0479
     19 C           1.5214   75.6018   19.1205 C.ar    1  UNL1        0.0145
     20 C           0.2231   75.3481   18.6697 C.ar    1  UNL1        0.0051
     21 C          -0.3898   74.1092   18.9232 C.ar    1  UNL1        0.0715
     22 C           0.3043   73.1480   19.6777 C.ar    1  UNL1        0.0051
     23 C           1.6024   73.4030   20.1293 C.ar    1  UNL1        0.0145
     24 C          -1.8083   73.8537   18.4799 C.3     1  UNL1        0.4186
     25 F          -2.1144   74.6089   17.3610 F       1  UNL1       -0.1659
     26 F          -1.9881   72.5184   18.1623 F       1  UNL1       -0.1659
     27 F          -2.6731   74.1937   19.5033 F       1  UNL1       -0.1659
     28 C           9.0432   77.6842   29.1435 C.3     1  UNL1        0.1535
     29 C           8.7521   79.0372   29.7349 C.2     1  UNL1        0.2443
     30 O           7.7952   79.7165   29.2736 O.2     1  UNL1       -0.2730
     31 N           9.5320   79.5307   30.8373 N.am    1  UNL1       -0.2825
     32 H          10.1200   78.8474   31.3660 H       1  UNL1        0.1549
     33 C           9.4714   80.8814   31.3257 C.ar    1  UNL1        0.0535
     34 C           9.9053   81.9664   30.5451 C.ar    1  UNL1        0.0353
     35 C           9.8516   83.2592   31.0723 C.ar    1  UNL1        0.1002
     36 N           9.3965   83.4625   32.3368 N.ar    1  UNL1       -0.2422
     37 C           8.9884   82.4300   33.1210 C.ar    1  UNL1        0.1002
     38 C           9.0269   81.1217   32.6330 C.ar    1  UNL1        0.0353
     39 C           8.7108   76.5779   30.1606 C.3     1  UNL1        0.0569
     40 C           7.2330   76.3130   30.2121 C.ar    1  UNL1       -0.0017
     41 C           6.3032   76.9822   31.0025 C.ar    1  UNL1        0.0681
     42 N           5.0787   76.4248   30.8658 N.ar    1  UNL1       -0.3523
     43 C           5.2286   75.4044   30.0036 C.ar    1  UNL1        0.0563
     44 C           4.2465   74.5149   29.5700 C.ar    1  UNL1        0.0170
     45 C           4.6283   73.4977   28.6766 C.ar    1  UNL1        0.0015
     46 C           5.9680   73.3926   28.2422 C.ar    1  UNL1        0.0001
     47 C           6.9386   74.3034   28.6970 C.ar    1  UNL1        0.0012
     48 C           6.5304   75.3024   29.5828 C.ar    1  UNL1        0.0131
     49 H           4.2007   76.7194   31.3482 H       1  UNL1        0.1660
@<TRIPOS>BOND
     1     1     2    2
     2     2     3   am
     3     3    28    1
     4    28    39    1
     5    39    40    1
     6    40    41   ar
     7    41    42   ar
     8    42    43   ar
     9    43    44   ar
    10    44    45   ar
    11    45    46   ar
    12    46    47   ar
    13    47    48   ar
    14    28    29    1
    15    29    30    2
    16    29    31   am
    17    31    33    1
    18    33    34   ar
    19    34    35   ar
    20    35    36   ar
    21    36    37   ar
    22    37    38   ar
    23     2     5    1
    24     5     6   ar
    25     6     7   ar
    26     7     8   ar
    27     8    12    1
    28    12    13    1
    29    13    14    1
    30    14    15    1
    31    15    18    1
    32    18    19   ar
    33    19    20   ar
    34    20    21   ar
    35    21    24    1
    36    24    25    1
    37    24    26    1
    38    24    27    1
    39    21    22   ar
    40    22    23   ar
    41    15    16    1
    42    16    17    1
    43     8     9   ar
    44     9    10   ar
    45    10    11    1
    46    48    40   ar
    47    38    33   ar
    48    10     5   ar
    49    48    43   ar
    50    17    12    1
    51    23    18   ar
    52     3     4    1
    53    42    49    1
    54    31    32    1
@<TRIPOS>MOLECULE
*****
 49 54 0 0 0
SMALL
GASTEIGER

@<TRIPOS>ATOM
      1 O           6.1444   73.2065   21.9385 O.2     1  UNL1       -0.2701
      2 C           5.7347   74.3271   22.3486 C.2     1  UNL1        0.2483
      3 N           4.6436   74.9769   21.6789 N.am    1  UNL1       -0.2945
      4 H           4.1434   75.7496   22.1734 H       1  UNL1        0.1501
      5 C           6.3656   74.9400   23.5383 C.ar    1  UNL1        0.0808
      6 C           7.3130   74.2116   24.2752 C.ar    1  UNL1        0.0080
      7 C           7.9152   74.7686   25.4062 C.ar    1  UNL1        0.0148
      8 C           7.5884   76.0705   25.8217 C.ar    1  UNL1        0.0502
      9 C           6.6564   76.8076   25.0702 C.ar    1  UNL1        0.0443
     10 C           6.0522   76.2524   23.9382 C.ar    1  UNL1        0.1457
     11 F           5.2062   77.0214   23.2081 F       1  UNL1       -0.2040
     12 N           8.2144   76.6476   26.9883 N.pl3   1  UNL1       -0.3040
     13 C           9.6394   77.0169   26.9563 C.3     1  UNL1        0.1122
     14 C           9.9018   78.2629   27.8143 C.3     1  UNL1        0.1122
     15 N           9.2007   78.1972   29.1053 N.pl3   1  UNL1       -0.3041
     16 C           8.3904   77.0192   29.4343 C.3     1  UNL1        0.1122
     17 C           7.4690   76.6926   28.2585 C.3     1  UNL1        0.1122
     18 C           9.2421   79.3292   29.9943 C.ar    1  UNL1        0.0479
     19 C           8.6293   79.2641   31.2557 C.ar    1  UNL1        0.0145
     20 C           8.6569   80.3662   32.1147 C.ar    1  UNL1        0.0051
     21 C           9.3124   81.5497   31.7344 C.ar    1  UNL1        0.0715
     22 C           9.8977   81.6240   30.4589 C.ar    1  UNL1        0.0051
     23 C           9.8686   80.5216   29.5999 C.ar    1  UNL1        0.0145
     24 C           9.2996   82.7550   32.6404 C.3     1  UNL1        0.4186
     25 F           9.7800   82.4274   33.8966 F       1  UNL1       -0.1659
     26 F          10.0945   83.7635   32.1234 F       1  UNL1       -0.1659
     27 F           8.0035   83.2200   32.7609 F       1  UNL1       -0.1659
     28 C           4.1022   74.4797   20.4103 C.3     1  UNL1        0.1535
     29 C           2.6124   74.6897   20.3747 C.2     1  UNL1        0.2443
     30 O           2.0266   75.1130   21.4079 O.2     1  UNL1       -0.2730
     31 N           1.8737   74.4469   19.1654 N.am    1  UNL1       -0.2825
     32 H           2.4095   74.3681   18.2716 H       1  UNL1        0.1549
     33 C           0.4385   74.4134   19.0914 C.ar    1  UNL1        0.0535
     34 C          -0.3405   75.5438   19.3915 C.ar    1  UNL1        0.0353
     35 C          -1.7337   75.4559   19.3311 C.ar    1  UNL1        0.1002
     36 N          -2.3299   74.2806   18.9986 N.ar    1  UNL1       -0.2422
     37 C          -1.6020   73.1666   18.7220 C.ar    1  UNL1        0.1002
     38 C          -0.2067   73.2108   18.7721 C.ar    1  UNL1        0.0353
     39 C           4.7660   75.1829   19.2129 C.3     1  UNL1        0.0569
     40 C           5.0161   76.6349   19.5055 C.ar    1  UNL1       -0.0017
     41 C           4.1848   77.6986   19.1671 C.ar    1  UNL1        0.0681
     42 N           4.7622   78.8747   19.5018 N.ar    1  UNL1       -0.3523
     43 C           5.9542   78.5639   20.0401 C.ar    1  UNL1        0.0563
     44 C           6.9229   79.4482   20.5128 C.ar    1  UNL1        0.0170
     45 C           8.1183   78.9058   21.0182 C.ar    1  UNL1        0.0015
     46 C           8.3173   77.5077   21.0386 C.ar    1  UNL1        0.0001
     47 C           7.3229   76.6388   20.5539 C.ar    1  UNL1        0.0012
     48 C           6.1471   77.2057   20.0587 C.ar    1  UNL1        0.0131
     49 H           4.3665   79.8296   19.3539 H       1  UNL1        0.1660
@<TRIPOS>BOND
     1     1     2    2
     2     2     3   am
     3     3    28    1
     4    28    39    1
     5    39    40    1
     6    40    41   ar
     7    41    42   ar
     8    42    43   ar
     9    43    44   ar
    10    44    45   ar
    11    45    46   ar
    12    46    47   ar
    13    47    48   ar
    14    28    29    1
    15    29    30    2
    16    29    31   am
    17    31    33    1
    18    33    34   ar
    19    34    35   ar
    20    35    36   ar
    21    36    37   ar
    22    37    38   ar
    23     2     5    1
    24     5     6   ar
    25     6     7   ar
    26     7     8   ar
    27     8    12    1
    28    12    13    1
    29    13    14    1
    30    14    15    1
    31    15    18    1
    32    18    19   ar
    33    19    20   ar
    34    20    21   ar
    35    21    24    1
    36    24    25    1
    37    24    26    1
    38    24    27    1
    39    21    22   ar
    40    22    23   ar
    41    15    16    1
    42    16    17    1
    43     8     9   ar
    44     9    10   ar
    45    10    11    1
    46    48    40   ar
    47    38    33   ar
    48    10     5   ar
    49    48    43   ar
    50    17    12    1
    51    23    18   ar
    52     3     4    1
    53    42    49    1
    54    31    32    1
@<TRIPOS>MOLECULE
*****
 49 54 0 0 0
SMALL
GASTEIGER

@<TRIPOS>ATOM
      1 O           6.5386   73.9009   20.8791 O.2     1  UNL1       -0.2701
      2 C           5.7990   74.5903   21.6336 C.2     1  UNL1        0.2483
      3 N           4.4507   74.8839   21.2372 N.am    1  UNL1       -0.2945
      4 H           3.7763   75.2109   21.9653 H       1  UNL1        0.1501
      5 C           6.3245   75.0586   22.9350 C.ar    1  UNL1        0.0808
      6 C           5.9369   76.3141   23.4297 C.ar    1  UNL1        0.0080
      7 C           6.4272   76.7786   24.6527 C.ar    1  UNL1        0.0148
      8 C           7.3113   75.9942   25.4125 C.ar    1  UNL1        0.0502
      9 C           7.6811   74.7275   24.9272 C.ar    1  UNL1        0.0443
     10 C           7.1922   74.2604   23.7036 C.ar    1  UNL1        0.1457
     11 F           7.5259   73.0078   23.3042 F       1  UNL1       -0.2040
     12 N           7.8144   76.4728   26.6789 N.pl3   1  UNL1       -0.3040
     13 C           9.2628   76.4811   26.9436 C.3     1  UNL1        0.1122
     14 C           9.6517   77.6765   27.8253 C.3     1  UNL1        0.1122
     15 N           8.7117   77.8640   28.9406 N.pl3   1  UNL1       -0.3041
     16 C           7.5824   76.9417   29.1034 C.3     1  UNL1        0.1122
     17 C           6.8645   76.7770   27.7634 C.3     1  UNL1        0.1122
     18 C           8.8565   79.0048   29.8071 C.ar    1  UNL1        0.0479
     19 C           8.0404   79.1432   30.9410 C.ar    1  UNL1        0.0145
     20 C           8.1703   80.2563   31.7760 C.ar    1  UNL1        0.0051
     21 C           9.1306   81.2448   31.5015 C.ar    1  UNL1        0.0715
     22 C           9.9249   81.1207   30.3487 C.ar    1  UNL1        0.0051
     23 C           9.7935   80.0077   29.5134 C.ar    1  UNL1        0.0145
     24 C           9.2372   82.4699   32.3742 C.3     1  UNL1        0.4186
     25 F           7.9879   83.0248   32.5924 F       1  UNL1       -0.1659
     26 F           9.7877   82.1483   33.6028 F       1  UNL1       -0.1659
     27 F          10.0425   83.4044   31.7504 F       1  UNL1       -0.1659
     28 C           3.9495   74.5747   19.8945 C.3     1  UNL1        0.1535
     29 C           2.4981   74.1843   19.9695 C.2     1  UNL1        0.2443
     30 O           2.1221   73.3865   20.8707 O.2     1  UNL1       -0.2730
     31 N           1.5469   74.7449   19.0486 N.am    1  UNL1       -0.2825
     32 H           1.8303   75.5928   18.5074 H       1  UNL1        0.1549
     33 C           0.1947   74.2787   18.9042 C.ar    1  UNL1        0.0535
     34 C          -0.0912   72.9743   18.4666 C.ar    1  UNL1        0.0353
     35 C          -1.4215   72.5744   18.3163 C.ar    1  UNL1        0.1002
     36 N          -2.4305   73.4468   18.5779 N.ar    1  UNL1       -0.2422
     37 C          -2.1830   74.7201   18.9842 C.ar    1  UNL1        0.1002
     38 C          -0.8673   75.1608   19.1458 C.ar    1  UNL1        0.0353
     39 C           4.1278   75.7755   18.9483 C.3     1  UNL1        0.0569
     40 C           4.2225   77.0633   19.7159 C.ar    1  UNL1       -0.0017
     41 C           5.3338   77.8979   19.7908 C.ar    1  UNL1        0.0681
     42 N           5.0990   78.9219   20.6422 N.ar    1  UNL1       -0.3523
     43 C           3.8534   78.7367   21.1124 C.ar    1  UNL1        0.0563
     44 C           3.1764   79.5250   22.0419 C.ar    1  UNL1        0.0170
     45 C           1.8779   79.1335   22.4150 C.ar    1  UNL1        0.0015
     46 C           1.2919   77.9754   21.8581 C.ar    1  UNL1        0.0001
     47 C           1.9987   77.1979   20.9230 C.ar    1  UNL1        0.0012
     48 C           3.2851   77.6111   20.5717 C.ar    1  UNL1        0.0131
     49 H           5.7609   79.6892   20.8942 H       1  UNL1        0.1660
@<TRIPOS>BOND
     1     1     2    2
     2     2     3   am
     3     3    28    1
     4    28    39    1
     5    39    40    1
     6    40    41   ar
     7    41    42   ar
     8    42    43   ar
     9    43    44   ar
    10    44    45   ar
    11    45    46   ar
    12    46    47   ar
    13    47    48   ar
    14    28    29    1
    15    29    30    2
    16    29    31   am
    17    31    33    1
    18    33    34   ar
    19    34    35   ar
    20    35    36   ar
    21    36    37   ar
    22    37    38   ar
    23     2     5    1
    24     5     6   ar
    25     6     7   ar
    26     7     8   ar
    27     8    12    1
    28    12    13    1
    29    13    14    1
    30    14    15    1
    31    15    18    1
    32    18    19   ar
    33    19    20   ar
    34    20    21   ar
    35    21    24    1
    36    24    25    1
    37    24    26    1
    38    24    27    1
    39    21    22   ar
    40    22    23   ar
    41    15    16    1
    42    16    17    1
    43     8     9   ar
    44     9    10   ar
    45    10    11    1
    46    48    40   ar
    47    38    33   ar
    48    10     5   ar
    49    48    43   ar
    50    17    12    1
    51    23    18   ar
    52     3     4    1
    53    42    49    1
    54    31    32    1
@<TRIPOS>MOLECULE
*****
 49 54 0 0 0
SMALL
GASTEIGER

@<TRIPOS>ATOM
      1 O          10.5421   77.9821   25.4836 O.2     1  UNL1       -0.2701
      2 C           9.3690   77.6281   25.7837 C.2     1  UNL1        0.2483
      3 N           8.9300   77.6963   27.1490 N.am    1  UNL1       -0.2945
      4 H           7.9043   77.6646   27.3457 H       1  UNL1        0.1501
      5 C           8.4502   77.1785   24.7147 C.ar    1  UNL1        0.0808
      6 C           7.4534   76.2340   25.0069 C.ar    1  UNL1        0.0080
      7 C           6.5803   75.7903   24.0105 C.ar    1  UNL1        0.0148
      8 C           6.6801   76.2870   22.7000 C.ar    1  UNL1        0.0502
      9 C           7.6639   77.2497   22.4134 C.ar    1  UNL1        0.0443
     10 C           8.5390   77.6952   23.4086 C.ar    1  UNL1        0.1457
     11 F           9.4314   78.6698   23.1026 F       1  UNL1       -0.2040
     12 N           5.7744   75.8314   21.6713 N.pl3   1  UNL1       -0.3040
     13 C           5.8066   74.4282   21.2264 C.3     1  UNL1        0.1122
     14 C           4.4004   73.9411   20.8482 C.3     1  UNL1        0.1122
     15 N           3.6720   74.9369   20.0480 N.pl3   1  UNL1       -0.3041
     16 C           4.3222   76.2039   19.6954 C.3     1  UNL1        0.1122
     17 C           4.9523   76.8164   20.9468 C.3     1  UNL1        0.1122
     18 C           2.2963   74.6971   19.6969 C.ar    1  UNL1        0.0479
     19 C           1.6853   73.4737   20.0149 C.ar    1  UNL1        0.0145
     20 C           0.3541   73.2340   19.6632 C.ar    1  UNL1        0.0051
     21 C          -0.3965   74.2200   19.0006 C.ar    1  UNL1        0.0715
     22 C           0.2259   75.4316   18.6548 C.ar    1  UNL1        0.0051
     23 C           1.5578   75.6702   19.0058 C.ar    1  UNL1        0.0145
     24 C          -1.8171   73.9430   18.5772 C.3     1  UNL1        0.4186
     25 F          -2.1739   74.7461   17.5077 F       1  UNL1       -0.1659
     26 F          -1.9636   72.6213   18.1929 F       1  UNL1       -0.1659
     27 F          -2.6662   74.2008   19.6371 F       1  UNL1       -0.1659
     28 C           9.8545   77.9829   28.2502 C.3     1  UNL1        0.1535
     29 C           9.3634   79.1716   29.0318 C.2     1  UNL1        0.2443
     30 O           8.3585   79.8088   28.6146 O.2     1  UNL1       -0.2730
     31 N          10.0095   79.5509   30.2589 N.am    1  UNL1       -0.2825
     32 H          10.6455   78.8567   30.7125 H       1  UNL1        0.1549
     33 C           9.7531   80.7810   30.9572 C.ar    1  UNL1        0.0535
     34 C           9.0828   80.8002   32.1922 C.ar    1  UNL1        0.0353
     35 C           8.8330   82.0226   32.8211 C.ar    1  UNL1        0.1002
     36 N           9.2231   83.1849   32.2342 N.ar    1  UNL1       -0.2422
     37 C           9.8561   83.1973   31.0314 C.ar    1  UNL1        0.1002
     38 C          10.1241   81.9974   30.3682 C.ar    1  UNL1        0.0353
     39 C          10.0045   76.7635   29.1773 C.3     1  UNL1        0.0569
     40 C           8.7604   75.9217   29.1738 C.ar    1  UNL1       -0.0017
     41 C           8.5183   74.8126   28.3686 C.ar    1  UNL1        0.0681
     42 N           7.2618   74.3523   28.5635 N.ar    1  UNL1       -0.3523
     43 C           6.7053   75.1658   29.4776 C.ar    1  UNL1        0.0563
     44 C           5.4070   75.1052   29.9820 C.ar    1  UNL1        0.0170
     45 C           5.0202   76.0777   30.9218 C.ar    1  UNL1        0.0015
     46 C           5.9288   77.0785   31.3311 C.ar    1  UNL1        0.0001
     47 C           7.2327   77.1163   30.8047 C.ar    1  UNL1        0.0012
     48 C           7.5883   76.1382   29.8741 C.ar    1  UNL1        0.0131
     49 H           6.8128   73.5398   28.0854 H       1  UNL1        0.1660
@<TRIPOS>BOND
     1     1     2    2
     2     2     3   am
     3     3    28    1
     4    28    39    1
     5    39    40    1
     6    40    41   ar
     7    41    42   ar
     8    42    43   ar
     9    43    44   ar
    10    44    45   ar
    11    45    46   ar
    12    46    47   ar
    13    47    48   ar
    14    28    29    1
    15    29    30    2
    16    29    31   am
    17    31    33    1
    18    33    34   ar
    19    34    35   ar
    20    35    36   ar
    21    36    37   ar
    22    37    38   ar
    23     2     5    1
    24     5     6   ar
    25     6     7   ar
    26     7     8   ar
    27     8    12    1
    28    12    13    1
    29    13    14    1
    30    14    15    1
    31    15    18    1
    32    18    19   ar
    33    19    20   ar
    34    20    21   ar
    35    21    24    1
    36    24    25    1
    37    24    26    1
    38    24    27    1
    39    21    22   ar
    40    22    23   ar
    41    15    16    1
    42    16    17    1
    43     8     9   ar
    44     9    10   ar
    45    10    11    1
    46    48    40   ar
    47    38    33   ar
    48    10     5   ar
    49    48    43   ar
    50    17    12    1
    51    23    18   ar
    52     3     4    1
    53    42    49    1
    54    31    32    1
@<TRIPOS>MOLECULE
*****
 49 54 0 0 0
SMALL
GASTEIGER

@<TRIPOS>ATOM
      1 O          10.8334   76.5985   24.6925 O.2     1  UNL1       -0.2701
      2 C           9.7165   77.1849   24.6753 C.2     1  UNL1        0.2483
      3 N           9.5057   78.3433   25.4969 N.am    1  UNL1       -0.2945
      4 H           8.6970   78.9684   25.2802 H       1  UNL1        0.1501
      5 C           8.6489   76.6873   23.7800 C.ar    1  UNL1        0.0808
      6 C           8.9693   76.2837   22.4740 C.ar    1  UNL1        0.0080
      7 C           7.9752   75.8178   21.6098 C.ar    1  UNL1        0.0148
      8 C           6.6384   75.7385   22.0350 C.ar    1  UNL1        0.0502
      9 C           6.3220   76.1215   23.3503 C.ar    1  UNL1        0.0443
     10 C           7.3147   76.5882   24.2170 C.ar    1  UNL1        0.1457
     11 F           6.9749   76.8876   25.4956 F       1  UNL1       -0.2040
     12 N           5.6118   75.2527   21.1428 N.pl3   1  UNL1       -0.3040
     13 C           5.3710   73.8061   21.0106 C.3     1  UNL1        0.1122
     14 C           3.8824   73.5185   20.7680 C.3     1  UNL1        0.1122
     15 N           3.2990   74.4416   19.7831 N.pl3   1  UNL1       -0.3041
     16 C           4.1428   75.4647   19.1556 C.3     1  UNL1        0.1122
     17 C           4.9384   76.1985   20.2356 C.3     1  UNL1        0.1122
     18 C           1.8855   74.3915   19.5131 C.ar    1  UNL1        0.0479
     19 C           1.1917   75.5545   19.1431 C.ar    1  UNL1        0.0145
     20 C          -0.1827   75.5106   18.8935 C.ar    1  UNL1        0.0051
     21 C          -0.8867   74.2985   18.9938 C.ar    1  UNL1        0.0715
     22 C          -0.1969   73.1418   19.3952 C.ar    1  UNL1        0.0051
     23 C           1.1776   73.1868   19.6458 C.ar    1  UNL1        0.0145
     24 C          -2.3779   74.2605   18.7730 C.3     1  UNL1        0.4186
     25 F          -2.8238   75.4576   18.2396 F       1  UNL1       -0.1659
     26 F          -2.7165   73.2442   17.8963 F       1  UNL1       -0.1659
     27 F          -3.0116   74.0423   19.9819 F       1  UNL1       -0.1659
     28 C          10.4790   78.7677   26.5079 C.3     1  UNL1        0.1535
     29 C          11.7691   79.1609   25.8400 C.2     1  UNL1        0.2443
     30 O          11.8857   80.3228   25.3644 O.2     1  UNL1       -0.2730
     31 N          12.8673   78.2348   25.7802 N.am    1  UNL1       -0.2825
     32 H          12.8407   77.4022   26.4112 H       1  UNL1        0.1549
     33 C          14.0490   78.4373   24.9872 C.ar    1  UNL1        0.0535
     34 C          14.8343   79.5952   25.1189 C.ar    1  UNL1        0.0353
     35 C          15.9599   79.7599   24.3077 C.ar    1  UNL1        0.1002
     36 N          16.2833   78.8128   23.3880 N.ar    1  UNL1       -0.2422
     37 C          15.5314   77.6922   23.2259 C.ar    1  UNL1        0.1002
     38 C          14.3972   77.4890   24.0156 C.ar    1  UNL1        0.0353
     39 C           9.9338   79.9413   27.3412 C.3     1  UNL1        0.0569
     40 C           9.4473   79.4749   28.6838 C.ar    1  UNL1       -0.0017
     41 C          10.2076   79.3703   29.8448 C.ar    1  UNL1        0.0681
     42 N           9.4732   78.8302   30.8435 N.ar    1  UNL1       -0.3523
     43 C           8.2590   78.5845   30.3214 C.ar    1  UNL1        0.0563
     44 C           7.1661   78.0042   30.9637 C.ar    1  UNL1        0.0170
     45 C           5.9885   77.8159   30.2178 C.ar    1  UNL1        0.0015
     46 C           5.9304   78.2061   28.8617 C.ar    1  UNL1        0.0001
     47 C           7.0491   78.7883   28.2386 C.ar    1  UNL1        0.0012
     48 C           8.2037   78.9630   29.0039 C.ar    1  UNL1        0.0131
     49 H           9.7938   78.6296   31.8169 H       1  UNL1        0.1660
@<TRIPOS>BOND
     1     1     2    2
     2     2     3   am
     3     3    28    1
     4    28    39    1
     5    39    40    1
     6    40    41   ar
     7    41    42   ar
     8    42    43   ar
     9    43    44   ar
    10    44    45   ar
    11    45    46   ar
    12    46    47   ar
    13    47    48   ar
    14    28    29    1
    15    29    30    2
    16    29    31   am
    17    31    33    1
    18    33    34   ar
    19    34    35   ar
    20    35    36   ar
    21    36    37   ar
    22    37    38   ar
    23     2     5    1
    24     5     6   ar
    25     6     7   ar
    26     7     8   ar
    27     8    12    1
    28    12    13    1
    29    13    14    1
    30    14    15    1
    31    15    18    1
    32    18    19   ar
    33    19    20   ar
    34    20    21   ar
    35    21    24    1
    36    24    25    1
    37    24    26    1
    38    24    27    1
    39    21    22   ar
    40    22    23   ar
    41    15    16    1
    42    16    17    1
    43     8     9   ar
    44     9    10   ar
    45    10    11    1
    46    48    40   ar
    47    38    33   ar
    48    10     5   ar
    49    48    43   ar
    50    17    12    1
    51    23    18   ar
    52     3     4    1
    53    42    49    1
    54    31    32    1
@<TRIPOS>MOLECULE
*****
 49 54 0 0 0
SMALL
GASTEIGER

@<TRIPOS>ATOM
      1 O          11.3476   76.2397   24.2200 O.2     1  UNL1       -0.2701
      2 C          10.1644   76.5224   24.5541 C.2     1  UNL1        0.2483
      3 N           9.9189   77.2401   25.7731 N.am    1  UNL1       -0.2945
      4 H           8.9890   77.6983   25.9041 H       1  UNL1        0.1501
      5 C           9.0469   76.1376   23.6641 C.ar    1  UNL1        0.0808
      6 C           9.1543   76.3534   22.2809 C.ar    1  UNL1        0.0080
      7 C           8.1078   76.0044   21.4235 C.ar    1  UNL1        0.0148
      8 C           6.9323   75.4247   21.9299 C.ar    1  UNL1        0.0502
      9 C           6.8346   75.1882   23.3123 C.ar    1  UNL1        0.0443
     10 C           7.8802   75.5366   24.1725 C.ar    1  UNL1        0.1457
     11 F           7.7684   75.2334   25.4899 F       1  UNL1       -0.2040
     12 N           5.8525   75.0600   21.0427 N.pl3   1  UNL1       -0.3040
     13 C           5.5976   73.6435   20.7316 C.3     1  UNL1        0.1122
     14 C           4.0959   73.3863   20.5409 C.3     1  UNL1        0.1122
     15 N           3.4597   74.4316   19.7254 N.pl3   1  UNL1       -0.3041
     16 C           4.2698   75.5326   19.1924 C.3     1  UNL1        0.1122
     17 C           5.1313   76.1171   20.3124 C.3     1  UNL1        0.1122
     18 C           2.0325   74.4136   19.5352 C.ar    1  UNL1        0.0479
     19 C           1.3541   75.5777   19.1410 C.ar    1  UNL1        0.0145
     20 C          -0.0328   75.5657   18.9687 C.ar    1  UNL1        0.0051
     21 C          -0.7658   74.3841   19.1720 C.ar    1  UNL1        0.0715
     22 C          -0.0894   73.2280   19.5974 C.ar    1  UNL1        0.0051
     23 C           1.2976   73.2412   19.7707 C.ar    1  UNL1        0.0145
     24 C          -2.2675   74.3834   19.0343 C.3     1  UNL1        0.4186
     25 F          -2.6553   73.6692   17.9138 F       1  UNL1       -0.1659
     26 F          -2.8596   73.8030   20.1428 F       1  UNL1       -0.1659
     27 F          -2.7142   75.6861   18.9152 F       1  UNL1       -0.1659
     28 C          10.9797   77.4965   26.7523 C.3     1  UNL1        0.1535
     29 C          12.0951   78.2716   26.1041 C.2     1  UNL1        0.2443
     30 O          11.9565   79.5115   25.9215 O.2     1  UNL1       -0.2730
     31 N          13.3178   77.6121   25.7337 N.am    1  UNL1       -0.2825
     32 H          13.5080   76.6685   26.1406 H       1  UNL1        0.1549
     33 C          14.3441   78.2129   24.9262 C.ar    1  UNL1        0.0535
     34 C          14.8234   79.5076   25.1885 C.ar    1  UNL1        0.0353
     35 C          15.8034   80.0601   24.3599 C.ar    1  UNL1        0.1002
     36 N          16.2782   79.3547   23.2996 N.ar    1  UNL1       -0.2422
     37 C          15.8193   78.1083   23.0111 C.ar    1  UNL1        0.1002
     38 C          14.8388   77.5194   23.8132 C.ar    1  UNL1        0.0353
     39 C          10.4348   78.2669   27.9682 C.3     1  UNL1        0.0569
     40 C           9.1599   77.6539   28.4734 C.ar    1  UNL1       -0.0017
     41 C           7.9545   78.3166   28.6850 C.ar    1  UNL1        0.0681
     42 N           7.0440   77.4787   29.2306 N.ar    1  UNL1       -0.3523
     43 C           7.6661   76.2956   29.3737 C.ar    1  UNL1        0.0563
     44 C           7.1389   75.1256   29.9186 C.ar    1  UNL1        0.0170
     45 C           7.9780   73.9992   29.9951 C.ar    1  UNL1        0.0015
     46 C           9.3105   74.0668   29.5316 C.ar    1  UNL1        0.0001
     47 C           9.8164   75.2611   28.9874 C.ar    1  UNL1        0.0012
     48 C           8.9606   76.3623   28.9241 C.ar    1  UNL1        0.0131
     49 H           6.0629   77.7124   29.5010 H       1  UNL1        0.1660
@<TRIPOS>BOND
     1     1     2    2
     2     2     3   am
     3     3    28    1
     4    28    39    1
     5    39    40    1
     6    40    41   ar
     7    41    42   ar
     8    42    43   ar
     9    43    44   ar
    10    44    45   ar
    11    45    46   ar
    12    46    47   ar
    13    47    48   ar
    14    28    29    1
    15    29    30    2
    16    29    31   am
    17    31    33    1
    18    33    34   ar
    19    34    35   ar
    20    35    36   ar
    21    36    37   ar
    22    37    38   ar
    23     2     5    1
    24     5     6   ar
    25     6     7   ar
    26     7     8   ar
    27     8    12    1
    28    12    13    1
    29    13    14    1
    30    14    15    1
    31    15    18    1
    32    18    19   ar
    33    19    20   ar
    34    20    21   ar
    35    21    24    1
    36    24    25    1
    37    24    26    1
    38    24    27    1
    39    21    22   ar
    40    22    23   ar
    41    15    16    1
    42    16    17    1
    43     8     9   ar
    44     9    10   ar
    45    10    11    1
    46    48    40   ar
    47    38    33   ar
    48    10     5   ar
    49    48    43   ar
    50    17    12    1
    51    23    18   ar
    52     3     4    1
    53    42    49    1
    54    31    32    1
@<TRIPOS>MOLECULE
*****
 49 54 0 0 0
SMALL
GASTEIGER

@<TRIPOS>ATOM
      1 O           8.2238   75.0663   25.1764 O.2     1  UNL1       -0.2701
      2 C           8.3468   75.9204   24.2561 C.2     1  UNL1        0.2483
      3 N           7.5772   75.7874   23.0514 N.am    1  UNL1       -0.2945
      4 H           7.4802   76.6194   22.4266 H       1  UNL1        0.1501
      5 C           9.2607   77.0680   24.4478 C.ar    1  UNL1        0.0808
      6 C           8.8204   78.3656   24.1419 C.ar    1  UNL1        0.0080
      7 C           9.6697   79.4624   24.3084 C.ar    1  UNL1        0.0148
      8 C          10.9772   79.2866   24.7918 C.ar    1  UNL1        0.0502
      9 C          11.4098   77.9896   25.1194 C.ar    1  UNL1        0.0443
     10 C          10.5621   76.8904   24.9535 C.ar    1  UNL1        0.1457
     11 F          10.9995   75.6662   25.3407 F       1  UNL1       -0.2040
     12 N          11.8534   80.4212   24.9681 N.pl3   1  UNL1       -0.3040
     13 C          13.3044   80.2190   25.1149 C.3     1  UNL1        0.1122
     14 C          14.0861   81.3756   24.4755 C.3     1  UNL1        0.1122
     15 N          13.5009   82.6830   24.8082 N.pl3   1  UNL1       -0.3041
     16 C          12.3199   82.7522   25.6760 C.3     1  UNL1        0.1122
     17 C          11.2691   81.7567   25.1830 C.3     1  UNL1        0.1122
     18 C          14.0372   83.8754   24.2048 C.ar    1  UNL1        0.0479
     19 C          14.6419   83.8202   22.9390 C.ar    1  UNL1        0.0145
     20 C          15.1748   84.9738   22.3573 C.ar    1  UNL1        0.0051
     21 C          15.0987   86.2084   23.0243 C.ar    1  UNL1        0.0715
     22 C          14.5217   86.2559   24.3049 C.ar    1  UNL1        0.0051
     23 C          13.9900   85.1014   24.8864 C.ar    1  UNL1        0.0145
     24 C          15.7175   87.4432   22.4190 C.3     1  UNL1        0.4186
     25 F          16.3730   87.1337   21.2397 F       1  UNL1       -0.1659
     26 F          14.7466   88.3890   22.1383 F       1  UNL1       -0.1659
     27 F          16.6258   87.9812   23.3114 F       1  UNL1       -0.1659
     28 C           6.7867   74.5871   22.7615 C.3     1  UNL1        0.1535
     29 C           5.3328   74.9535   22.6316 C.2     1  UNL1        0.2443
     30 O           4.5831   74.2456   21.9057 O.2     1  UNL1       -0.2730
     31 N           4.7988   76.0740   23.3572 N.am    1  UNL1       -0.2825
     32 H           5.3644   76.4611   24.1460 H       1  UNL1        0.1549
     33 C           3.4900   76.6262   23.1369 C.ar    1  UNL1        0.0535
     34 C           2.9171   76.6727   21.8545 C.ar    1  UNL1        0.0353
     35 C           1.6528   77.2428   21.6853 C.ar    1  UNL1        0.1002
     36 N           0.9893   77.7615   22.7522 N.ar    1  UNL1       -0.2422
     37 C           1.5273   77.7473   24.0003 C.ar    1  UNL1        0.1002
     38 C           2.7895   77.1880   24.2130 C.ar    1  UNL1        0.0353
     39 C           7.2777   73.8996   21.4750 C.3     1  UNL1        0.0569
     40 C           8.4221   72.9688   21.7588 C.ar    1  UNL1       -0.0017
     41 C           8.3373   71.5924   21.9470 C.ar    1  UNL1        0.0681
     42 N           9.5475   71.0847   22.2730 N.ar    1  UNL1       -0.3523
     43 C          10.3936   72.1289   22.3011 C.ar    1  UNL1        0.0563
     44 C          11.7518   72.1060   22.6151 C.ar    1  UNL1        0.0170
     45 C          12.4495   73.3274   22.6070 C.ar    1  UNL1        0.0015
     46 C          11.7817   74.5309   22.2901 C.ar    1  UNL1        0.0001
     47 C          10.4101   74.5245   21.9783 C.ar    1  UNL1        0.0012
     48 C           9.7440   73.2976   21.9941 C.ar    1  UNL1        0.0131
     49 H           9.7713   70.0856   22.4781 H       1  UNL1        0.1660
@<TRIPOS>BOND
     1     1     2    2
     2     2     3   am
     3     3    28    1
     4    28    39    1
     5    39    40    1
     6    40    41   ar
     7    41    42   ar
     8    42    43   ar
     9    43    44   ar
    10    44    45   ar
    11    45    46   ar
    12    46    47   ar
    13    47    48   ar
    14    28    29    1
    15    29    30    2
    16    29    31   am
    17    31    33    1
    18    33    34   ar
    19    34    35   ar
    20    35    36   ar
    21    36    37   ar
    22    37    38   ar
    23     2     5    1
    24     5     6   ar
    25     6     7   ar
    26     7     8   ar
    27     8    12    1
    28    12    13    1
    29    13    14    1
    30    14    15    1
    31    15    18    1
    32    18    19   ar
    33    19    20   ar
    34    20    21   ar
    35    21    24    1
    36    24    25    1
    37    24    26    1
    38    24    27    1
    39    21    22   ar
    40    22    23   ar
    41    15    16    1
    42    16    17    1
    43     8     9   ar
    44     9    10   ar
    45    10    11    1
    46    48    40   ar
    47    38    33   ar
    48    10     5   ar
    49    48    43   ar
    50    17    12    1
    51    23    18   ar
    52     3     4    1
    53    42    49    1
    54    31    32    1
