@<TRIPOS>MOLECULE
*****
 27 30 0 0 0
SMALL
GASTEIGER

@<TRIPOS>ATOM
      1 C          50.4230   14.7259  -22.3335 C.3     1  UNL1        0.0826
      2 C          49.3177   14.0665  -21.4635 C.3     1  UNL1        0.0309
      3 C          49.0943   12.5743  -21.7850 C.3     1  UNL1        0.0954
      4 N          49.5073   12.2678  -23.1596 N.am    1  UNL1       -0.2642
      5 C          48.5732   11.7863  -24.1411 C.2     1  UNL1        0.3039
      6 O          48.9583   10.9523  -25.0057 O.2     1  UNL1       -0.2526
      7 N          47.2379   12.3073  -24.1969 N.am    1  UNL1       -0.2901
      8 C          50.8926   12.5454  -23.5646 C.3     1  UNL1        0.0954
      9 C          51.4961   13.6935  -22.7336 C.3     1  UNL1        0.0309
     10 H          46.9267   12.9802  -23.4614 H       1  UNL1        0.1509
     11 C          49.5922   16.6269  -25.2301 C.ar    1  UNL1        0.1800
     12 N          48.4296   15.9706  -25.0404 N.ar    1  UNL1       -0.0606
     13 O          48.6371   15.2197  -24.0012 O.2     1  UNL1       -0.3374
     14 C          49.8580   15.4021  -23.5600 C.ar    1  UNL1        0.2359
     15 N          50.5195   16.3077  -24.3069 N.ar    1  UNL1       -0.1949
     16 C          48.9932   18.9329  -26.0021 C.3     1  UNL1        0.0081
     17 C          49.8152   17.6725  -26.2858 C.3     1  UNL1        0.0621
     18 C          51.3055   18.0015  -26.3986 C.3     1  UNL1        0.0081
     19 C          46.4050   12.1081  -25.3828 C.3     1  UNL1        0.0774
     20 C          45.3897   13.2209  -25.6132 C.3     1  UNL1        0.0259
     21 C          46.6431   13.1404  -26.4816 C.3     1  UNL1        0.0420
     22 C          46.4888   12.6436  -27.9085 C.ar    1  UNL1       -0.0208
     23 C          46.7527   11.2860  -28.1600 C.ar    1  UNL1       -0.0042
     24 C          46.5915   10.7528  -29.4418 C.ar    1  UNL1       -0.0003
     25 C          46.1682   11.5690  -30.4915 C.ar    1  UNL1       -0.0000
     26 C          45.9052   12.9204  -30.2611 C.ar    1  UNL1       -0.0003
     27 C          46.0618   13.4593  -28.9804 C.ar    1  UNL1       -0.0042
@<TRIPOS>BOND
     1    16    17    1
     2    17    18    1
     3    17    11    1
     4    11    12   ar
     5    12    13   ar
     6    13    14   ar
     7    14     1    1
     8     1     2    1
     9     2     3    1
    10     3     4    1
    11     4     5   am
    12     5     6    2
    13     5     7   am
    14     7    19    1
    15    19    20    1
    16    20    21    1
    17    21    22    1
    18    22    23   ar
    19    23    24   ar
    20    24    25   ar
    21    25    26   ar
    22    26    27   ar
    23     4     8    1
    24     8     9    1
    25    14    15   ar
    26    15    11   ar
    27     9     1    1
    28    21    19    1
    29    27    22   ar
    30     7    10    1
@<TRIPOS>MOLECULE
*****
 27 30 0 0 0
SMALL
GASTEIGER

@<TRIPOS>ATOM
      1 C          51.4245   14.1862  -22.6171 C.3     1  UNL1        0.0826
      2 C          50.5289   15.2985  -23.2288 C.3     1  UNL1        0.0309
      3 C          49.0246   15.0927  -22.9553 C.3     1  UNL1        0.0954
      4 N          48.7243   13.6751  -22.7223 N.am    1  UNL1       -0.2642
      5 C          47.8423   12.9364  -23.5849 C.2     1  UNL1        0.3039
      6 O          47.0990   12.0439  -23.0929 O.2     1  UNL1       -0.2526
      7 N          47.8622   13.1466  -25.0038 N.am    1  UNL1       -0.2901
      8 C          49.4134   12.9722  -21.6309 C.3     1  UNL1        0.0954
      9 C          50.7858   13.6079  -21.3384 C.3     1  UNL1        0.0309
     10 H          48.4662   13.9038  -25.3942 H       1  UNL1        0.1509
     11 C          51.6840   11.8136  -25.2624 C.ar    1  UNL1        0.1800
     12 N          52.5722   11.2913  -24.3926 N.ar    1  UNL1       -0.0606
     13 O          52.5693   12.1085  -23.3830 O.2     1  UNL1       -0.3374
     14 C          51.7206   13.0826  -23.6047 C.ar    1  UNL1        0.2359
     15 N          51.1107   12.9403  -24.7976 N.ar    1  UNL1       -0.1949
     16 C          52.5178   10.8967  -27.4388 C.3     1  UNL1        0.0081
     17 C          51.2919   11.1732  -26.5638 C.3     1  UNL1        0.0621
     18 C          50.5001    9.8895  -26.3049 C.3     1  UNL1        0.0081
     19 C          47.2549   12.1753  -25.9135 C.3     1  UNL1        0.0774
     20 C          45.7315   12.1676  -25.8744 C.3     1  UNL1        0.0259
     21 C          46.4609   12.8118  -27.0512 C.3     1  UNL1        0.0420
     22 C          46.4751   12.0652  -28.3737 C.ar    1  UNL1       -0.0208
     23 C          46.0737   12.7660  -29.5243 C.ar    1  UNL1       -0.0042
     24 C          46.1011   12.1527  -30.7798 C.ar    1  UNL1       -0.0003
     25 C          46.5258   10.8292  -30.9034 C.ar    1  UNL1       -0.0000
     26 C          46.9243   10.1165  -29.7712 C.ar    1  UNL1       -0.0003
     27 C          46.9019   10.7254  -28.5126 C.ar    1  UNL1       -0.0042
@<TRIPOS>BOND
     1    16    17    1
     2    17    18    1
     3    17    11    1
     4    11    12   ar
     5    12    13   ar
     6    13    14   ar
     7    14     1    1
     8     1     2    1
     9     2     3    1
    10     3     4    1
    11     4     5   am
    12     5     6    2
    13     5     7   am
    14     7    19    1
    15    19    20    1
    16    20    21    1
    17    21    22    1
    18    22    23   ar
    19    23    24   ar
    20    24    25   ar
    21    25    26   ar
    22    26    27   ar
    23     4     8    1
    24     8     9    1
    25    14    15   ar
    26    15    11   ar
    27     9     1    1
    28    21    19    1
    29    27    22   ar
    30     7    10    1
@<TRIPOS>MOLECULE
*****
 27 30 0 0 0
SMALL
GASTEIGER

@<TRIPOS>ATOM
      1 C          45.5479   13.5101  -25.3933 C.3     1  UNL1        0.0826
      2 C          45.7508   12.1836  -24.6106 C.3     1  UNL1        0.0309
      3 C          47.1657   12.0349  -24.0142 C.3     1  UNL1        0.0954
      4 N          48.1391   12.8299  -24.7719 N.am    1  UNL1       -0.2642
      5 C          49.2437   12.2187  -25.4606 C.2     1  UNL1        0.3039
      6 O          50.3480   12.8252  -25.5209 O.2     1  UNL1       -0.2526
      7 N          49.0763   10.9707  -26.1477 N.am    1  UNL1       -0.2901
      8 C          47.9269   14.2784  -24.9023 C.3     1  UNL1        0.0954
      9 C          46.4304   14.6322  -24.8105 C.3     1  UNL1        0.0309
     10 H          48.1633   10.4696  -26.0703 H       1  UNL1        0.1509
     11 C          46.2992   12.5705  -28.7469 C.ar    1  UNL1        0.1800
     12 N          46.1033   13.8942  -28.9138 N.ar    1  UNL1       -0.0606
     13 O          45.7970   14.3369  -27.7318 O.2     1  UNL1       -0.3374
     14 C          45.8090   13.3475  -26.8719 C.ar    1  UNL1        0.2359
     15 N          46.1372   12.1840  -27.4669 N.ar    1  UNL1       -0.1949
     16 C          46.6186   10.1724  -29.3946 C.3     1  UNL1        0.0081
     17 C          46.7447   11.6338  -29.8340 C.3     1  UNL1        0.0621
     18 C          45.9496   11.8936  -31.1155 C.3     1  UNL1        0.0081
     19 C          50.0569   10.5223  -27.1361 C.3     1  UNL1        0.0774
     20 C          51.2264    9.7525  -26.5342 C.3     1  UNL1        0.0259
     21 C          50.1279    9.0050  -27.2870 C.3     1  UNL1        0.0420
     22 C          50.4458    8.4873  -28.6789 C.ar    1  UNL1       -0.0208
     23 C          49.3905    7.9403  -29.4296 C.ar    1  UNL1       -0.0042
     24 C          49.6037    7.4824  -30.7326 C.ar    1  UNL1       -0.0003
     25 C          50.8749    7.5604  -31.3031 C.ar    1  UNL1       -0.0000
     26 C          51.9354    8.0970  -30.5711 C.ar    1  UNL1       -0.0003
     27 C          51.7281    8.5595  -29.2680 C.ar    1  UNL1       -0.0042
@<TRIPOS>BOND
     1    16    17    1
     2    17    18    1
     3    17    11    1
     4    11    12   ar
     5    12    13   ar
     6    13    14   ar
     7    14     1    1
     8     1     2    1
     9     2     3    1
    10     3     4    1
    11     4     5   am
    12     5     6    2
    13     5     7   am
    14     7    19    1
    15    19    20    1
    16    20    21    1
    17    21    22    1
    18    22    23   ar
    19    23    24   ar
    20    24    25   ar
    21    25    26   ar
    22    26    27   ar
    23     4     8    1
    24     8     9    1
    25    14    15   ar
    26    15    11   ar
    27     9     1    1
    28    21    19    1
    29    27    22   ar
    30     7    10    1
@<TRIPOS>MOLECULE
*****
 27 30 0 0 0
SMALL
GASTEIGER

@<TRIPOS>ATOM
      1 C          45.7344   14.2489  -26.0102 C.3     1  UNL1        0.0826
      2 C          46.0935   13.8495  -24.5525 C.3     1  UNL1        0.0309
      3 C          47.5088   14.2923  -24.1273 C.3     1  UNL1        0.0954
      4 N          48.3832   14.4428  -25.2964 N.am    1  UNL1       -0.2642
      5 C          49.5639   13.6399  -25.4671 C.2     1  UNL1        0.3039
      6 O          50.5836   14.1459  -26.0103 O.2     1  UNL1       -0.2526
      7 N          49.5630   12.2523  -25.1036 N.am    1  UNL1       -0.2901
      8 C          47.9918   15.3766  -26.3618 C.3     1  UNL1        0.0954
      9 C          46.4617   15.5455  -26.4195 C.3     1  UNL1        0.0309
     10 H          48.7196   11.8530  -24.6347 H       1  UNL1        0.1509
     11 C          46.4095   12.0645  -28.7427 C.ar    1  UNL1        0.1800
     12 N          46.3037   11.1639  -27.7447 N.ar    1  UNL1       -0.0606
     13 O          46.0749   11.8721  -26.6803 O.2     1  UNL1       -0.3374
     14 C          46.0312   13.1437  -26.9957 C.ar    1  UNL1        0.2359
     15 N          46.2295   13.3291  -28.3155 N.ar    1  UNL1       -0.1949
     16 C          46.6389   10.1927  -30.3908 C.3     1  UNL1        0.0081
     17 C          46.6069   11.7103  -30.1895 C.3     1  UNL1        0.0621
     18 C          45.5157   12.3560  -31.0463 C.3     1  UNL1        0.0081
     19 C          50.6039   11.3489  -25.5937 C.3     1  UNL1        0.0774
     20 C          50.4935    9.9312  -25.0457 C.3     1  UNL1        0.0259
     21 C          50.0752   10.2275  -26.4842 C.3     1  UNL1        0.0420
     22 C          50.9977    9.7715  -27.6012 C.ar    1  UNL1       -0.0208
     23 C          50.5545    8.7251  -28.4287 C.ar    1  UNL1       -0.0042
     24 C          51.3349    8.2830  -29.5004 C.ar    1  UNL1       -0.0003
     25 C          52.5710    8.8770  -29.7584 C.ar    1  UNL1       -0.0000
     26 C          53.0289    9.9147  -28.9448 C.ar    1  UNL1       -0.0003
     27 C          52.2516   10.3636  -27.8727 C.ar    1  UNL1       -0.0042
@<TRIPOS>BOND
     1    16    17    1
     2    17    18    1
     3    17    11    1
     4    11    12   ar
     5    12    13   ar
     6    13    14   ar
     7    14     1    1
     8     1     2    1
     9     2     3    1
    10     3     4    1
    11     4     5   am
    12     5     6    2
    13     5     7   am
    14     7    19    1
    15    19    20    1
    16    20    21    1
    17    21    22    1
    18    22    23   ar
    19    23    24   ar
    20    24    25   ar
    21    25    26   ar
    22    26    27   ar
    23     4     8    1
    24     8     9    1
    25    14    15   ar
    26    15    11   ar
    27     9     1    1
    28    21    19    1
    29    27    22   ar
    30     7    10    1
@<TRIPOS>MOLECULE
*****
 27 30 0 0 0
SMALL
GASTEIGER

@<TRIPOS>ATOM
      1 C          47.0647   10.6694  -21.5216 C.3     1  UNL1        0.0826
      2 C          48.3476    9.8275  -21.7643 C.3     1  UNL1        0.0309
      3 C          49.6303   10.4986  -21.2312 C.3     1  UNL1        0.0954
      4 N          49.4689   11.9557  -21.1633 N.am    1  UNL1       -0.2642
      5 C          50.2933   12.8455  -21.9355 C.2     1  UNL1        0.3039
      6 O          50.6274   13.9599  -21.4481 O.2     1  UNL1       -0.2526
      7 N          50.6661   12.5141  -23.2805 N.am    1  UNL1       -0.2901
      8 C          48.3774   12.5133  -20.3522 C.3     1  UNL1        0.0954
      9 C          47.2017   11.5237  -20.2453 C.3     1  UNL1        0.0309
     10 H          50.4012   11.5790  -23.6626 H       1  UNL1        0.1509
     11 C          46.6488   12.4041  -24.6057 C.ar    1  UNL1        0.1800
     12 N          45.8697   13.1601  -23.8059 N.ar    1  UNL1       -0.0606
     13 O          45.9364   12.5898  -22.6409 O.2     1  UNL1       -0.3374
     14 C          46.7201   11.5410  -22.7058 C.ar    1  UNL1        0.2359
     15 N          47.2182   11.3766  -23.9468 N.ar    1  UNL1       -0.1949
     16 C          46.2524   11.7126  -26.9800 C.3     1  UNL1        0.0081
     17 C          46.9399   12.7134  -26.0470 C.3     1  UNL1        0.0621
     18 C          46.5221   14.1484  -26.3754 C.3     1  UNL1        0.0081
     19 C          51.1820   13.5381  -24.1888 C.3     1  UNL1        0.0774
     20 C          51.0608   13.1684  -25.6622 C.3     1  UNL1        0.0259
     21 C          50.1064   14.1923  -25.0519 C.3     1  UNL1        0.0420
     22 C          50.3230   15.6567  -25.3914 C.ar    1  UNL1       -0.0208
     23 C          49.7798   16.1356  -26.5962 C.ar    1  UNL1       -0.0042
     24 C          49.9063   17.4813  -26.9515 C.ar    1  UNL1       -0.0003
     25 C          50.5810   18.3671  -26.1103 C.ar    1  UNL1       -0.0000
     26 C          51.1302   17.9085  -24.9117 C.ar    1  UNL1       -0.0003
     27 C          51.0045   16.5639  -24.5492 C.ar    1  UNL1       -0.0042
@<TRIPOS>BOND
     1    16    17    1
     2    17    18    1
     3    17    11    1
     4    11    12   ar
     5    12    13   ar
     6    13    14   ar
     7    14     1    1
     8     1     2    1
     9     2     3    1
    10     3     4    1
    11     4     5   am
    12     5     6    2
    13     5     7   am
    14     7    19    1
    15    19    20    1
    16    20    21    1
    17    21    22    1
    18    22    23   ar
    19    23    24   ar
    20    24    25   ar
    21    25    26   ar
    22    26    27   ar
    23     4     8    1
    24     8     9    1
    25    14    15   ar
    26    15    11   ar
    27     9     1    1
    28    21    19    1
    29    27    22   ar
    30     7    10    1
@<TRIPOS>MOLECULE
*****
 27 30 0 0 0
SMALL
GASTEIGER

@<TRIPOS>ATOM
      1 C          48.9077   14.2345  -22.1298 C.3     1  UNL1        0.0826
      2 C          50.0305   13.6093  -21.2570 C.3     1  UNL1        0.0309
      3 C          51.4083   13.5936  -21.9508 C.3     1  UNL1        0.0954
      4 N          51.2590   13.6070  -23.4108 N.am    1  UNL1       -0.2642
      5 C          51.7360   12.5261  -24.2305 C.2     1  UNL1        0.3039
      6 O          52.2054   12.7767  -25.3741 O.2     1  UNL1       -0.2526
      7 N          51.6052   11.1656  -23.7950 N.am    1  UNL1       -0.2901
      8 C          50.5238   14.7130  -24.0404 C.3     1  UNL1        0.0954
      9 C          49.4812   15.3089  -23.0756 C.3     1  UNL1        0.0309
     10 H          51.2353   10.9749  -22.8371 H       1  UNL1        0.1509
     11 C          46.7495   12.2181  -24.1223 C.ar    1  UNL1        0.1800
     12 N          47.5611   11.2655  -23.6201 N.ar    1  UNL1       -0.0606
     13 O          48.4141   11.9100  -22.8827 O.2     1  UNL1       -0.3374
     14 C          48.1463   13.1928  -22.9145 C.ar    1  UNL1        0.2359
     15 N          47.0753   13.4514  -23.6900 N.ar    1  UNL1       -0.1949
     16 C          44.4016   12.9015  -24.6638 C.3     1  UNL1        0.0081
     17 C          45.5523   11.9446  -24.9880 C.3     1  UNL1        0.0621
     18 C          45.9377   12.0288  -26.4666 C.3     1  UNL1        0.0081
     19 C          51.7433   10.0594  -24.7419 C.3     1  UNL1        0.0774
     20 C          50.7211    8.9474  -24.5394 C.3     1  UNL1        0.0259
     21 C          50.5659    9.9231  -25.7038 C.3     1  UNL1        0.0420
     22 C          50.8987    9.4237  -27.0990 C.ar    1  UNL1       -0.0208
     23 C          52.1626    9.7449  -27.6240 C.ar    1  UNL1       -0.0042
     24 C          52.5501    9.2837  -28.8850 C.ar    1  UNL1       -0.0003
     25 C          51.6791    8.4985  -29.6415 C.ar    1  UNL1       -0.0000
     26 C          50.4187    8.1729  -29.1378 C.ar    1  UNL1       -0.0003
     27 C          50.0261    8.6287  -27.8756 C.ar    1  UNL1       -0.0042
@<TRIPOS>BOND
     1    16    17    1
     2    17    18    1
     3    17    11    1
     4    11    12   ar
     5    12    13   ar
     6    13    14   ar
     7    14     1    1
     8     1     2    1
     9     2     3    1
    10     3     4    1
    11     4     5   am
    12     5     6    2
    13     5     7   am
    14     7    19    1
    15    19    20    1
    16    20    21    1
    17    21    22    1
    18    22    23   ar
    19    23    24   ar
    20    24    25   ar
    21    25    26   ar
    22    26    27   ar
    23     4     8    1
    24     8     9    1
    25    14    15   ar
    26    15    11   ar
    27     9     1    1
    28    21    19    1
    29    27    22   ar
    30     7    10    1
@<TRIPOS>MOLECULE
*****
 27 30 0 0 0
SMALL
GASTEIGER

@<TRIPOS>ATOM
      1 C          49.5523    9.4367  -21.0993 C.3     1  UNL1        0.0826
      2 C          49.8282   10.6043  -20.1124 C.3     1  UNL1        0.0309
      3 C          48.6376   11.5739  -19.9630 C.3     1  UNL1        0.0954
      4 N          47.7841   11.5422  -21.1565 N.am    1  UNL1       -0.2642
      5 C          47.5857   12.7068  -21.9763 C.2     1  UNL1        0.3039
      6 O          46.4645   12.8958  -22.5227 O.2     1  UNL1       -0.2526
      7 N          48.6711   13.6054  -22.2447 N.am    1  UNL1       -0.2901
      8 C          47.1894   10.2640  -21.5719 C.3     1  UNL1        0.0954
      9 C          48.0538    9.0734  -21.1153 C.3     1  UNL1        0.0309
     10 H          49.5869   13.4486  -21.7679 H       1  UNL1        0.1509
     11 C          50.7420   10.7124  -24.2060 C.ar    1  UNL1        0.1800
     12 N          50.4585    9.4446  -24.5676 N.ar    1  UNL1       -0.0606
     13 O          50.0296    8.8767  -23.4811 O.2     1  UNL1       -0.3374
     14 C          50.0362    9.7426  -22.4969 C.ar    1  UNL1        0.2359
     15 N          50.4760   10.9483  -22.9069 N.ar    1  UNL1       -0.1949
     16 C          51.9807   12.8792  -24.4146 C.3     1  UNL1        0.0081
     17 C          51.2088   11.7818  -25.1526 C.3     1  UNL1        0.0621
     18 C          52.0572   11.1677  -26.2683 C.3     1  UNL1        0.0081
     19 C          48.5918   14.5691  -23.3423 C.3     1  UNL1        0.0774
     20 C          48.0090   15.9168  -22.9344 C.3     1  UNL1        0.0259
     21 C          49.5113   15.7751  -23.1690 C.3     1  UNL1        0.0420
     22 C          50.0900   16.3616  -24.4448 C.ar    1  UNL1       -0.0208
     23 C          49.7361   15.7547  -25.6624 C.ar    1  UNL1       -0.0042
     24 C          50.1998   16.2672  -26.8770 C.ar    1  UNL1       -0.0003
     25 C          51.0270   17.3910  -26.8926 C.ar    1  UNL1       -0.0000
     26 C          51.3919   18.0045  -25.6930 C.ar    1  UNL1       -0.0003
     27 C          50.9290   17.4982  -24.4746 C.ar    1  UNL1       -0.0042
@<TRIPOS>BOND
     1    16    17    1
     2    17    18    1
     3    17    11    1
     4    11    12   ar
     5    12    13   ar
     6    13    14   ar
     7    14     1    1
     8     1     2    1
     9     2     3    1
    10     3     4    1
    11     4     5   am
    12     5     6    2
    13     5     7   am
    14     7    19    1
    15    19    20    1
    16    20    21    1
    17    21    22    1
    18    22    23   ar
    19    23    24   ar
    20    24    25   ar
    21    25    26   ar
    22    26    27   ar
    23     4     8    1
    24     8     9    1
    25    14    15   ar
    26    15    11   ar
    27     9     1    1
    28    21    19    1
    29    27    22   ar
    30     7    10    1
@<TRIPOS>MOLECULE
*****
 27 30 0 0 0
SMALL
GASTEIGER

@<TRIPOS>ATOM
      1 C          46.4855   14.7156  -27.4037 C.3     1  UNL1        0.0826
      2 C          46.6015   13.1974  -27.7119 C.3     1  UNL1        0.0309
      3 C          46.3065   12.3007  -26.4918 C.3     1  UNL1        0.0954
      4 N          46.5620   13.0211  -25.2390 N.am    1  UNL1       -0.2642
      5 C          47.5604   12.5807  -24.3025 C.2     1  UNL1        0.3039
      6 O          47.3577   12.7278  -23.0662 O.2     1  UNL1       -0.2526
      7 N          48.8136   12.0561  -24.7629 N.am    1  UNL1       -0.2901
      8 C          45.8394   14.2743  -24.9791 C.3     1  UNL1        0.0954
      9 C          45.4459   14.9730  -26.2944 C.3     1  UNL1        0.0309
     10 H          48.9584   11.9195  -25.7881 H       1  UNL1        0.1509
     11 C          49.4061   16.6525  -26.7617 C.ar    1  UNL1        0.1800
     12 N          49.8462   15.4349  -26.3849 N.ar    1  UNL1       -0.0606
     13 O          48.8311   14.6444  -26.5628 O.2     1  UNL1       -0.3374
     14 C          47.8156   15.3272  -27.0327 C.ar    1  UNL1        0.2359
     15 N          48.1302   16.6276  -27.1923 N.ar    1  UNL1       -0.1949
     16 C          49.4142   19.1368  -27.0792 C.3     1  UNL1        0.0081
     17 C          50.2575   17.8901  -26.7978 C.3     1  UNL1        0.0621
     18 C          51.0352   18.0361  -25.4880 C.3     1  UNL1        0.0081
     19 C          49.9577   11.9466  -23.8580 C.3     1  UNL1        0.0774
     20 C          51.2820   12.3560  -24.4912 C.3     1  UNL1        0.0259
     21 C          50.5895   13.2894  -23.5007 C.3     1  UNL1        0.0420
     22 C          51.1724   13.4014  -22.1027 C.ar    1  UNL1       -0.0208
     23 C          50.5057   12.7331  -21.0611 C.ar    1  UNL1       -0.0042
     24 C          51.0093   12.7603  -19.7577 C.ar    1  UNL1       -0.0003
     25 C          52.1839   13.4589  -19.4754 C.ar    1  UNL1       -0.0000
     26 C          52.8572   14.1315  -20.4965 C.ar    1  UNL1       -0.0003
     27 C          52.3601   14.1058  -21.8031 C.ar    1  UNL1       -0.0042
@<TRIPOS>BOND
     1    16    17    1
     2    17    18    1
     3    17    11    1
     4    11    12   ar
     5    12    13   ar
     6    13    14   ar
     7    14     1    1
     8     1     2    1
     9     2     3    1
    10     3     4    1
    11     4     5   am
    12     5     6    2
    13     5     7   am
    14     7    19    1
    15    19    20    1
    16    20    21    1
    17    21    22    1
    18    22    23   ar
    19    23    24   ar
    20    24    25   ar
    21    25    26   ar
    22    26    27   ar
    23     4     8    1
    24     8     9    1
    25    14    15   ar
    26    15    11   ar
    27     9     1    1
    28    21    19    1
    29    27    22   ar
    30     7    10    1
@<TRIPOS>MOLECULE
*****
 27 30 0 0 0
SMALL
GASTEIGER

@<TRIPOS>ATOM
      1 C          48.0428   10.5587  -21.6753 C.3     1  UNL1        0.0826
      2 C          49.5811   10.5830  -21.4601 C.3     1  UNL1        0.0309
      3 C          50.0789   11.8548  -20.7428 C.3     1  UNL1        0.0954
      4 N          49.1473   12.9700  -20.9483 N.am    1  UNL1       -0.2642
      5 C          49.5454   14.1740  -21.6264 C.2     1  UNL1        0.3039
      6 O          49.0678   15.2808  -21.2550 O.2     1  UNL1       -0.2526
      7 N          50.4105   14.1173  -22.7692 N.am    1  UNL1       -0.2901
      8 C          47.7476   12.8141  -20.5278 C.3     1  UNL1        0.0954
      9 C          47.3193   11.3347  -20.5563 C.3     1  UNL1        0.0309
     10 H          50.8157   13.1970  -23.0513 H       1  UNL1        0.1509
     11 C          46.5837   11.9243  -24.6249 C.ar    1  UNL1        0.1800
     12 N          47.7708   11.5175  -25.1186 N.ar    1  UNL1       -0.0606
     13 O          48.4002   11.0147  -24.0998 O.2     1  UNL1       -0.3374
     14 C          47.6461   11.0943  -23.0305 C.ar    1  UNL1        0.2359
     15 N          46.4569   11.6628  -23.3097 N.ar    1  UNL1       -0.1949
     16 C          44.2414   12.8105  -24.5969 C.3     1  UNL1        0.0081
     17 C          45.4767   12.5142  -25.4519 C.3     1  UNL1        0.0621
     18 C          45.9652   13.7752  -26.1682 C.3     1  UNL1        0.0081
     19 C          50.5321   15.2600  -23.6742 C.3     1  UNL1        0.0774
     20 C          50.6486   14.8698  -25.1427 C.3     1  UNL1        0.0259
     21 C          49.3359   15.4361  -24.6060 C.3     1  UNL1        0.0420
     22 C          48.9778   16.8667  -24.9686 C.ar    1  UNL1       -0.0208
     23 C          47.7402   17.3635  -24.5240 C.ar    1  UNL1       -0.0042
     24 C          47.3645   18.6836  -24.7871 C.ar    1  UNL1       -0.0003
     25 C          48.2179   19.5253  -25.5017 C.ar    1  UNL1       -0.0000
     26 C          49.4491   19.0480  -25.9544 C.ar    1  UNL1       -0.0003
     27 C          49.8321   17.7291  -25.6919 C.ar    1  UNL1       -0.0042
@<TRIPOS>BOND
     1    16    17    1
     2    17    18    1
     3    17    11    1
     4    11    12   ar
     5    12    13   ar
     6    13    14   ar
     7    14     1    1
     8     1     2    1
     9     2     3    1
    10     3     4    1
    11     4     5   am
    12     5     6    2
    13     5     7   am
    14     7    19    1
    15    19    20    1
    16    20    21    1
    17    21    22    1
    18    22    23   ar
    19    23    24   ar
    20    24    25   ar
    21    25    26   ar
    22    26    27   ar
    23     4     8    1
    24     8     9    1
    25    14    15   ar
    26    15    11   ar
    27     9     1    1
    28    21    19    1
    29    27    22   ar
    30     7    10    1
