@<TRIPOS>MOLECULE
*****
 40 44 0 0 0
SMALL
GASTEIGER

@<TRIPOS>ATOM
      1 C         -28.6970   48.6072   -9.7900 C.ar    1  UNL1        0.1317
      2 C         -30.0035   48.7539  -10.2849 C.ar    1  UNL1        0.0286
      3 C         -30.3762   49.9137  -10.9857 C.ar    1  UNL1        0.0782
      4 C         -29.4322   50.9357  -11.2086 C.ar    1  UNL1        0.3083
      5 N         -28.1685   50.7476  -10.7216 N.ar    1  UNL1       -0.1220
      6 C         -27.0557   51.4974  -10.8386 C.ar    1  UNL1        0.3137
      7 C         -26.0274   50.8173  -10.1998 C.ar    1  UNL1        0.1320
      8 N         -26.4926   49.6509   -9.6998 N.ar    1  UNL1       -0.2941
      9 C         -27.7955   49.6481  -10.0389 C.ar    1  UNL1        0.3123
     10 H         -25.9940   48.9628   -9.2027 H       1  UNL1        0.1718
     11 N         -28.7892   45.4439   -7.1527 N.3     1  UNL1       -0.2647
     12 C         -29.5743   45.4462   -8.4056 C.3     1  UNL1        0.0941
     13 C         -28.7617   46.0830   -9.5362 C.3     1  UNL1        0.1084
     14 N         -28.2973   47.4043   -9.1071 N.pl3   1  UNL1       -0.2988
     15 C         -27.5616   47.4741   -7.8435 C.3     1  UNL1        0.1084
     16 C         -28.3965   46.8105   -6.7449 C.3     1  UNL1        0.0941
     17 C         -29.4671   44.7021   -6.0649 C.3     1  UNL1        0.1199
     18 C         -27.1103   44.5883   -3.3508 C.ar    1  UNL1        0.1165
     19 N         -27.3613   44.5884   -4.6780 N.ar    1  UNL1       -0.2344
     20 C         -28.7036   44.7001   -4.7600 C.ar    1  UNL1        0.0878
     21 C         -29.2336   44.7701   -3.4832 C.ar    1  UNL1        0.0499
     22 C         -30.6771   44.8589   -3.1006 C.3     1  UNL1        0.0511
     23 N         -28.2251   44.6899   -2.6008 N.ar    1  UNL1       -0.3443
     24 H         -28.2907   44.6869   -1.5583 H       1  UNL1        0.1668
     25 C         -24.9554   45.7112   -2.8336 C.3     1  UNL1        0.0084
     26 C         -25.7407   44.4053   -2.7747 C.3     1  UNL1        0.0637
     27 C         -24.6130   51.2385  -10.0835 C.ar    1  UNL1        0.0218
     28 C         -23.9069   51.6297  -11.2303 C.ar    1  UNL1        0.0013
     29 C         -22.5853   52.0718  -11.1396 C.ar    1  UNL1       -0.0042
     30 C         -21.9270   52.1466   -9.8910 C.ar    1  UNL1       -0.0228
     31 C         -22.6466   51.7399   -8.7460 C.ar    1  UNL1       -0.0042
     32 C         -23.9663   51.2911   -8.8405 C.ar    1  UNL1        0.0013
     33 C         -20.4800   52.6596   -9.7406 C.3     1  UNL1        0.0189
     34 C         -19.5314   51.7767  -10.5803 C.3     1  UNL1        0.0044
     35 C         -19.9748   52.6306   -8.2780 C.3     1  UNL1        0.0044
     36 C         -20.3966   54.1193  -10.2372 C.3     1  UNL1        0.0044
     37 C         -29.8242   52.1702  -11.9283 C.2     1  UNL1        0.4031
     38 O         -30.4050   52.0948  -13.0425 O.2     1  UNL1       -0.2383
     39 O         -29.5423   53.4301  -11.4037 O.3     1  UNL1       -0.4730
     40 H         -29.1344   53.5498  -10.4848 H       1  UNL1        0.2956
@<TRIPOS>BOND
     1    25    26    1
     2    26    18    1
     3    18    19   ar
     4    19    20   ar
     5    20    17    1
     6    17    11    1
     7    11    12    1
     8    12    13    1
     9    13    14    1
    10    14     1    1
    11     1     2   ar
    12     2     3   ar
    13     3     4   ar
    14     4    37    1
    15    37    38    2
    16    37    39    1
    17     4     5   ar
    18     5     6   ar
    19     6     7   ar
    20     7    27    1
    21    27    28   ar
    22    28    29   ar
    23    29    30   ar
    24    30    33    1
    25    33    34    1
    26    33    35    1
    27    33    36    1
    28    30    31   ar
    29    31    32   ar
    30     7     8   ar
    31     8     9   ar
    32    14    15    1
    33    15    16    1
    34    20    21   ar
    35    21    22    1
    36    21    23   ar
    37    23    18   ar
    38    16    11    1
    39     9     1   ar
    40     9     5   ar
    41    32    27   ar
    42    39    40    1
    43    23    24    1
    44     8    10    1
@<TRIPOS>MOLECULE
*****
 40 44 0 0 0
SMALL
GASTEIGER

@<TRIPOS>ATOM
      1 C         -28.9903   50.4084   -8.2013 C.ar    1  UNL1        0.1317
      2 C         -30.2662   50.3355   -8.7846 C.ar    1  UNL1        0.0286
      3 C         -30.4697   50.7495  -10.1122 C.ar    1  UNL1        0.0782
      4 C         -29.3862   51.2300  -10.8740 C.ar    1  UNL1        0.3083
      5 N         -28.1589   51.2725  -10.2727 N.ar    1  UNL1       -0.1220
      6 C         -26.9479   51.6067  -10.7585 C.ar    1  UNL1        0.3137
      7 C         -26.0252   51.4220   -9.7376 C.ar    1  UNL1        0.1320
      8 N         -26.6535   50.9670   -8.6308 N.ar    1  UNL1       -0.2941
      9 C         -27.9463   50.8902   -8.9988 C.ar    1  UNL1        0.3123
     10 H         -26.2575   50.7434   -7.7576 H       1  UNL1        0.1718
     11 N         -29.7638   48.8444   -4.4695 N.3     1  UNL1       -0.2647
     12 C         -29.5952   47.9868   -5.6621 C.3     1  UNL1        0.0941
     13 C         -28.4848   48.5416   -6.5582 C.3     1  UNL1        0.1084
     14 N         -28.7668   49.9479   -6.8555 N.pl3   1  UNL1       -0.2988
     15 C         -28.9989   50.8365   -5.7157 C.3     1  UNL1        0.1084
     16 C         -30.0992   50.2380   -4.8350 C.3     1  UNL1        0.0941
     17 C         -30.7184   48.2704   -3.4937 C.3     1  UNL1        0.1199
     18 C         -30.2124   48.6097    0.0507 C.ar    1  UNL1        0.1165
     19 N         -31.0433   48.6133   -1.0143 N.ar    1  UNL1       -0.2344
     20 C         -30.2390   48.3345   -2.0612 C.ar    1  UNL1        0.0878
     21 C         -28.9427   48.1635   -1.6069 C.ar    1  UNL1        0.0499
     22 C         -27.7215   47.8820   -2.4240 C.3     1  UNL1        0.0511
     23 N         -28.9320   48.3474   -0.2771 N.ar    1  UNL1       -0.3443
     24 H         -28.1074   48.3142    0.3630 H       1  UNL1        0.1668
     25 C         -29.5410   48.6745    2.4417 C.3     1  UNL1        0.0084
     26 C         -30.6567   48.9496    1.4393 C.3     1  UNL1        0.0637
     27 C         -24.5623   51.6390   -9.8037 C.ar    1  UNL1        0.0218
     28 C         -23.9709   52.0303  -11.0135 C.ar    1  UNL1        0.0013
     29 C         -22.5994   52.2826  -11.0897 C.ar    1  UNL1       -0.0042
     30 C         -21.7725   52.1606   -9.9498 C.ar    1  UNL1       -0.0228
     31 C         -22.3798   51.7560   -8.7407 C.ar    1  UNL1       -0.0042
     32 C         -23.7508   51.4972   -8.6690 C.ar    1  UNL1        0.0013
     33 C         -20.2598   52.4610   -9.9809 C.3     1  UNL1        0.0189
     34 C         -19.6710   52.2841   -8.5646 C.3     1  UNL1        0.0044
     35 C         -19.9366   53.9014  -10.4460 C.3     1  UNL1        0.0044
     36 C         -19.5608   51.4860  -10.9530 C.3     1  UNL1        0.0044
     37 C         -29.5978   51.6877  -12.2673 C.2     1  UNL1        0.4031
     38 O         -29.9283   50.8639  -13.1598 O.2     1  UNL1       -0.2383
     39 O         -29.4165   53.0230  -12.6222 O.3     1  UNL1       -0.4730
     40 H         -29.2126   53.7380  -11.9349 H       1  UNL1        0.2956
@<TRIPOS>BOND
     1    25    26    1
     2    26    18    1
     3    18    19   ar
     4    19    20   ar
     5    20    17    1
     6    17    11    1
     7    11    12    1
     8    12    13    1
     9    13    14    1
    10    14     1    1
    11     1     2   ar
    12     2     3   ar
    13     3     4   ar
    14     4    37    1
    15    37    38    2
    16    37    39    1
    17     4     5   ar
    18     5     6   ar
    19     6     7   ar
    20     7    27    1
    21    27    28   ar
    22    28    29   ar
    23    29    30   ar
    24    30    33    1
    25    33    34    1
    26    33    35    1
    27    33    36    1
    28    30    31   ar
    29    31    32   ar
    30     7     8   ar
    31     8     9   ar
    32    14    15    1
    33    15    16    1
    34    20    21   ar
    35    21    22    1
    36    21    23   ar
    37    23    18   ar
    38    16    11    1
    39     9     1   ar
    40     9     5   ar
    41    32    27   ar
    42    39    40    1
    43    23    24    1
    44     8    10    1
@<TRIPOS>MOLECULE
*****
 40 44 0 0 0
SMALL
GASTEIGER

@<TRIPOS>ATOM
      1 C         -28.5467   49.5621   -8.3145 C.ar    1  UNL1        0.1317
      2 C         -29.8747   49.6113   -8.7699 C.ar    1  UNL1        0.0286
      3 C         -30.2271   50.4272   -9.8586 C.ar    1  UNL1        0.0782
      4 C         -29.2420   51.1944  -10.5115 C.ar    1  UNL1        0.3083
      5 N         -27.9597   51.1078  -10.0450 N.ar    1  UNL1       -0.1220
      6 C         -26.8152   51.6536  -10.4995 C.ar    1  UNL1        0.3137
      7 C         -25.7858   51.1967   -9.6874 C.ar    1  UNL1        0.1320
      8 N         -26.2826   50.3664   -8.7437 N.ar    1  UNL1       -0.2941
      9 C         -27.6047   50.3399   -8.9969 C.ar    1  UNL1        0.3123
     10 H         -25.7915   49.8909   -8.0352 H       1  UNL1        0.1718
     11 N         -28.8732   46.7718   -5.3015 N.3     1  UNL1       -0.2647
     12 C         -28.7646   46.3838   -6.7242 C.3     1  UNL1        0.0941
     13 C         -27.7782   47.3040   -7.4481 C.3     1  UNL1        0.1084
     14 N         -28.1714   48.6975   -7.2261 N.pl3   1  UNL1       -0.2988
     15 C         -28.3499   49.1264   -5.8380 C.3     1  UNL1        0.1084
     16 C         -29.3251   48.1714   -5.1442 C.3     1  UNL1        0.0941
     17 C         -29.6963   45.8207   -4.5199 C.3     1  UNL1        0.1199
     18 C         -29.9264   46.4281   -0.9827 C.ar    1  UNL1        0.1165
     19 N         -30.4984   46.4329   -2.2064 N.ar    1  UNL1       -0.2344
     20 C         -29.5339   45.9603   -3.0232 C.ar    1  UNL1        0.0878
     21 C         -28.4037   45.6756   -2.2765 C.ar    1  UNL1        0.0499
     22 C         -27.0866   45.1710   -2.7752 C.3     1  UNL1        0.0511
     23 N         -28.6553   45.9813   -0.9938 N.ar    1  UNL1       -0.3443
     24 H         -28.0016   45.9079   -0.1824 H       1  UNL1        0.1668
     25 C         -29.9908   48.2736    0.6792 C.3     1  UNL1        0.0084
     26 C         -30.6085   46.9491    0.2440 C.3     1  UNL1        0.0637
     27 C         -24.3438   51.5085   -9.8101 C.ar    1  UNL1        0.0218
     28 C         -23.8083   51.8429  -11.0623 C.ar    1  UNL1        0.0013
     29 C         -22.4602   52.1826  -11.1953 C.ar    1  UNL1       -0.0042
     30 C         -21.6020   52.2083  -10.0725 C.ar    1  UNL1       -0.0228
     31 C         -22.1523   51.8594   -8.8196 C.ar    1  UNL1       -0.0042
     32 C         -23.4996   51.5130   -8.6906 C.ar    1  UNL1        0.0013
     33 C         -20.1155   52.6091  -10.1682 C.3     1  UNL1        0.0189
     34 C         -19.4416   51.8170  -11.3096 C.3     1  UNL1        0.0044
     35 C         -19.3248   52.3226   -8.8689 C.3     1  UNL1        0.0044
     36 C         -20.0074   54.1216  -10.4595 C.3     1  UNL1        0.0044
     37 C         -29.6104   52.0728  -11.6466 C.2     1  UNL1        0.4031
     38 O         -29.9470   51.5708  -12.7508 O.2     1  UNL1       -0.2383
     39 O         -29.5722   53.4605  -11.5254 O.3     1  UNL1       -0.4730
     40 H         -29.3699   53.9169  -10.6446 H       1  UNL1        0.2956
@<TRIPOS>BOND
     1    25    26    1
     2    26    18    1
     3    18    19   ar
     4    19    20   ar
     5    20    17    1
     6    17    11    1
     7    11    12    1
     8    12    13    1
     9    13    14    1
    10    14     1    1
    11     1     2   ar
    12     2     3   ar
    13     3     4   ar
    14     4    37    1
    15    37    38    2
    16    37    39    1
    17     4     5   ar
    18     5     6   ar
    19     6     7   ar
    20     7    27    1
    21    27    28   ar
    22    28    29   ar
    23    29    30   ar
    24    30    33    1
    25    33    34    1
    26    33    35    1
    27    33    36    1
    28    30    31   ar
    29    31    32   ar
    30     7     8   ar
    31     8     9   ar
    32    14    15    1
    33    15    16    1
    34    20    21   ar
    35    21    22    1
    36    21    23   ar
    37    23    18   ar
    38    16    11    1
    39     9     1   ar
    40     9     5   ar
    41    32    27   ar
    42    39    40    1
    43    23    24    1
    44     8    10    1
@<TRIPOS>MOLECULE
*****
 40 44 0 0 0
SMALL
GASTEIGER

@<TRIPOS>ATOM
      1 C         -28.7158   50.5304   -7.9945 C.ar    1  UNL1        0.1317
      2 C         -30.0053   50.3801   -8.5313 C.ar    1  UNL1        0.0286
      3 C         -30.2554   50.6730   -9.8829 C.ar    1  UNL1        0.0782
      4 C         -29.2051   51.1087  -10.7150 C.ar    1  UNL1        0.3083
      5 N         -27.9630   51.2293  -10.1563 N.ar    1  UNL1       -0.1220
      6 C         -26.7742   51.5458  -10.7048 C.ar    1  UNL1        0.3137
      7 C         -25.8194   51.4699   -9.6996 C.ar    1  UNL1        0.1320
      8 N         -26.4058   51.0993   -8.5396 N.ar    1  UNL1       -0.2941
      9 C         -27.7061   50.9634   -8.8612 C.ar    1  UNL1        0.3123
     10 H         -25.9805   50.9607   -7.6626 H       1  UNL1        0.1718
     11 N         -29.1866   48.8732   -4.2525 N.3     1  UNL1       -0.2647
     12 C         -28.6740   48.0931   -5.3992 C.3     1  UNL1        0.0941
     13 C         -27.7451   48.9596   -6.2538 C.3     1  UNL1        0.1084
     14 N         -28.4442   50.1932   -6.6214 N.pl3   1  UNL1       -0.2988
     15 C         -29.0233   50.9809   -5.5320 C.3     1  UNL1        0.1084
     16 C         -29.9276   50.0762   -4.6905 C.3     1  UNL1        0.0941
     17 C         -29.9673   48.0406   -3.3091 C.3     1  UNL1        0.1199
     18 C         -27.5929   45.6645   -2.0245 C.ar    1  UNL1        0.1165
     19 N         -27.9788   46.5174   -2.9982 N.ar    1  UNL1       -0.2344
     20 C         -29.1303   47.0474   -2.5353 C.ar    1  UNL1        0.0878
     21 C         -29.4123   46.5083   -1.2920 C.ar    1  UNL1        0.0499
     22 C         -30.6065   46.7786   -0.4324 C.3     1  UNL1        0.0511
     23 N         -28.4445   45.6315   -0.9809 N.ar    1  UNL1       -0.3443
     24 H         -28.3759   45.0373   -0.1246 H       1  UNL1        0.1668
     25 C         -25.2341   45.5324   -2.7931 C.3     1  UNL1        0.0084
     26 C         -26.3881   44.7828   -2.1360 C.3     1  UNL1        0.0637
     27 C         -24.3645   51.7115   -9.8275 C.ar    1  UNL1        0.0218
     28 C         -23.8338   52.1286  -11.0567 C.ar    1  UNL1        0.0013
     29 C         -22.4712   52.4041  -11.1902 C.ar    1  UNL1       -0.0042
     30 C         -21.5925   52.2802  -10.0900 C.ar    1  UNL1       -0.0228
     31 C         -22.1388   51.8495   -8.8610 C.ar    1  UNL1       -0.0042
     32 C         -23.5010   51.5676   -8.7321 C.ar    1  UNL1        0.0013
     33 C         -20.0876   52.6054  -10.1840 C.3     1  UNL1        0.0189
     34 C         -19.9011   54.1257  -10.3795 C.3     1  UNL1        0.0044
     35 C         -19.3850   51.8918  -11.3641 C.3     1  UNL1        0.0044
     36 C         -19.3829   52.1649   -8.8826 C.3     1  UNL1        0.0044
     37 C         -29.4661   51.4393  -12.1357 C.2     1  UNL1        0.4031
     38 O         -29.8469   50.5432  -12.9334 O.2     1  UNL1       -0.2383
     39 O         -29.2770   52.7319  -12.6209 O.3     1  UNL1       -0.4730
     40 H         -29.0329   53.5032  -12.0121 H       1  UNL1        0.2956
@<TRIPOS>BOND
     1    25    26    1
     2    26    18    1
     3    18    19   ar
     4    19    20   ar
     5    20    17    1
     6    17    11    1
     7    11    12    1
     8    12    13    1
     9    13    14    1
    10    14     1    1
    11     1     2   ar
    12     2     3   ar
    13     3     4   ar
    14     4    37    1
    15    37    38    2
    16    37    39    1
    17     4     5   ar
    18     5     6   ar
    19     6     7   ar
    20     7    27    1
    21    27    28   ar
    22    28    29   ar
    23    29    30   ar
    24    30    33    1
    25    33    34    1
    26    33    35    1
    27    33    36    1
    28    30    31   ar
    29    31    32   ar
    30     7     8   ar
    31     8     9   ar
    32    14    15    1
    33    15    16    1
    34    20    21   ar
    35    21    22    1
    36    21    23   ar
    37    23    18   ar
    38    16    11    1
    39     9     1   ar
    40     9     5   ar
    41    32    27   ar
    42    39    40    1
    43    23    24    1
    44     8    10    1
@<TRIPOS>MOLECULE
*****
 40 44 0 0 0
SMALL
GASTEIGER

@<TRIPOS>ATOM
      1 C         -29.4189   51.1122   -9.9198 C.ar    1  UNL1        0.1317
      2 C         -30.4790   50.8554   -9.0346 C.ar    1  UNL1        0.0286
      3 C         -30.2279   50.5819   -7.6791 C.ar    1  UNL1        0.0782
      4 C         -28.9047   50.5769   -7.1951 C.ar    1  UNL1        0.3083
      5 N         -27.9033   50.8443   -8.0868 N.ar    1  UNL1       -0.1220
      6 C         -26.5749   50.9797   -7.9095 C.ar    1  UNL1        0.3137
      7 C         -26.0226   51.3073   -9.1407 C.ar    1  UNL1        0.1320
      8 N         -26.9984   51.3858  -10.0726 N.ar    1  UNL1       -0.2941
      9 C         -28.1234   51.0983   -9.3911 C.ar    1  UNL1        0.3123
     10 H         -26.9075   51.6030  -11.0286 H       1  UNL1        0.1718
     11 N         -30.5856   50.6618  -13.8449 N.3     1  UNL1       -0.2647
     12 C         -31.5577   50.9129  -12.7594 C.3     1  UNL1        0.0941
     13 C         -30.9795   51.9122  -11.7540 C.3     1  UNL1        0.1084
     14 N         -29.6716   51.4332  -11.3004 N.pl3   1  UNL1       -0.2988
     15 C         -28.6842   51.1136  -12.3327 C.3     1  UNL1        0.1084
     16 C         -29.3060   50.1298  -13.3276 C.3     1  UNL1        0.0941
     17 C         -31.1520   49.8216  -14.9247 C.3     1  UNL1        0.1199
     18 C         -28.6066   49.2320  -17.3960 C.ar    1  UNL1        0.1165
     19 N         -29.3383   50.0953  -16.6585 N.ar    1  UNL1       -0.2344
     20 C         -30.1188   49.3000  -15.8975 C.ar    1  UNL1        0.0878
     21 C         -29.8391   47.9757  -16.1870 C.ar    1  UNL1        0.0499
     22 C         -30.4940   46.7602  -15.6110 C.3     1  UNL1        0.0511
     23 N         -28.8923   47.9407  -17.1381 N.ar    1  UNL1       -0.3443
     24 H         -28.4799   47.0964  -17.5943 H       1  UNL1        0.1668
     25 C         -26.2692   49.0472  -18.2171 C.3     1  UNL1        0.0084
     26 C         -27.6412   49.6694  -18.4533 C.3     1  UNL1        0.0637
     27 C         -24.5978   51.5757   -9.4391 C.ar    1  UNL1        0.0218
     28 C         -24.2273   52.0302  -10.7129 C.ar    1  UNL1        0.0013
     29 C         -22.8950   52.3311  -11.0048 C.ar    1  UNL1       -0.0042
     30 C         -21.8866   52.1957  -10.0236 C.ar    1  UNL1       -0.0228
     31 C         -22.2725   51.7273   -8.7484 C.ar    1  UNL1       -0.0042
     32 C         -23.6048   51.4201   -8.4614 C.ar    1  UNL1        0.0013
     33 C         -20.4090   52.5477  -10.2924 C.3     1  UNL1        0.0189
     34 C         -19.8590   51.6378  -11.4122 C.3     1  UNL1        0.0044
     35 C         -19.5049   52.3604   -9.0503 C.3     1  UNL1        0.0044
     36 C         -20.3028   54.0241  -10.7320 C.3     1  UNL1        0.0044
     37 C         -28.6314   50.2686   -5.7717 C.2     1  UNL1        0.4031
     38 O         -28.4291   51.2010   -4.9507 O.2     1  UNL1       -0.2383
     39 O         -28.5711   48.9521   -5.3186 O.3     1  UNL1       -0.4730
     40 H         -28.7871   48.1671   -5.9204 H       1  UNL1        0.2956
@<TRIPOS>BOND
     1    25    26    1
     2    26    18    1
     3    18    19   ar
     4    19    20   ar
     5    20    17    1
     6    17    11    1
     7    11    12    1
     8    12    13    1
     9    13    14    1
    10    14     1    1
    11     1     2   ar
    12     2     3   ar
    13     3     4   ar
    14     4    37    1
    15    37    38    2
    16    37    39    1
    17     4     5   ar
    18     5     6   ar
    19     6     7   ar
    20     7    27    1
    21    27    28   ar
    22    28    29   ar
    23    29    30   ar
    24    30    33    1
    25    33    34    1
    26    33    35    1
    27    33    36    1
    28    30    31   ar
    29    31    32   ar
    30     7     8   ar
    31     8     9   ar
    32    14    15    1
    33    15    16    1
    34    20    21   ar
    35    21    22    1
    36    21    23   ar
    37    23    18   ar
    38    16    11    1
    39     9     1   ar
    40     9     5   ar
    41    32    27   ar
    42    39    40    1
    43    23    24    1
    44     8    10    1
@<TRIPOS>MOLECULE
*****
 40 44 0 0 0
SMALL
GASTEIGER

@<TRIPOS>ATOM
      1 C         -28.7905   48.7275   -9.3695 C.ar    1  UNL1        0.1317
      2 C         -30.1150   48.8139   -9.8297 C.ar    1  UNL1        0.0286
      3 C         -30.5274   49.9003  -10.6202 C.ar    1  UNL1        0.0782
      4 C         -29.6060   50.9077  -10.9685 C.ar    1  UNL1        0.3083
      5 N         -28.3240   50.7789  -10.5108 N.ar    1  UNL1       -0.1220
      6 C         -27.2264   51.5269  -10.7347 C.ar    1  UNL1        0.3137
      7 C         -26.1676   50.9196  -10.0728 C.ar    1  UNL1        0.1320
      8 N         -26.5992   49.7991   -9.4522 N.ar    1  UNL1       -0.2941
      9 C         -27.9127   49.7509   -9.7439 C.ar    1  UNL1        0.3123
     10 H         -26.0745   49.1650   -8.9120 H       1  UNL1        0.1718
     11 N         -28.9508   45.4268   -6.9098 N.3     1  UNL1       -0.2647
     12 C         -29.2724   45.3499   -8.3509 C.3     1  UNL1        0.0941
     13 C         -28.3214   46.2430   -9.1521 C.3     1  UNL1        0.1084
     14 N         -28.3511   47.5969   -8.5938 N.pl3   1  UNL1       -0.2988
     15 C         -28.0956   47.7318   -7.1588 C.3     1  UNL1        0.1084
     16 C         -29.0504   46.8100   -6.3952 C.3     1  UNL1        0.0941
     17 C         -29.7394   44.4660   -6.1049 C.3     1  UNL1        0.1199
     18 C         -30.2110   45.2785   -2.6334 C.ar    1  UNL1        0.1165
     19 N         -30.7148   45.1520   -3.8803 N.ar    1  UNL1       -0.2344
     20 C         -29.6704   44.7166   -4.6155 C.ar    1  UNL1        0.0878
     21 C         -28.5613   44.5845   -3.7978 C.ar    1  UNL1        0.0499
     22 C         -27.1804   44.1699   -4.1970 C.3     1  UNL1        0.0511
     23 N         -28.9070   44.9489   -2.5529 N.ar    1  UNL1       -0.3443
     24 H         -28.2939   44.9877   -1.7082 H       1  UNL1        0.1668
     25 C         -30.0856   46.1161   -0.2979 C.3     1  UNL1        0.0084
     26 C         -31.0006   45.8142   -1.4798 C.3     1  UNL1        0.0637
     27 C         -24.7562   51.3651  -10.0451 C.ar    1  UNL1        0.0218
     28 C         -24.0442   51.3466   -8.8370 C.ar    1  UNL1        0.0013
     29 C         -22.6995   51.7213   -8.7942 C.ar    1  UNL1       -0.0042
     30 C         -22.0173   52.1193   -9.9665 C.ar    1  UNL1       -0.0228
     31 C         -22.7493   52.1429  -11.1739 C.ar    1  UNL1       -0.0042
     32 C         -24.0964   51.7746  -11.2126 C.ar    1  UNL1        0.0013
     33 C         -20.5249   52.5094   -9.9709 C.3     1  UNL1        0.0189
     34 C         -20.3667   53.9315  -10.5513 C.3     1  UNL1        0.0044
     35 C         -19.6511   51.5564  -10.8215 C.3     1  UNL1        0.0044
     36 C         -19.9807   52.4811   -8.5261 C.3     1  UNL1        0.0044
     37 C         -30.0394   52.0665  -11.7840 C.2     1  UNL1        0.4031
     38 O         -29.2476   52.5882  -12.6118 O.2     1  UNL1       -0.2383
     39 O         -31.3131   52.6131  -11.6390 O.3     1  UNL1       -0.4730
     40 H         -32.0105   52.1961  -11.0351 H       1  UNL1        0.2956
@<TRIPOS>BOND
     1    25    26    1
     2    26    18    1
     3    18    19   ar
     4    19    20   ar
     5    20    17    1
     6    17    11    1
     7    11    12    1
     8    12    13    1
     9    13    14    1
    10    14     1    1
    11     1     2   ar
    12     2     3   ar
    13     3     4   ar
    14     4    37    1
    15    37    38    2
    16    37    39    1
    17     4     5   ar
    18     5     6   ar
    19     6     7   ar
    20     7    27    1
    21    27    28   ar
    22    28    29   ar
    23    29    30   ar
    24    30    33    1
    25    33    34    1
    26    33    35    1
    27    33    36    1
    28    30    31   ar
    29    31    32   ar
    30     7     8   ar
    31     8     9   ar
    32    14    15    1
    33    15    16    1
    34    20    21   ar
    35    21    22    1
    36    21    23   ar
    37    23    18   ar
    38    16    11    1
    39     9     1   ar
    40     9     5   ar
    41    32    27   ar
    42    39    40    1
    43    23    24    1
    44     8    10    1
@<TRIPOS>MOLECULE
*****
 40 44 0 0 0
SMALL
GASTEIGER

@<TRIPOS>ATOM
      1 C         -28.8946   49.2596   -6.7176 C.ar    1  UNL1        0.1317
      2 C         -30.2508   48.9917   -6.9678 C.ar    1  UNL1        0.0286
      3 C         -30.8278   49.3220   -8.2060 C.ar    1  UNL1        0.0782
      4 C         -30.0415   49.9147   -9.2137 C.ar    1  UNL1        0.3083
      5 N         -28.7233   50.1467   -8.9340 N.ar    1  UNL1       -0.1220
      6 C         -27.7268   50.6226   -9.7051 C.ar    1  UNL1        0.3137
      7 C         -26.5666   50.6048   -8.9426 C.ar    1  UNL1        0.1320
      8 N         -26.8357   50.1125   -7.7129 N.ar    1  UNL1       -0.2941
      9 C         -28.1551   49.8468   -7.7502 C.ar    1  UNL1        0.3123
     10 H         -26.2115   49.9790   -6.9634 H       1  UNL1        0.1718
     11 N         -28.2629   47.2719   -3.1651 N.3     1  UNL1       -0.2647
     12 C         -27.8594   46.7012   -4.4681 C.3     1  UNL1        0.0941
     13 C         -27.3072   47.8018   -5.3779 C.3     1  UNL1        0.1084
     14 N         -28.2874   48.8868   -5.4665 N.pl3   1  UNL1       -0.2988
     15 C         -28.7680   49.4553   -4.2062 C.3     1  UNL1        0.1084
     16 C         -29.2920   48.3233   -3.3182 C.3     1  UNL1        0.0941
     17 C         -28.6609   46.2285   -2.1926 C.3     1  UNL1        0.1199
     18 C         -30.3780   47.8066    0.5452 C.ar    1  UNL1        0.1165
     19 N         -29.2951   47.7199   -0.2575 N.ar    1  UNL1       -0.2344
     20 C         -29.5995   46.7242   -1.1159 C.ar    1  UNL1        0.0878
     21 C         -30.8595   46.2349   -0.8175 C.ar    1  UNL1        0.0499
     22 C         -31.5786   45.1053   -1.4845 C.3     1  UNL1        0.0511
     23 N         -31.3398   46.9152    0.2354 N.ar    1  UNL1       -0.3443
     24 H         -32.2527   46.7721    0.7223 H       1  UNL1        0.1668
     25 C         -29.1649   48.7096    2.5162 C.3     1  UNL1        0.0084
     26 C         -30.4610   48.7392    1.7133 C.3     1  UNL1        0.0637
     27 C         -25.2096   51.0153   -9.3685 C.ar    1  UNL1        0.0218
     28 C         -24.9584   51.2917  -10.7202 C.ar    1  UNL1        0.0013
     29 C         -23.6976   51.7221  -11.1393 C.ar    1  UNL1       -0.0042
     30 C         -22.6445   51.9003  -10.2133 C.ar    1  UNL1       -0.0228
     31 C         -22.9088   51.6085   -8.8571 C.ar    1  UNL1       -0.0042
     32 C         -24.1690   51.1711   -8.4417 C.ar    1  UNL1        0.0013
     33 C         -21.2468   52.4049  -10.6271 C.3     1  UNL1        0.0189
     34 C         -21.3940   53.5028  -11.7029 C.3     1  UNL1        0.0044
     35 C         -20.3488   51.2901  -11.2154 C.3     1  UNL1        0.0044
     36 C         -20.5237   52.9882   -9.3938 C.3     1  UNL1        0.0044
     37 C         -30.6485   50.2846  -10.5139 C.2     1  UNL1        0.4031
     38 O         -31.5205   51.1906  -10.5692 O.2     1  UNL1       -0.2383
     39 O         -30.2874   49.6296  -11.6897 O.3     1  UNL1       -0.4730
     40 H         -29.5482   48.9382  -11.7136 H       1  UNL1        0.2956
@<TRIPOS>BOND
     1    25    26    1
     2    26    18    1
     3    18    19   ar
     4    19    20   ar
     5    20    17    1
     6    17    11    1
     7    11    12    1
     8    12    13    1
     9    13    14    1
    10    14     1    1
    11     1     2   ar
    12     2     3   ar
    13     3     4   ar
    14     4    37    1
    15    37    38    2
    16    37    39    1
    17     4     5   ar
    18     5     6   ar
    19     6     7   ar
    20     7    27    1
    21    27    28   ar
    22    28    29   ar
    23    29    30   ar
    24    30    33    1
    25    33    34    1
    26    33    35    1
    27    33    36    1
    28    30    31   ar
    29    31    32   ar
    30     7     8   ar
    31     8     9   ar
    32    14    15    1
    33    15    16    1
    34    20    21   ar
    35    21    22    1
    36    21    23   ar
    37    23    18   ar
    38    16    11    1
    39     9     1   ar
    40     9     5   ar
    41    32    27   ar
    42    39    40    1
    43    23    24    1
    44     8    10    1
@<TRIPOS>MOLECULE
*****
 40 44 0 0 0
SMALL
GASTEIGER

@<TRIPOS>ATOM
      1 C         -28.8016   49.0922   -9.0278 C.ar    1  UNL1        0.1317
      2 C         -30.1141   49.2026   -9.5163 C.ar    1  UNL1        0.0286
      3 C         -30.4499   50.2049  -10.4425 C.ar    1  UNL1        0.0782
      4 C         -29.4631   51.1011  -10.8990 C.ar    1  UNL1        0.3083
      5 N         -28.1957   50.9510  -10.4085 N.ar    1  UNL1       -0.1220
      6 C         -27.0508   51.5949  -10.7063 C.ar    1  UNL1        0.3137
      7 C         -26.0383   51.0105   -9.9570 C.ar    1  UNL1        0.1320
      8 N         -26.5457   50.0059   -9.2085 N.ar    1  UNL1       -0.2941
      9 C         -27.8572   50.0036   -9.5129 C.ar    1  UNL1        0.3123
     10 H         -26.0670   49.4131   -8.5851 H       1  UNL1        0.1718
     11 N         -28.2710   47.0721   -5.4770 N.3     1  UNL1       -0.2647
     12 C         -29.5864   47.1518   -6.1473 C.3     1  UNL1        0.0941
     13 C         -29.4131   47.0409   -7.6644 C.3     1  UNL1        0.1084
     14 N         -28.4417   48.0426   -8.1102 N.pl3   1  UNL1       -0.2988
     15 C         -27.1385   48.0501   -7.4435 C.3     1  UNL1        0.1084
     16 C         -27.3548   48.1412   -5.9305 C.3     1  UNL1        0.0941
     17 C         -28.3930   47.0199   -4.0021 C.3     1  UNL1        0.1199
     18 C         -25.7019   48.6351   -2.2462 C.ar    1  UNL1        0.1165
     19 N         -26.9473   48.6801   -2.7673 N.ar    1  UNL1       -0.2344
     20 C         -27.1391   47.4429   -3.2709 C.ar    1  UNL1        0.0878
     21 C         -26.0097   46.6768   -3.0392 C.ar    1  UNL1        0.0499
     22 C         -25.7677   45.2618   -3.4605 C.3     1  UNL1        0.0511
     23 N         -25.1055   47.4370   -2.4016 N.ar    1  UNL1       -0.3443
     24 H         -24.1408   47.1656   -2.1070 H       1  UNL1        0.1668
     25 C         -25.0347   51.0011   -2.6052 C.3     1  UNL1        0.0084
     26 C         -25.0238   49.8229   -1.6372 C.3     1  UNL1        0.0637
     27 C         -24.6015   51.3669   -9.9625 C.ar    1  UNL1        0.0218
     28 C         -23.9765   51.7187  -11.1676 C.ar    1  UNL1        0.0013
     29 C         -22.6332   52.1001  -11.1911 C.ar    1  UNL1       -0.0042
     30 C         -21.8704   52.1517  -10.0022 C.ar    1  UNL1       -0.0228
     31 C         -22.5099   51.7851   -8.7976 C.ar    1  UNL1       -0.0042
     32 C         -23.8518   51.3969   -8.7780 C.ar    1  UNL1        0.0013
     33 C         -20.3942   52.5985   -9.9773 C.3     1  UNL1        0.0189
     34 C         -19.8453   52.4808   -8.5389 C.3     1  UNL1        0.0044
     35 C         -20.1957   54.0632  -10.4361 C.3     1  UNL1        0.0044
     36 C         -19.5668   51.6958  -10.9180 C.3     1  UNL1        0.0044
     37 C         -29.8150   52.1732  -11.8595 C.2     1  UNL1        0.4031
     38 O         -29.0195   52.4773  -12.7864 O.2     1  UNL1       -0.2383
     39 O         -31.0126   52.8768  -11.7466 O.3     1  UNL1       -0.4730
     40 H         -31.7157   52.6328  -11.0602 H       1  UNL1        0.2956
@<TRIPOS>BOND
     1    25    26    1
     2    26    18    1
     3    18    19   ar
     4    19    20   ar
     5    20    17    1
     6    17    11    1
     7    11    12    1
     8    12    13    1
     9    13    14    1
    10    14     1    1
    11     1     2   ar
    12     2     3   ar
    13     3     4   ar
    14     4    37    1
    15    37    38    2
    16    37    39    1
    17     4     5   ar
    18     5     6   ar
    19     6     7   ar
    20     7    27    1
    21    27    28   ar
    22    28    29   ar
    23    29    30   ar
    24    30    33    1
    25    33    34    1
    26    33    35    1
    27    33    36    1
    28    30    31   ar
    29    31    32   ar
    30     7     8   ar
    31     8     9   ar
    32    14    15    1
    33    15    16    1
    34    20    21   ar
    35    21    22    1
    36    21    23   ar
    37    23    18   ar
    38    16    11    1
    39     9     1   ar
    40     9     5   ar
    41    32    27   ar
    42    39    40    1
    43    23    24    1
    44     8    10    1
@<TRIPOS>MOLECULE
*****
 40 44 0 0 0
SMALL
GASTEIGER

@<TRIPOS>ATOM
      1 C         -29.1235   49.9655   -9.7210 C.ar    1  UNL1        0.1317
      2 C         -30.3075   49.9945   -8.9654 C.ar    1  UNL1        0.0286
      3 C         -30.3245   50.5755   -7.6858 C.ar    1  UNL1        0.0782
      4 C         -29.1507   51.1473   -7.1563 C.ar    1  UNL1        0.3083
      5 N         -28.0235   51.1094   -7.9294 N.ar    1  UNL1       -0.1220
      6 C         -26.7965   51.6274   -7.7286 C.ar    1  UNL1        0.3137
      7 C         -26.0372   51.3467   -8.8568 C.ar    1  UNL1        0.1320
      8 N         -26.7871   50.6705   -9.7553 N.ar    1  UNL1       -0.2941
      9 C         -27.9850   50.5481   -9.1531 C.ar    1  UNL1        0.3123
     10 H         -26.5193   50.3433  -10.6444 H       1  UNL1        0.1718
     11 N         -30.4753   48.7129  -13.4053 N.3     1  UNL1       -0.2647
     12 C         -30.1864   50.1336  -13.1151 C.3     1  UNL1        0.0941
     13 C         -28.9383   50.2494  -12.2360 C.3     1  UNL1        0.1084
     14 N         -29.1088   49.4086  -11.0487 N.pl3   1  UNL1       -0.2988
     15 C         -29.4519   48.0031  -11.2711 C.3     1  UNL1        0.1084
     16 C         -30.6899   47.9296  -12.1690 C.3     1  UNL1        0.0941
     17 C         -31.5810   48.5502  -14.3768 C.3     1  UNL1        0.1199
     18 C         -30.8463   45.8197  -16.5989 C.ar    1  UNL1        0.1165
     19 N         -31.1921   46.2630  -15.3708 N.ar    1  UNL1       -0.2344
     20 C         -31.2620   47.6032  -15.5114 C.ar    1  UNL1        0.0878
     21 C         -30.9626   47.9401  -16.8201 C.ar    1  UNL1        0.0499
     22 C         -30.8811   49.3121  -17.4109 C.3     1  UNL1        0.0511
     23 N         -30.6929   46.8125  -17.4968 N.ar    1  UNL1       -0.3443
     24 H         -30.4068   46.7242  -18.4975 H       1  UNL1        0.1668
     25 C         -29.6663   44.2518  -18.1226 C.3     1  UNL1        0.0084
     26 C         -30.5760   44.3794  -16.9054 C.3     1  UNL1        0.0637
     27 C         -24.6306   51.7338   -9.1076 C.ar    1  UNL1        0.0218
     28 C         -23.6131   51.2316   -8.2836 C.ar    1  UNL1        0.0013
     29 C         -22.2748   51.5483   -8.5269 C.ar    1  UNL1       -0.0042
     30 C         -21.9085   52.3740   -9.6141 C.ar    1  UNL1       -0.0228
     31 C         -22.9442   52.8808  -10.4295 C.ar    1  UNL1       -0.0042
     32 C         -24.2827   52.5683  -10.1794 C.ar    1  UNL1        0.0013
     33 C         -20.4414   52.7224   -9.9391 C.3     1  UNL1        0.0189
     34 C         -20.3289   54.2293  -10.2571 C.3     1  UNL1        0.0044
     35 C         -19.8883   51.9441  -11.1571 C.3     1  UNL1        0.0044
     36 C         -19.5505   52.3864   -8.7235 C.3     1  UNL1        0.0044
     37 C         -29.1565   51.7426   -5.7994 C.2     1  UNL1        0.4031
     38 O         -28.3257   51.3566   -4.9363 O.2     1  UNL1       -0.2383
     39 O         -30.0865   52.7181   -5.4449 O.3     1  UNL1       -0.4730
     40 H         -30.7356   53.1098   -6.1159 H       1  UNL1        0.2956
@<TRIPOS>BOND
     1    25    26    1
     2    26    18    1
     3    18    19   ar
     4    19    20   ar
     5    20    17    1
     6    17    11    1
     7    11    12    1
     8    12    13    1
     9    13    14    1
    10    14     1    1
    11     1     2   ar
    12     2     3   ar
    13     3     4   ar
    14     4    37    1
    15    37    38    2
    16    37    39    1
    17     4     5   ar
    18     5     6   ar
    19     6     7   ar
    20     7    27    1
    21    27    28   ar
    22    28    29   ar
    23    29    30   ar
    24    30    33    1
    25    33    34    1
    26    33    35    1
    27    33    36    1
    28    30    31   ar
    29    31    32   ar
    30     7     8   ar
    31     8     9   ar
    32    14    15    1
    33    15    16    1
    34    20    21   ar
    35    21    22    1
    36    21    23   ar
    37    23    18   ar
    38    16    11    1
    39     9     1   ar
    40     9     5   ar
    41    32    27   ar
    42    39    40    1
    43    23    24    1
    44     8    10    1
