@<TRIPOS>MOLECULE
*****
 46 51 0 0 0
SMALL
GASTEIGER

@<TRIPOS>ATOM
      1 C          13.0188   82.7908   25.6465 C.ar    1  UNL1        0.0702
      2 C          12.9534   83.1310   24.2859 C.ar    1  UNL1        0.0191
      3 C          13.5881   84.2836   23.8203 C.ar    1  UNL1        0.0356
      4 C          14.2718   85.1116   24.7243 C.ar    1  UNL1        0.1318
      5 N          14.3192   84.7626   26.0400 N.ar    1  UNL1       -0.2279
      6 C          13.7094   83.6450   26.5158 C.ar    1  UNL1        0.1149
      7 N          14.9557   86.2974   24.2771 N.pl3   1  UNL1       -0.2932
      8 C          14.5696   87.6311   24.7592 C.3     1  UNL1        0.0923
      9 C          14.4467   88.6301   23.5931 C.3     1  UNL1        0.0252
     10 C          15.3323   88.2668   22.3733 C.3     1  UNL1        0.0472
     11 C          16.5840   87.4901   22.8220 C.3     1  UNL1        0.0252
     12 C          16.1723   86.1552   23.4633 C.3     1  UNL1        0.0923
     13 C          15.7212   89.5075   21.5458 C.3     1  UNL1        0.2054
     14 O          15.1457   89.4471   20.2379 O.3     1  UNL1       -0.4755
     15 C          14.2064   88.5079   19.7807 C.ar    1  UNL1        0.1388
     16 C          12.8647   88.8354   19.5093 C.ar    1  UNL1        0.0369
     17 C          11.9831   87.8566   19.0478 C.ar    1  UNL1        0.0033
     18 C          12.4252   86.5477   18.8486 C.ar    1  UNL1        0.0066
     19 C          13.7610   86.1995   19.1118 C.ar    1  UNL1        0.0785
     20 C          14.6460   87.1951   19.5653 C.ar    1  UNL1        0.0433
     21 C          14.2208   84.8070   18.8889 C.2     1  UNL1        0.3381
     22 O          13.8339   84.1770   17.8686 O.2     1  UNL1       -0.2451
     23 O          15.0644   84.1586   19.7902 O.3     1  UNL1       -0.4771
     24 H          15.3286   84.5640   20.6787 H       1  UNL1        0.2954
     25 C          11.0295   81.2277   25.7982 C.2     1  UNL1        0.2839
     26 O          10.5582   81.5692   24.6802 O.2     1  UNL1       -0.2665
     27 N          12.3583   81.6248   26.1680 N.am    1  UNL1       -0.2766
     28 H          12.9134   80.9713   26.7646 H       1  UNL1        0.1553
     29 C           7.6123   77.5221   29.0720 C.ar    1  UNL1        0.0002
     30 C           8.1974   78.3016   30.1066 C.ar    1  UNL1        0.0031
     31 C           9.1057   79.3319   29.8068 C.ar    1  UNL1        0.0375
     32 C           9.4127   79.5632   28.4704 C.ar    1  UNL1        0.1452
     33 O          10.2266   80.4684   27.9849 O.2     1  UNL1       -0.4492
     34 C          10.2255   80.3517   26.6685 C.ar    1  UNL1        0.1946
     35 C           9.3838   79.3010   26.2820 C.ar    1  UNL1        0.0202
     36 C           9.1015   78.7910   24.9010 C.3     1  UNL1        0.0345
     37 C           8.8579   78.8198   27.4645 C.ar    1  UNL1        0.0337
     38 C           7.9530   77.7904   27.7245 C.ar    1  UNL1        0.0028
     39 C           4.8324   74.3710   30.0233 C.ar    1  UNL1        0.1387
     40 C           5.9186   74.1272   29.1765 C.ar    1  UNL1        0.0369
     41 C           6.8222   75.1473   28.8664 C.ar    1  UNL1        0.0031
     42 C           6.6531   76.4371   29.4003 C.ar    1  UNL1        0.0002
     43 C           5.5607   76.6814   30.2514 C.ar    1  UNL1        0.0031
     44 C           4.6584   75.6595   30.5613 C.ar    1  UNL1        0.0369
     45 C           3.5668   72.3193   29.3606 C.3     1  UNL1        0.2525
     46 O           3.9546   73.3132   30.3035 O.3     1  UNL1       -0.4714
@<TRIPOS>BOND
     1    45    46    1
     2    46    39    1
     3    39    40   ar
     4    40    41   ar
     5    41    42   ar
     6    42    29    1
     7    29    30   ar
     8    30    31   ar
     9    31    32   ar
    10    32    33   ar
    11    33    34   ar
    12    34    25    1
    13    25    26    2
    14    25    27   am
    15    27     1    1
    16     1     2   ar
    17     2     3   ar
    18     3     4   ar
    19     4     7    1
    20     7     8    1
    21     8     9    1
    22     9    10    1
    23    10    13    1
    24    13    14    1
    25    14    15    1
    26    15    16   ar
    27    16    17   ar
    28    17    18   ar
    29    18    19   ar
    30    19    21    1
    31    21    22    2
    32    21    23    1
    33    19    20   ar
    34    10    11    1
    35    11    12    1
    36     4     5   ar
    37     5     6   ar
    38    34    35   ar
    39    35    36    1
    40    35    37   ar
    41    37    38   ar
    42    42    43   ar
    43    43    44   ar
    44    44    39   ar
    45    38    29   ar
    46    37    32   ar
    47     6     1   ar
    48    12     7    1
    49    20    15   ar
    50    27    28    1
    51    23    24    1
@<TRIPOS>MOLECULE
*****
 46 51 0 0 0
SMALL
GASTEIGER

@<TRIPOS>ATOM
      1 C          13.0831   83.1150   25.1379 C.ar    1  UNL1        0.0702
      2 C          13.5519   84.2166   25.8714 C.ar    1  UNL1        0.0191
      3 C          14.1202   85.3073   25.2117 C.ar    1  UNL1        0.0356
      4 C          14.2409   85.2857   23.8134 C.ar    1  UNL1        0.1318
      5 N          13.7816   84.2048   23.1234 N.ar    1  UNL1       -0.2279
      6 C          13.2242   83.1320   23.7443 C.ar    1  UNL1        0.1149
      7 N          14.8029   86.4014   23.0971 N.pl3   1  UNL1       -0.2932
      8 C          14.4918   87.7876   23.4739 C.3     1  UNL1        0.0923
      9 C          14.1271   88.6315   22.2379 C.3     1  UNL1        0.0252
     10 C          14.7675   88.1118   20.9250 C.3     1  UNL1        0.0472
     11 C          16.0968   87.3911   21.2162 C.3     1  UNL1        0.0252
     12 C          15.8421   86.1505   22.0873 C.3     1  UNL1        0.0923
     13 C          14.9656   89.2355   19.8889 C.3     1  UNL1        0.2054
     14 O          14.0630   89.0792   18.7906 O.3     1  UNL1       -0.4755
     15 C          14.2898   88.3332   17.6220 C.ar    1  UNL1        0.1388
     16 C          14.4130   88.9211   16.3491 C.ar    1  UNL1        0.0369
     17 C          14.6475   88.1238   15.2277 C.ar    1  UNL1        0.0033
     18 C          14.7651   86.7393   15.3599 C.ar    1  UNL1        0.0066
     19 C          14.6470   86.1318   16.6217 C.ar    1  UNL1        0.0785
     20 C          14.4226   86.9442   17.7485 C.ar    1  UNL1        0.0433
     21 C          14.7816   84.6603   16.7504 C.2     1  UNL1        0.3381
     22 O          15.8885   84.1103   16.5060 O.2     1  UNL1       -0.2451
     23 O          13.7063   83.8538   17.1219 O.3     1  UNL1       -0.4771
     24 H          12.7668   84.2131   17.2304 H       1  UNL1        0.2954
     25 C          11.2815   81.3485   25.3765 C.2     1  UNL1        0.2839
     26 O          10.8854   81.4589   24.1850 O.2     1  UNL1       -0.2665
     27 N          12.5133   81.9631   25.7828 N.am    1  UNL1       -0.2766
     28 H          13.0789   81.4809   26.5169 H       1  UNL1        0.1553
     29 C           7.9733   77.7845   28.9093 C.ar    1  UNL1        0.0002
     30 C           8.5197   78.6638   29.8833 C.ar    1  UNL1        0.0031
     31 C           9.3922   79.7009   29.5093 C.ar    1  UNL1        0.0375
     32 C           9.7027   79.8384   28.1608 C.ar    1  UNL1        0.1452
     33 O          10.4871   80.7328   27.6110 O.2     1  UNL1       -0.4492
     34 C          10.5023   80.5137   26.3078 C.ar    1  UNL1        0.1946
     35 C           9.7035   79.4052   25.9995 C.ar    1  UNL1        0.0202
     36 C           9.4528   78.7788   24.6611 C.3     1  UNL1        0.0345
     37 C           9.1849   78.9985   27.2128 C.ar    1  UNL1        0.0337
     38 C           8.3161   77.9594   27.5470 C.ar    1  UNL1        0.0028
     39 C           5.3012   74.6158   30.0850 C.ar    1  UNL1        0.1387
     40 C           5.9130   74.5981   28.8273 C.ar    1  UNL1        0.0369
     41 C           6.7804   75.6244   28.4433 C.ar    1  UNL1        0.0031
     42 C           7.0517   76.6933   29.3156 C.ar    1  UNL1        0.0002
     43 C           6.4362   76.7105   30.5798 C.ar    1  UNL1        0.0031
     44 C           5.5695   75.6825   30.9627 C.ar    1  UNL1        0.0369
     45 C           3.7224   72.7754   29.4762 C.3     1  UNL1        0.2525
     46 O           4.4392   73.5619   30.4223 O.3     1  UNL1       -0.4714
@<TRIPOS>BOND
     1    45    46    1
     2    46    39    1
     3    39    40   ar
     4    40    41   ar
     5    41    42   ar
     6    42    29    1
     7    29    30   ar
     8    30    31   ar
     9    31    32   ar
    10    32    33   ar
    11    33    34   ar
    12    34    25    1
    13    25    26    2
    14    25    27   am
    15    27     1    1
    16     1     2   ar
    17     2     3   ar
    18     3     4   ar
    19     4     7    1
    20     7     8    1
    21     8     9    1
    22     9    10    1
    23    10    13    1
    24    13    14    1
    25    14    15    1
    26    15    16   ar
    27    16    17   ar
    28    17    18   ar
    29    18    19   ar
    30    19    21    1
    31    21    22    2
    32    21    23    1
    33    19    20   ar
    34    10    11    1
    35    11    12    1
    36     4     5   ar
    37     5     6   ar
    38    34    35   ar
    39    35    36    1
    40    35    37   ar
    41    37    38   ar
    42    42    43   ar
    43    43    44   ar
    44    44    39   ar
    45    38    29   ar
    46    37    32   ar
    47     6     1   ar
    48    12     7    1
    49    20    15   ar
    50    27    28    1
    51    23    24    1
@<TRIPOS>MOLECULE
*****
 46 51 0 0 0
SMALL
GASTEIGER

@<TRIPOS>ATOM
      1 C          10.8125   79.6975   24.6733 C.ar    1  UNL1        0.0702
      2 C          12.1855   79.4437   24.8193 C.ar    1  UNL1        0.0191
      3 C          13.0684   80.4929   25.0796 C.ar    1  UNL1        0.0356
      4 C          12.5780   81.8049   25.1712 C.ar    1  UNL1        0.1318
      5 N          11.2423   82.0269   25.0232 N.ar    1  UNL1       -0.2279
      6 C          10.3641   81.0210   24.7700 C.ar    1  UNL1        0.1149
      7 N          13.4558   82.9096   25.4591 N.pl3   1  UNL1       -0.2932
      8 C          14.3697   82.8811   26.6099 C.3     1  UNL1        0.0923
      9 C          14.3001   84.1967   27.4082 C.3     1  UNL1        0.0252
     10 C          13.8675   85.4154   26.5529 C.3     1  UNL1        0.0472
     11 C          14.2865   85.2248   25.0834 C.3     1  UNL1        0.0252
     12 C          13.5657   84.0061   24.4852 C.3     1  UNL1        0.0923
     13 C          14.4130   86.7434   27.1134 C.3     1  UNL1        0.2054
     14 O          14.9356   87.5619   26.0635 O.3     1  UNL1       -0.4755
     15 C          16.2113   88.1484   26.0172 C.ar    1  UNL1        0.1388
     16 C          16.8351   88.7163   27.1439 C.ar    1  UNL1        0.0369
     17 C          18.1093   89.2754   27.0331 C.ar    1  UNL1        0.0033
     18 C          18.7755   89.2727   25.8066 C.ar    1  UNL1        0.0066
     19 C          18.1717   88.7094   24.6695 C.ar    1  UNL1        0.0785
     20 C          16.8921   88.1371   24.7927 C.ar    1  UNL1        0.0433
     21 C          18.8930   88.7056   23.3734 C.2     1  UNL1        0.3381
     22 O          18.5236   89.4796   22.4504 O.2     1  UNL1       -0.2451
     23 O          19.9695   87.8521   23.1340 O.3     1  UNL1       -0.4771
     24 H          20.2524   87.1342   23.7883 H       1  UNL1        0.2954
     25 C           9.8582   77.9120   23.1485 C.2     1  UNL1        0.2839
     26 O          10.9139   77.7968   22.4694 O.2     1  UNL1       -0.2665
     27 N           9.8752   78.6468   24.3814 N.am    1  UNL1       -0.2766
     28 H           9.2420   78.3261   25.1478 H       1  UNL1        0.1553
     29 C           4.8002   75.3463   21.1584 C.ar    1  UNL1        0.0002
     30 C           5.3392   74.2759   21.9227 C.ar    1  UNL1        0.0031
     31 C           6.5647   74.4174   22.5970 C.ar    1  UNL1        0.0375
     32 C           7.2307   75.6336   22.4925 C.ar    1  UNL1        0.1452
     33 O           8.3738   75.9658   23.0407 O.2     1  UNL1       -0.4492
     34 C           8.6435   77.2124   22.6944 C.ar    1  UNL1        0.1946
     35 C           7.6332   77.7064   21.8595 C.ar    1  UNL1        0.0202
     36 C           7.5373   79.0519   21.2059 C.3     1  UNL1        0.0345
     37 C           6.7241   76.6720   21.7594 C.ar    1  UNL1        0.0337
     38 C           5.5113   76.5677   21.0779 C.ar    1  UNL1        0.0028
     39 C           1.0416   74.8842   19.1038 C.ar    1  UNL1        0.1387
     40 C           1.8616   75.9870   18.8436 C.ar    1  UNL1        0.0369
     41 C           3.0815   76.1394   19.5083 C.ar    1  UNL1        0.0031
     42 C           3.5043   75.1860   20.4514 C.ar    1  UNL1        0.0002
     43 C           2.6793   74.0777   20.7126 C.ar    1  UNL1        0.0031
     44 C           1.4597   73.9263   20.0460 C.ar    1  UNL1        0.0369
     45 C          -1.3223   74.0957   18.9013 C.3     1  UNL1        0.2525
     46 O          -0.1728   74.7774   18.4099 O.3     1  UNL1       -0.4714
@<TRIPOS>BOND
     1    45    46    1
     2    46    39    1
     3    39    40   ar
     4    40    41   ar
     5    41    42   ar
     6    42    29    1
     7    29    30   ar
     8    30    31   ar
     9    31    32   ar
    10    32    33   ar
    11    33    34   ar
    12    34    25    1
    13    25    26    2
    14    25    27   am
    15    27     1    1
    16     1     2   ar
    17     2     3   ar
    18     3     4   ar
    19     4     7    1
    20     7     8    1
    21     8     9    1
    22     9    10    1
    23    10    13    1
    24    13    14    1
    25    14    15    1
    26    15    16   ar
    27    16    17   ar
    28    17    18   ar
    29    18    19   ar
    30    19    21    1
    31    21    22    2
    32    21    23    1
    33    19    20   ar
    34    10    11    1
    35    11    12    1
    36     4     5   ar
    37     5     6   ar
    38    34    35   ar
    39    35    36    1
    40    35    37   ar
    41    37    38   ar
    42    42    43   ar
    43    43    44   ar
    44    44    39   ar
    45    38    29   ar
    46    37    32   ar
    47     6     1   ar
    48    12     7    1
    49    20    15   ar
    50    27    28    1
    51    23    24    1
@<TRIPOS>MOLECULE
*****
 46 51 0 0 0
SMALL
GASTEIGER

@<TRIPOS>ATOM
      1 C          12.9901   82.4413   25.5957 C.ar    1  UNL1        0.0702
      2 C          13.6536   83.3367   26.4495 C.ar    1  UNL1        0.0191
      3 C          14.1480   84.5435   25.9523 C.ar    1  UNL1        0.0356
      4 C          13.9980   84.8452   24.5896 C.ar    1  UNL1        0.1318
      5 N          13.3533   83.9596   23.7801 N.ar    1  UNL1       -0.2279
      6 C          12.8632   82.7792   24.2422 C.ar    1  UNL1        0.1149
      7 N          14.4768   86.0894   24.0453 N.pl3   1  UNL1       -0.2932
      8 C          13.6999   87.3304   24.1742 C.3     1  UNL1        0.0923
      9 C          13.6176   88.0774   22.8295 C.3     1  UNL1        0.0252
     10 C          14.8127   87.7838   21.8863 C.3     1  UNL1        0.0472
     11 C          16.0750   87.4399   22.6986 C.3     1  UNL1        0.0252
     12 C          15.8445   86.1540   23.5086 C.3     1  UNL1        0.0923
     13 C          15.0847   88.9463   20.9116 C.3     1  UNL1        0.2054
     14 O          14.7484   88.5756   19.5719 O.3     1  UNL1       -0.4755
     15 C          14.3003   87.3160   19.1406 C.ar    1  UNL1        0.1388
     16 C          12.9461   86.9335   19.1684 C.ar    1  UNL1        0.0369
     17 C          12.5647   85.6692   18.7163 C.ar    1  UNL1        0.0033
     18 C          13.5215   84.7766   18.2305 C.ar    1  UNL1        0.0066
     19 C          14.8788   85.1387   18.1924 C.ar    1  UNL1        0.0785
     20 C          15.2531   86.4196   18.6388 C.ar    1  UNL1        0.0433
     21 C          15.8852   84.1843   17.6667 C.2     1  UNL1        0.3381
     22 O          16.2601   83.2157   18.3799 O.2     1  UNL1       -0.2451
     23 O          16.4489   84.3345   16.4001 O.3     1  UNL1       -0.4771
     24 H          16.2743   85.1430   15.8176 H       1  UNL1        0.2954
     25 C          12.4101   79.9981   25.2523 C.2     1  UNL1        0.2839
     26 O          13.1927   79.8539   24.2748 O.2     1  UNL1       -0.2665
     27 N          12.4879   81.1784   26.0653 N.am    1  UNL1       -0.2766
     28 H          12.2690   81.0842   27.0824 H       1  UNL1        0.1553
     29 C           8.5104   75.7173   26.8627 C.ar    1  UNL1        0.0002
     30 C           9.2434   75.0236   25.8617 C.ar    1  UNL1        0.0031
     31 C          10.2968   75.6516   25.1744 C.ar    1  UNL1        0.0375
     32 C          10.5977   76.9687   25.5037 C.ar    1  UNL1        0.1452
     33 O          11.5344   77.7253   24.9864 O.2     1  UNL1       -0.4492
     34 C          11.4835   78.9020   25.5860 C.ar    1  UNL1        0.1946
     35 C          10.4447   78.9160   26.5253 C.ar    1  UNL1        0.0202
     36 C          10.0014   80.0419   27.4100 C.3     1  UNL1        0.0345
     37 C           9.8997   77.6488   26.4642 C.ar    1  UNL1        0.0337
     38 C           8.8493   77.0577   27.1666 C.ar    1  UNL1        0.0028
     39 C           5.2898   73.7657   28.9559 C.ar    1  UNL1        0.1387
     40 C           5.9993   74.8090   29.5597 C.ar    1  UNL1        0.0369
     41 C           7.0442   75.4441   28.8830 C.ar    1  UNL1        0.0031
     42 C           7.4005   75.0434   27.5831 C.ar    1  UNL1        0.0002
     43 C           6.6869   73.9943   26.9769 C.ar    1  UNL1        0.0031
     44 C           5.6412   73.3608   27.6548 C.ar    1  UNL1        0.0369
     45 C           3.4564   72.0826   29.1930 C.3     1  UNL1        0.2525
     46 O           4.2495   73.1614   29.6772 O.3     1  UNL1       -0.4714
@<TRIPOS>BOND
     1    45    46    1
     2    46    39    1
     3    39    40   ar
     4    40    41   ar
     5    41    42   ar
     6    42    29    1
     7    29    30   ar
     8    30    31   ar
     9    31    32   ar
    10    32    33   ar
    11    33    34   ar
    12    34    25    1
    13    25    26    2
    14    25    27   am
    15    27     1    1
    16     1     2   ar
    17     2     3   ar
    18     3     4   ar
    19     4     7    1
    20     7     8    1
    21     8     9    1
    22     9    10    1
    23    10    13    1
    24    13    14    1
    25    14    15    1
    26    15    16   ar
    27    16    17   ar
    28    17    18   ar
    29    18    19   ar
    30    19    21    1
    31    21    22    2
    32    21    23    1
    33    19    20   ar
    34    10    11    1
    35    11    12    1
    36     4     5   ar
    37     5     6   ar
    38    34    35   ar
    39    35    36    1
    40    35    37   ar
    41    37    38   ar
    42    42    43   ar
    43    43    44   ar
    44    44    39   ar
    45    38    29   ar
    46    37    32   ar
    47     6     1   ar
    48    12     7    1
    49    20    15   ar
    50    27    28    1
    51    23    24    1
@<TRIPOS>MOLECULE
*****
 46 51 0 0 0
SMALL
GASTEIGER

@<TRIPOS>ATOM
      1 C           9.1736   77.0436   21.7948 C.ar    1  UNL1        0.0702
      2 C           9.1651   75.6425   21.7063 C.ar    1  UNL1        0.0191
      3 C           8.0401   74.9779   21.2156 C.ar    1  UNL1        0.0356
      4 C           6.9099   75.7176   20.8334 C.ar    1  UNL1        0.1318
      5 N           6.9405   77.0758   20.9310 N.ar    1  UNL1       -0.2279
      6 C           8.0249   77.7442   21.4051 C.ar    1  UNL1        0.1149
      7 N           5.7391   75.0679   20.3035 N.pl3   1  UNL1       -0.2932
      8 C           5.3856   75.1697   18.8804 C.3     1  UNL1        0.0923
      9 C           3.8937   75.5085   18.7007 C.3     1  UNL1        0.0252
     10 C           3.0068   75.0351   19.8811 C.3     1  UNL1        0.0472
     11 C           3.6173   73.7930   20.5561 C.3     1  UNL1        0.0252
     12 C           4.9850   74.1439   21.1637 C.3     1  UNL1        0.0923
     13 C           1.5528   74.7669   19.4461 C.3     1  UNL1        0.2054
     14 O           0.6774   75.7819   19.9450 O.3     1  UNL1       -0.4755
     15 C           0.9929   76.7618   20.9009 C.ar    1  UNL1        0.1388
     16 C           0.2461   77.9439   21.0621 C.ar    1  UNL1        0.0369
     17 C           0.6070   78.8743   22.0380 C.ar    1  UNL1        0.0033
     18 C           1.7079   78.6387   22.8630 C.ar    1  UNL1        0.0066
     19 C           2.4664   77.4643   22.7203 C.ar    1  UNL1        0.0785
     20 C           2.0884   76.5260   21.7420 C.ar    1  UNL1        0.0433
     21 C           3.6294   77.2215   23.6082 C.2     1  UNL1        0.3381
     22 O           3.4584   77.1412   24.8539 O.2     1  UNL1       -0.2451
     23 O           4.9238   77.0938   23.1054 O.3     1  UNL1       -0.4771
     24 H           5.1488   77.2512   22.1317 H       1  UNL1        0.2954
     25 C          10.6270   77.8372   23.7135 C.2     1  UNL1        0.2839
     26 O          10.2555   76.9213   24.4957 O.2     1  UNL1       -0.2665
     27 N          10.3042   77.7624   22.3169 N.am    1  UNL1       -0.2766
     28 H          10.9895   78.1613   21.6369 H       1  UNL1        0.1553
     29 C          13.7664   82.4925   25.8579 C.ar    1  UNL1        0.0002
     30 C          14.7979   81.5195   25.7604 C.ar    1  UNL1        0.0031
     31 C          14.5234   80.2226   25.2921 C.ar    1  UNL1        0.0375
     32 C          13.2149   79.9230   24.9290 C.ar    1  UNL1        0.1452
     33 O          12.7559   78.7840   24.4714 O.2     1  UNL1       -0.4492
     34 C          11.4618   78.9285   24.2458 C.ar    1  UNL1        0.1946
     35 C          11.0565   80.2225   24.5969 C.ar    1  UNL1        0.0202
     36 C           9.6821   80.8179   24.5393 C.3     1  UNL1        0.0345
     37 C          12.2120   80.8495   25.0189 C.ar    1  UNL1        0.0337
     38 C          12.4475   82.1454   25.4783 C.ar    1  UNL1        0.0028
     39 C          14.6406   86.4610   27.2895 C.ar    1  UNL1        0.1387
     40 C          14.4460   86.2259   25.9245 C.ar    1  UNL1        0.0369
     41 C          14.1620   84.9398   25.4573 C.ar    1  UNL1        0.0031
     42 C          14.0682   83.8597   26.3527 C.ar    1  UNL1        0.0002
     43 C          14.2641   84.0968   27.7248 C.ar    1  UNL1        0.0031
     44 C          14.5471   85.3842   28.1906 C.ar    1  UNL1        0.0369
     45 C          14.3582   88.3850   28.8608 C.3     1  UNL1        0.2525
     46 O          14.9228   87.7700   27.7073 O.3     1  UNL1       -0.4714
@<TRIPOS>BOND
     1    45    46    1
     2    46    39    1
     3    39    40   ar
     4    40    41   ar
     5    41    42   ar
     6    42    29    1
     7    29    30   ar
     8    30    31   ar
     9    31    32   ar
    10    32    33   ar
    11    33    34   ar
    12    34    25    1
    13    25    26    2
    14    25    27   am
    15    27     1    1
    16     1     2   ar
    17     2     3   ar
    18     3     4   ar
    19     4     7    1
    20     7     8    1
    21     8     9    1
    22     9    10    1
    23    10    13    1
    24    13    14    1
    25    14    15    1
    26    15    16   ar
    27    16    17   ar
    28    17    18   ar
    29    18    19   ar
    30    19    21    1
    31    21    22    2
    32    21    23    1
    33    19    20   ar
    34    10    11    1
    35    11    12    1
    36     4     5   ar
    37     5     6   ar
    38    34    35   ar
    39    35    36    1
    40    35    37   ar
    41    37    38   ar
    42    42    43   ar
    43    43    44   ar
    44    44    39   ar
    45    38    29   ar
    46    37    32   ar
    47     6     1   ar
    48    12     7    1
    49    20    15   ar
    50    27    28    1
    51    23    24    1
@<TRIPOS>MOLECULE
*****
 46 51 0 0 0
SMALL
GASTEIGER

@<TRIPOS>ATOM
      1 C          12.9059   82.3944   24.9575 C.ar    1  UNL1        0.0702
      2 C          14.1503   82.2362   24.3272 C.ar    1  UNL1        0.0191
      3 C          14.7800   83.3315   23.7341 C.ar    1  UNL1        0.0356
      4 C          14.1507   84.5861   23.7518 C.ar    1  UNL1        0.1318
      5 N          12.9422   84.7147   24.3668 N.ar    1  UNL1       -0.2279
      6 C          12.3108   83.6625   24.9513 C.ar    1  UNL1        0.1149
      7 N          14.7794   85.7428   23.1684 N.pl3   1  UNL1       -0.2932
      8 C          15.1692   86.8978   23.9897 C.3     1  UNL1        0.0923
      9 C          14.7156   88.2196   23.3415 C.3     1  UNL1        0.0252
     10 C          14.5824   88.1368   21.7990 C.3     1  UNL1        0.0472
     11 C          15.5541   87.0893   21.2246 C.3     1  UNL1        0.0252
     12 C          15.1979   85.6929   21.7595 C.3     1  UNL1        0.0923
     13 C          14.7861   89.5065   21.1224 C.3     1  UNL1        0.2054
     14 O          14.9326   89.3578   19.7075 O.3     1  UNL1       -0.4755
     15 C          13.8997   89.3608   18.7554 C.ar    1  UNL1        0.1388
     16 C          12.5419   89.5029   19.0979 C.ar    1  UNL1        0.0369
     17 C          11.5638   89.5072   18.1021 C.ar    1  UNL1        0.0033
     18 C          11.9241   89.3742   16.7602 C.ar    1  UNL1        0.0066
     19 C          13.2740   89.2327   16.3960 C.ar    1  UNL1        0.0785
     20 C          14.2546   89.2415   17.4052 C.ar    1  UNL1        0.0433
     21 C          13.6451   89.0999   14.9661 C.2     1  UNL1        0.3381
     22 O          14.8605   89.0528   14.6377 O.2     1  UNL1       -0.2451
     23 O          12.6819   89.0409   13.9594 O.3     1  UNL1       -0.4771
     24 H          11.6958   89.1781   14.1392 H       1  UNL1        0.2954
     25 C          10.9083   80.8475   25.1584 C.2     1  UNL1        0.2839
     26 O          10.5007   81.0704   23.9866 O.2     1  UNL1       -0.2665
     27 N          12.2152   81.2858   25.5587 N.am    1  UNL1       -0.2766
     28 H          12.7349   80.6992   26.2494 H       1  UNL1        0.1553
     29 C           7.3194   77.4737   28.6027 C.ar    1  UNL1        0.0002
     30 C           7.7922   78.4024   29.5693 C.ar    1  UNL1        0.0031
     31 C           8.6956   79.4183   29.2112 C.ar    1  UNL1        0.0375
     32 C           9.1108   79.4852   27.8857 C.ar    1  UNL1        0.1452
     33 O           9.9396   80.3494   27.3530 O.2     1  UNL1       -0.4492
     34 C          10.0553   80.0627   26.0681 C.ar    1  UNL1        0.1946
     35 C           9.2781   78.9399   25.7565 C.ar    1  UNL1        0.0202
     36 C           9.1297   78.2446   24.4369 C.3     1  UNL1        0.0345
     37 C           8.6648   78.5972   26.9451 C.ar    1  UNL1        0.0337
     38 C           7.7681   77.5772   27.2641 C.ar    1  UNL1        0.0028
     39 C           4.5479   74.3729   29.7281 C.ar    1  UNL1        0.1387
     40 C           4.6915   74.7438   28.3871 C.ar    1  UNL1        0.0369
     41 C           5.5899   75.7490   28.0191 C.ar    1  UNL1        0.0031
     42 C           6.3642   76.4055   28.9921 C.ar    1  UNL1        0.0002
     43 C           6.2192   76.0322   30.3400 C.ar    1  UNL1        0.0031
     44 C           5.3207   75.0257   30.7063 C.ar    1  UNL1        0.0369
     45 C           3.5139   72.1314   29.3319 C.3     1  UNL1        0.2525
     46 O           3.6329   73.3580   30.0452 O.3     1  UNL1       -0.4714
@<TRIPOS>BOND
     1    45    46    1
     2    46    39    1
     3    39    40   ar
     4    40    41   ar
     5    41    42   ar
     6    42    29    1
     7    29    30   ar
     8    30    31   ar
     9    31    32   ar
    10    32    33   ar
    11    33    34   ar
    12    34    25    1
    13    25    26    2
    14    25    27   am
    15    27     1    1
    16     1     2   ar
    17     2     3   ar
    18     3     4   ar
    19     4     7    1
    20     7     8    1
    21     8     9    1
    22     9    10    1
    23    10    13    1
    24    13    14    1
    25    14    15    1
    26    15    16   ar
    27    16    17   ar
    28    17    18   ar
    29    18    19   ar
    30    19    21    1
    31    21    22    2
    32    21    23    1
    33    19    20   ar
    34    10    11    1
    35    11    12    1
    36     4     5   ar
    37     5     6   ar
    38    34    35   ar
    39    35    36    1
    40    35    37   ar
    41    37    38   ar
    42    42    43   ar
    43    43    44   ar
    44    44    39   ar
    45    38    29   ar
    46    37    32   ar
    47     6     1   ar
    48    12     7    1
    49    20    15   ar
    50    27    28    1
    51    23    24    1
