@<TRIPOS>MOLECULE
*****
 54 60 0 0 0
SMALL
GASTEIGER

@<TRIPOS>ATOM
      1 C          58.4701   84.0869   11.1042 C.ar    1  UNL1        0.0481
      2 C          58.4035   82.7733   10.6125 C.ar    1  UNL1        0.0176
      3 C          58.3058   81.6932   11.4940 C.ar    1  UNL1        0.0382
      4 C          58.2735   81.9024   12.8772 C.ar    1  UNL1        0.1388
      5 C          58.3296   83.2197   13.3718 C.ar    1  UNL1        0.0382
      6 C          58.4287   84.3002   12.4904 C.ar    1  UNL1        0.0176
      7 N          59.3080   87.2169    8.4353 N.pl3   1  UNL1       -0.3041
      8 C          59.2188   85.8433    7.9257 C.3     1  UNL1        0.1122
      9 C          58.2469   85.0336    8.7815 C.3     1  UNL1        0.1122
     10 N          58.5704   85.2056   10.2028 N.pl3   1  UNL1       -0.3041
     11 C          58.6694   86.5749   10.7225 C.3     1  UNL1        0.1122
     12 C          59.6237   87.4015    9.8570 C.3     1  UNL1        0.1122
     13 C          59.5771   90.4795    5.7126 C.ar    1  UNL1        0.0709
     14 C          60.6284   90.2129    6.6025 C.ar    1  UNL1        0.0190
     15 C          60.5442   89.1410    7.4954 C.ar    1  UNL1        0.0160
     16 C          59.4034   88.3211    7.5158 C.ar    1  UNL1        0.0480
     17 C          58.3469   88.5973    6.6338 C.ar    1  UNL1        0.0160
     18 C          58.4318   89.6694    5.7415 C.ar    1  UNL1        0.0190
     19 N          60.4294   93.0765    3.3292 N.ar    1  UNL1       -0.2013
     20 N          59.2117   93.4737    3.6712 N.ar    1  UNL1       -0.1319
     21 C          58.7561   92.5683    4.5619 C.ar    1  UNL1        0.2197
     22 N          57.4376   92.6111    5.1092 N.pl3   1  UNL1       -0.3273
     23 N          59.6604   91.5924    4.8063 N.ar    1  UNL1       -0.2309
     24 C          60.6964   91.9466    4.0220 C.ar    1  UNL1        0.3531
     25 O          61.7889   91.3195    3.9747 O.2     1  UNL1       -0.2443
     26 H          57.0630   91.8259    5.6846 H       1  UNL1        0.1452
     27 H          56.8056   93.4098    4.8805 H       1  UNL1        0.1452
     28 C          61.2896   93.8397    2.4119 C.3     1  UNL1        0.1100
     29 C          60.5000   94.8499    1.5655 C.3     1  UNL1        0.0265
     30 C          63.6902   93.1013    1.7881 C.3     1  UNL1        0.0021
     31 C          62.1883   92.9108    1.5671 C.3     1  UNL1        0.0245
     32 O          58.1778   80.7785   13.7141 O.3     1  UNL1       -0.4727
     33 C          59.2574   79.9129   14.0689 C.3     1  UNL1        0.2374
     34 C          60.5540   80.3312   13.3624 C.3     1  UNL1        0.1909
     35 C          61.7510   79.5564   13.8332 C.3     1  UNL1        0.1783
     36 O          62.8169   80.4510   13.8121 O.3     1  UNL1       -0.3271
     37 C          62.2534   81.7463   13.6933 C.3     1  UNL1        0.2232
     38 O          60.8433   81.6611   13.6455 O.3     1  UNL1       -0.3258
     39 C          62.7744   82.4375   12.4278 C.ar    1  UNL1        0.0404
     40 C          61.8661   83.0990   11.5712 C.ar    1  UNL1        0.0021
     41 C          62.2999   83.6993   10.3883 C.ar    1  UNL1        0.0113
     42 C          63.6440   83.6416   10.0252 C.ar    1  UNL1        0.0585
     43 CL         64.1841   84.3934    8.5352 Cl      1  UNL1       -0.0822
     44 C          64.5565   82.9719   10.8408 C.ar    1  UNL1        0.0226
     45 C          64.1370   82.3617   12.0297 C.ar    1  UNL1        0.0591
     46 CL         65.3603   81.4921   12.9536 Cl      1  UNL1       -0.0824
     47 C          62.6557   82.5582   14.9371 C.3     1  UNL1        0.1338
     48 N          62.9737   83.9532   14.5494 N.3     1  UNL1       -0.2659
     49 C          61.8782   84.8789   14.8941 C.3     1  UNL1        0.0898
     50 C          62.2097   86.2867   14.3926 C.3     1  UNL1        0.0897
     51 N          63.4768   86.7490   14.9896 N.3     1  UNL1       -0.2691
     52 C          63.7941   88.1031   14.5124 C.3     1  UNL1        0.0897
     53 C          64.5718   85.8221   14.6460 C.3     1  UNL1        0.0897
     54 C          64.2421   84.4122   15.1448 C.3     1  UNL1        0.0898
@<TRIPOS>BOND
     1    30    31    1
     2    31    28    1
     3    28    29    1
     4    28    19    1
     5    19    20   ar
     6    20    21   ar
     7    21    22    1
     8    21    23   ar
     9    23    13    1
    10    13    14   ar
    11    14    15   ar
    12    15    16   ar
    13    16     7    1
    14     7     8    1
    15     8     9    1
    16     9    10    1
    17    10     1    1
    18     1     2   ar
    19     2     3   ar
    20     3     4   ar
    21     4    32    1
    22    32    33    1
    23    33    34    1
    24    34    35    1
    25    35    36    1
    26    36    37    1
    27    37    47    1
    28    47    48    1
    29    48    49    1
    30    49    50    1
    31    50    51    1
    32    51    52    1
    33    51    53    1
    34    53    54    1
    35    37    39    1
    36    39    40   ar
    37    40    41   ar
    38    41    42   ar
    39    42    43    1
    40    42    44   ar
    41    44    45   ar
    42    45    46    1
    43    37    38    1
    44     4     5   ar
    45     5     6   ar
    46    10    11    1
    47    11    12    1
    48    16    17   ar
    49    17    18   ar
    50    23    24   ar
    51    24    25    2
    52    24    19   ar
    53    18    13   ar
    54    12     7    1
    55     6     1   ar
    56    38    34    1
    57    54    48    1
    58    45    39   ar
    59    22    26    1
    60    22    27    1
@<TRIPOS>MOLECULE
*****
 54 60 0 0 0
SMALL
GASTEIGER

@<TRIPOS>ATOM
      1 C          61.0284   85.4158    9.2112 C.ar    1  UNL1        0.0481
      2 C          59.6338   85.5238    9.0878 C.ar    1  UNL1        0.0176
      3 C          58.9232   84.6212    8.2918 C.ar    1  UNL1        0.0382
      4 C          59.5879   83.5986    7.6059 C.ar    1  UNL1        0.1388
      5 C          60.9853   83.4824    7.7368 C.ar    1  UNL1        0.0382
      6 C          61.6965   84.3858    8.5319 C.ar    1  UNL1        0.0176
      7 N          62.7366   88.1124   11.9375 N.pl3   1  UNL1       -0.3041
      8 C          62.6646   86.6883   12.2857 C.3     1  UNL1        0.1122
      9 C          62.7308   85.8394   11.0177 C.3     1  UNL1        0.1122
     10 N          61.7683   86.3413   10.0299 N.pl3   1  UNL1       -0.3041
     11 C          61.8258   87.7655    9.6788 C.3     1  UNL1        0.1122
     12 C          61.7838   88.6245   10.9451 C.3     1  UNL1        0.1122
     13 C          64.9479   90.8052   14.3849 C.ar    1  UNL1        0.0709
     14 C          64.7579   89.4754   14.7897 C.ar    1  UNL1        0.0190
     15 C          64.0350   88.5884   13.9872 C.ar    1  UNL1        0.0160
     16 C          63.4856   89.0197   12.7681 C.ar    1  UNL1        0.0480
     17 C          63.6654   90.3539   12.3708 C.ar    1  UNL1        0.0160
     18 C          64.3881   91.2402   13.1739 C.ar    1  UNL1        0.0190
     19 N          67.3268   92.9318   16.1080 N.ar    1  UNL1       -0.2013
     20 N          66.2580   93.1251   16.8683 N.ar    1  UNL1       -0.1319
     21 C          65.2681   92.3896   16.3210 C.ar    1  UNL1        0.2197
     22 N          63.9287   92.3968   16.8166 N.pl3   1  UNL1       -0.3273
     23 N          65.6787   91.7189   15.2203 N.ar    1  UNL1       -0.2309
     24 C          66.9729   92.0781   15.1212 C.ar    1  UNL1        0.3531
     25 O          67.7589   91.6387   14.2391 O.2     1  UNL1       -0.2443
     26 H          63.1543   91.9320   16.2948 H       1  UNL1        0.1452
     27 H          63.6982   92.9305   17.6835 H       1  UNL1        0.1452
     28 C          68.6395   93.5222   16.4116 C.3     1  UNL1        0.1100
     29 C          68.8390   94.8919   15.7450 C.3     1  UNL1        0.0265
     30 C          70.3519   92.6038   14.7024 C.3     1  UNL1        0.0021
     31 C          69.7900   92.5333   16.1237 C.3     1  UNL1        0.0245
     32 O          58.8218   82.7236    6.8185 O.3     1  UNL1       -0.4727
     33 C          58.1449   81.5578    7.2911 C.3     1  UNL1        0.2374
     34 C          58.7325   81.0832    8.6270 C.3     1  UNL1        0.1909
     35 C          57.8486   80.0979    9.3360 C.3     1  UNL1        0.1783
     36 O          57.9913   80.3659   10.6942 O.3     1  UNL1       -0.3271
     37 C          58.6170   81.6341   10.7910 C.3     1  UNL1        0.2232
     38 O          58.8591   82.1572    9.5005 O.3     1  UNL1       -0.3258
     39 C          59.9387   81.5164   11.5593 C.ar    1  UNL1        0.0404
     40 C          61.0774   82.2133   11.0971 C.ar    1  UNL1        0.0021
     41 C          62.3071   82.0927   11.7460 C.ar    1  UNL1        0.0113
     42 C          62.4335   81.2645   12.8596 C.ar    1  UNL1        0.0585
     43 CL         63.9821   81.1120   13.6693 Cl      1  UNL1       -0.0822
     44 C          61.3302   80.5453   13.3201 C.ar    1  UNL1        0.0226
     45 C          60.0899   80.6530   12.6786 C.ar    1  UNL1        0.0591
     46 CL         58.7791   79.6555   13.3058 Cl      1  UNL1       -0.0824
     47 C          57.6611   82.5829   11.5355 C.3     1  UNL1        0.1338
     48 N          58.3705   83.8327   11.8992 N.3     1  UNL1       -0.2659
     49 C          57.5282   85.0230   11.6767 C.3     1  UNL1        0.0898
     50 C          58.3312   86.2915   11.9757 C.3     1  UNL1        0.0897
     51 N          58.8189   86.2629   13.3674 N.3     1  UNL1       -0.2691
     52 C          59.5865   87.4831   13.6575 C.3     1  UNL1        0.0897
     53 C          59.6599   85.0716   13.5900 C.3     1  UNL1        0.0897
     54 C          58.8597   83.8007   13.2897 C.3     1  UNL1        0.0898
@<TRIPOS>BOND
     1    30    31    1
     2    31    28    1
     3    28    29    1
     4    28    19    1
     5    19    20   ar
     6    20    21   ar
     7    21    22    1
     8    21    23   ar
     9    23    13    1
    10    13    14   ar
    11    14    15   ar
    12    15    16   ar
    13    16     7    1
    14     7     8    1
    15     8     9    1
    16     9    10    1
    17    10     1    1
    18     1     2   ar
    19     2     3   ar
    20     3     4   ar
    21     4    32    1
    22    32    33    1
    23    33    34    1
    24    34    35    1
    25    35    36    1
    26    36    37    1
    27    37    47    1
    28    47    48    1
    29    48    49    1
    30    49    50    1
    31    50    51    1
    32    51    52    1
    33    51    53    1
    34    53    54    1
    35    37    39    1
    36    39    40   ar
    37    40    41   ar
    38    41    42   ar
    39    42    43    1
    40    42    44   ar
    41    44    45   ar
    42    45    46    1
    43    37    38    1
    44     4     5   ar
    45     5     6   ar
    46    10    11    1
    47    11    12    1
    48    16    17   ar
    49    17    18   ar
    50    23    24   ar
    51    24    25    2
    52    24    19   ar
    53    18    13   ar
    54    12     7    1
    55     6     1   ar
    56    38    34    1
    57    54    48    1
    58    45    39   ar
    59    22    26    1
    60    22    27    1
@<TRIPOS>MOLECULE
*****
 54 60 0 0 0
SMALL
GASTEIGER

@<TRIPOS>ATOM
      1 C          59.2038   87.2722    9.8990 C.ar    1  UNL1        0.0481
      2 C          58.4514   86.0961    9.7489 C.ar    1  UNL1        0.0176
      3 C          58.1327   85.3145   10.8627 C.ar    1  UNL1        0.0382
      4 C          58.5575   85.6895   12.1422 C.ar    1  UNL1        0.1388
      5 C          59.3032   86.8742   12.2960 C.ar    1  UNL1        0.0382
      6 C          59.6233   87.6556   11.1819 C.ar    1  UNL1        0.0176
      7 N          59.7200   89.9441    6.7026 N.pl3   1  UNL1       -0.3041
      8 C          60.0750   90.3724    8.0609 C.3     1  UNL1        0.1122
      9 C          60.5184   89.1665    8.8868 C.3     1  UNL1        0.1122
     10 N          59.5362   88.0837    8.7566 N.pl3   1  UNL1       -0.3041
     11 C          59.1677   87.6515    7.4029 C.3     1  UNL1        0.1122
     12 C          58.7441   88.8568    6.5598 C.3     1  UNL1        0.1122
     13 C          60.7544   92.3776    3.3652 C.ar    1  UNL1        0.0709
     14 C          59.4589   92.4268    3.9014 C.ar    1  UNL1        0.0190
     15 C          59.1172   91.6313    4.9986 C.ar    1  UNL1        0.0160
     16 C          60.0657   90.7692    5.5740 C.ar    1  UNL1        0.0480
     17 C          61.3576   90.7115    5.0281 C.ar    1  UNL1        0.0160
     18 C          61.6984   91.5070    3.9308 C.ar    1  UNL1        0.0190
     19 N          62.1596   93.9994    0.4418 N.ar    1  UNL1       -0.2013
     20 N          61.1502   94.8212    0.6936 N.ar    1  UNL1       -0.1319
     21 C          60.5146   94.3183    1.7722 C.ar    1  UNL1        0.2197
     22 N          59.3187   94.8880    2.3060 N.pl3   1  UNL1       -0.3273
     23 N          61.0979   93.1856    2.2268 N.ar    1  UNL1       -0.2309
     24 C          62.1267   93.0201    1.3734 C.ar    1  UNL1        0.3531
     25 O          62.9711   92.0884    1.4624 O.2     1  UNL1       -0.2443
     26 H          58.7712   94.4029    3.0495 H       1  UNL1        0.1452
     27 H          58.9417   95.7751    1.9052 H       1  UNL1        0.1452
     28 C          63.1345   94.2387   -0.6334 C.3     1  UNL1        0.1100
     29 C          62.7241   93.5801   -1.9595 C.3     1  UNL1        0.0265
     30 C          65.2266   94.8913    0.7429 C.3     1  UNL1        0.0021
     31 C          64.5694   93.8756   -0.1936 C.3     1  UNL1        0.0245
     32 O          58.2100   84.8630   13.2233 O.3     1  UNL1       -0.4727
     33 C          58.3280   83.4397   13.2520 C.3     1  UNL1        0.2374
     34 C          58.9464   82.9118   11.9505 C.3     1  UNL1        0.1909
     35 C          59.2168   81.4352   11.9900 C.3     1  UNL1        0.1783
     36 O          60.3885   81.2424   11.2641 O.3     1  UNL1       -0.3271
     37 C          60.9801   82.5210   11.1072 C.3     1  UNL1        0.2232
     38 O          60.1847   83.5058   11.7358 O.3     1  UNL1       -0.3258
     39 C          61.1374   82.8537    9.6187 C.ar    1  UNL1        0.0404
     40 C          62.2312   83.6399    9.1926 C.ar    1  UNL1        0.0021
     41 C          62.3798   83.9993    7.8522 C.ar    1  UNL1        0.0113
     42 C          61.4354   83.5967    6.9100 C.ar    1  UNL1        0.0585
     43 CL         61.6236   84.0547    5.2272 Cl      1  UNL1       -0.0822
     44 C          60.3324   82.8418    7.3097 C.ar    1  UNL1        0.0226
     45 C          60.1669   82.4752    8.6513 C.ar    1  UNL1        0.0591
     46 CL         58.7080   81.5732    9.0568 Cl      1  UNL1       -0.0824
     47 C          62.3605   82.4953   11.7869 C.3     1  UNL1        0.1338
     48 N          62.4169   83.5204   12.8562 N.3     1  UNL1       -0.2659
     49 C          62.3067   82.9167   14.1976 C.3     1  UNL1        0.0898
     50 C          62.2754   84.0164   15.2619 C.3     1  UNL1        0.0897
     51 N          63.4950   84.8409   15.1708 N.3     1  UNL1       -0.2691
     52 C          63.4685   85.8949   16.1957 C.3     1  UNL1        0.0897
     53 C          63.6057   85.4432   13.8287 C.3     1  UNL1        0.0897
     54 C          63.6353   84.3453   12.7614 C.3     1  UNL1        0.0898
@<TRIPOS>BOND
     1    30    31    1
     2    31    28    1
     3    28    29    1
     4    28    19    1
     5    19    20   ar
     6    20    21   ar
     7    21    22    1
     8    21    23   ar
     9    23    13    1
    10    13    14   ar
    11    14    15   ar
    12    15    16   ar
    13    16     7    1
    14     7     8    1
    15     8     9    1
    16     9    10    1
    17    10     1    1
    18     1     2   ar
    19     2     3   ar
    20     3     4   ar
    21     4    32    1
    22    32    33    1
    23    33    34    1
    24    34    35    1
    25    35    36    1
    26    36    37    1
    27    37    47    1
    28    47    48    1
    29    48    49    1
    30    49    50    1
    31    50    51    1
    32    51    52    1
    33    51    53    1
    34    53    54    1
    35    37    39    1
    36    39    40   ar
    37    40    41   ar
    38    41    42   ar
    39    42    43    1
    40    42    44   ar
    41    44    45   ar
    42    45    46    1
    43    37    38    1
    44     4     5   ar
    45     5     6   ar
    46    10    11    1
    47    11    12    1
    48    16    17   ar
    49    17    18   ar
    50    23    24   ar
    51    24    25    2
    52    24    19   ar
    53    18    13   ar
    54    12     7    1
    55     6     1   ar
    56    38    34    1
    57    54    48    1
    58    45    39   ar
    59    22    26    1
    60    22    27    1
@<TRIPOS>MOLECULE
*****
 54 60 0 0 0
SMALL
GASTEIGER

@<TRIPOS>ATOM
      1 C          59.3170   86.9702   10.1934 C.ar    1  UNL1        0.0481
      2 C          60.0409   87.1736   11.3794 C.ar    1  UNL1        0.0176
      3 C          59.7688   86.4040   12.5137 C.ar    1  UNL1        0.0382
      4 C          58.7728   85.4215   12.4868 C.ar    1  UNL1        0.1388
      5 C          58.0530   85.2089   11.2952 C.ar    1  UNL1        0.0382
      6 C          58.3241   85.9794   10.1607 C.ar    1  UNL1        0.0176
      7 N          59.6897   89.5942    6.9380 N.pl3   1  UNL1       -0.3041
      8 C          60.1691   90.0169    8.2594 C.3     1  UNL1        0.1122
      9 C          60.6255   88.7992    9.0605 C.3     1  UNL1        0.1122
     10 N          59.5914   87.7584    9.0198 N.pl3   1  UNL1       -0.3041
     11 C          59.0989   87.3325    7.7041 C.3     1  UNL1        0.1122
     12 C          58.6607   88.5486    6.8843 C.3     1  UNL1        0.1122
     13 C          60.5329   91.9693    3.5060 C.ar    1  UNL1        0.0709
     14 C          61.5376   91.1772    4.0818 C.ar    1  UNL1        0.0190
     15 C          61.2631   90.3943    5.2066 C.ar    1  UNL1        0.0160
     16 C          59.9791   90.3957    5.7770 C.ar    1  UNL1        0.0480
     17 C          58.9786   91.1989    5.2076 C.ar    1  UNL1        0.0160
     18 C          59.2539   91.9815    4.0831 C.ar    1  UNL1        0.0190
     19 N          61.8883   94.0768    0.8845 N.ar    1  UNL1       -0.2013
     20 N          60.6221   94.0180    0.4960 N.ar    1  UNL1       -0.1319
     21 C          59.9888   93.2332    1.3923 C.ar    1  UNL1        0.2197
     22 N          58.6141   92.8658    1.2701 N.pl3   1  UNL1       -0.3273
     23 N          60.8229   92.7853    2.3585 N.ar    1  UNL1       -0.2309
     24 C          62.0010   93.3380    2.0112 C.ar    1  UNL1        0.3531
     25 O          63.0621   93.2093    2.6793 O.2     1  UNL1       -0.2443
     26 H          58.1862   92.1488    1.8951 H       1  UNL1        0.1452
     27 H          58.0347   93.2693    0.5012 H       1  UNL1        0.1452
     28 C          62.8985   94.8919    0.1924 C.3     1  UNL1        0.1100
     29 C          63.0110   94.5494   -1.3011 C.3     1  UNL1        0.0265
     30 C          65.2311   93.7950    0.4222 C.3     1  UNL1        0.0021
     31 C          64.2566   94.8613    0.9264 C.3     1  UNL1        0.0245
     32 O          58.5416   84.6816   13.6581 O.3     1  UNL1       -0.4727
     33 C          59.0817   83.3907   13.9451 C.3     1  UNL1        0.2374
     34 C          58.9878   82.4696   12.7212 C.3     1  UNL1        0.1909
     35 C          59.4546   81.0712   13.0062 C.3     1  UNL1        0.1783
     36 O          60.0776   80.6322   11.8417 O.3     1  UNL1       -0.3271
     37 C          60.2981   81.7832   11.0443 C.3     1  UNL1        0.2232
     38 O          59.8199   82.9350   11.7095 O.3     1  UNL1       -0.3258
     39 C          59.5919   81.6347    9.6915 C.ar    1  UNL1        0.0404
     40 C          59.9987   82.4366    8.6017 C.ar    1  UNL1        0.0021
     41 C          59.3480   82.3595    7.3695 C.ar    1  UNL1        0.0113
     42 C          58.2693   81.4938    7.1997 C.ar    1  UNL1        0.0585
     43 CL         57.4512   81.4036    5.6507 Cl      1  UNL1       -0.0822
     44 C          57.8315   80.7104    8.2679 C.ar    1  UNL1        0.0226
     45 C          58.4718   80.7779    9.5118 C.ar    1  UNL1        0.0591
     46 CL         57.8003   79.7906   10.8083 Cl      1  UNL1       -0.0824
     47 C          61.8147   81.9325   10.8300 C.3     1  UNL1        0.1338
     48 N          62.4111   82.6976   11.9509 N.3     1  UNL1       -0.2659
     49 C          63.5672   81.9943   12.5377 C.3     1  UNL1        0.0898
     50 C          64.0908   82.7733   13.7470 C.3     1  UNL1        0.0897
     51 N          64.4751   84.1378   13.3395 N.3     1  UNL1       -0.2691
     52 C          64.9827   84.8859   14.4992 C.3     1  UNL1        0.0897
     53 C          63.3190   84.8403   12.7512 C.3     1  UNL1        0.0897
     54 C          62.7917   84.0621   11.5421 C.3     1  UNL1        0.0898
@<TRIPOS>BOND
     1    30    31    1
     2    31    28    1
     3    28    29    1
     4    28    19    1
     5    19    20   ar
     6    20    21   ar
     7    21    22    1
     8    21    23   ar
     9    23    13    1
    10    13    14   ar
    11    14    15   ar
    12    15    16   ar
    13    16     7    1
    14     7     8    1
    15     8     9    1
    16     9    10    1
    17    10     1    1
    18     1     2   ar
    19     2     3   ar
    20     3     4   ar
    21     4    32    1
    22    32    33    1
    23    33    34    1
    24    34    35    1
    25    35    36    1
    26    36    37    1
    27    37    47    1
    28    47    48    1
    29    48    49    1
    30    49    50    1
    31    50    51    1
    32    51    52    1
    33    51    53    1
    34    53    54    1
    35    37    39    1
    36    39    40   ar
    37    40    41   ar
    38    41    42   ar
    39    42    43    1
    40    42    44   ar
    41    44    45   ar
    42    45    46    1
    43    37    38    1
    44     4     5   ar
    45     5     6   ar
    46    10    11    1
    47    11    12    1
    48    16    17   ar
    49    17    18   ar
    50    23    24   ar
    51    24    25    2
    52    24    19   ar
    53    18    13   ar
    54    12     7    1
    55     6     1   ar
    56    38    34    1
    57    54    48    1
    58    45    39   ar
    59    22    26    1
    60    22    27    1
@<TRIPOS>MOLECULE
*****
 54 60 0 0 0
SMALL
GASTEIGER

@<TRIPOS>ATOM
      1 C          59.6506   85.9822   10.1591 C.ar    1  UNL1        0.0481
      2 C          59.9417   85.6016    8.8391 C.ar    1  UNL1        0.0176
      3 C          59.0968   84.7238    8.1546 C.ar    1  UNL1        0.0382
      4 C          57.9506   84.2104    8.7717 C.ar    1  UNL1        0.1388
      5 C          57.6515   84.5992   10.0917 C.ar    1  UNL1        0.0382
      6 C          58.4971   85.4762   10.7772 C.ar    1  UNL1        0.0176
      7 N          62.0846   88.2897   12.6836 N.pl3   1  UNL1       -0.3041
      8 C          62.5872   87.0067   12.1779 C.3     1  UNL1        0.1122
      9 C          61.9714   86.7092   10.8122 C.3     1  UNL1        0.1122
     10 N          60.5156   86.8868   10.8715 N.pl3   1  UNL1       -0.3041
     11 C          60.0009   88.1631   11.3823 C.3     1  UNL1        0.1122
     12 C          60.6304   88.4818   12.7407 C.3     1  UNL1        0.1122
     13 C          64.6973   90.9334   14.7609 C.ar    1  UNL1        0.0709
     14 C          64.1422   89.8260   15.4195 C.ar    1  UNL1        0.0190
     15 C          63.2865   88.9548   14.7395 C.ar    1  UNL1        0.0160
     16 C          62.9682   89.1810   13.3899 C.ar    1  UNL1        0.0480
     17 C          63.5140   90.2968   12.7362 C.ar    1  UNL1        0.0160
     18 C          64.3693   91.1676   13.4168 C.ar    1  UNL1        0.0190
     19 N          67.3784   92.9330   16.1623 N.ar    1  UNL1       -0.2013
     20 N          66.3752   93.3260   16.9348 N.ar    1  UNL1       -0.1319
     21 C          65.2843   92.6588   16.5044 C.ar    1  UNL1        0.2197
     22 N          63.9790   92.8725   17.0433 N.pl3   1  UNL1       -0.3273
     23 N          65.5646   91.8362   15.4677 N.ar    1  UNL1       -0.2309
     24 C          66.8848   92.0301   15.2853 C.ar    1  UNL1        0.3531
     25 O          67.5740   91.4146   14.4280 O.2     1  UNL1       -0.2443
     26 H          63.1337   92.4503   16.6017 H       1  UNL1        0.1452
     27 H          63.8511   93.5151   17.8559 H       1  UNL1        0.1452
     28 C          68.7619   93.3943   16.3548 C.3     1  UNL1        0.1100
     29 C          69.0062   94.7908   15.7627 C.3     1  UNL1        0.0265
     30 C          70.1139   92.4080   14.3808 C.3     1  UNL1        0.0021
     31 C          69.7858   92.3432   15.8737 C.3     1  UNL1        0.0245
     32 O          57.1410   83.3298    8.0355 O.3     1  UNL1       -0.4727
     33 C          57.5391   82.0479    7.5468 C.3     1  UNL1        0.2374
     34 C          58.3335   81.2757    8.6088 C.3     1  UNL1        0.1909
     35 C          57.8779   81.5724   10.0085 C.3     1  UNL1        0.1783
     36 O          59.0241   81.5428   10.7972 O.3     1  UNL1       -0.3271
     37 C          60.1266   81.5892    9.9074 C.3     1  UNL1        0.2232
     38 O          59.6711   81.6525    8.5709 O.3     1  UNL1       -0.3258
     39 C          61.0127   80.3522   10.0954 C.ar    1  UNL1        0.0404
     40 C          62.0773   80.1150    9.1974 C.ar    1  UNL1        0.0021
     41 C          62.8749   78.9755    9.3122 C.ar    1  UNL1        0.0113
     42 C          62.6209   78.0404   10.3136 C.ar    1  UNL1        0.0585
     43 CL         63.6229   76.6072   10.4513 Cl      1  UNL1       -0.0822
     44 C          61.5593   78.2384   11.1968 C.ar    1  UNL1        0.0226
     45 C          60.7476   79.3752   11.0935 C.ar    1  UNL1        0.0591
     46 CL         59.3986   79.4962   12.2213 Cl      1  UNL1       -0.0824
     47 C          60.9340   82.8632   10.2132 C.3     1  UNL1        0.1338
     48 N          61.6907   82.6914   11.4762 N.3     1  UNL1       -0.2659
     49 C          63.0828   83.1620   11.3469 C.3     1  UNL1        0.0898
     50 C          63.8495   82.8797   12.6414 C.3     1  UNL1        0.0897
     51 N          63.1866   83.5494   13.7761 N.3     1  UNL1       -0.2691
     52 C          63.9248   83.2830   15.0196 C.3     1  UNL1        0.0897
     53 C          61.7941   83.0797   13.9041 C.3     1  UNL1        0.0897
     54 C          61.0248   83.3591   12.6097 C.3     1  UNL1        0.0898
@<TRIPOS>BOND
     1    30    31    1
     2    31    28    1
     3    28    29    1
     4    28    19    1
     5    19    20   ar
     6    20    21   ar
     7    21    22    1
     8    21    23   ar
     9    23    13    1
    10    13    14   ar
    11    14    15   ar
    12    15    16   ar
    13    16     7    1
    14     7     8    1
    15     8     9    1
    16     9    10    1
    17    10     1    1
    18     1     2   ar
    19     2     3   ar
    20     3     4   ar
    21     4    32    1
    22    32    33    1
    23    33    34    1
    24    34    35    1
    25    35    36    1
    26    36    37    1
    27    37    47    1
    28    47    48    1
    29    48    49    1
    30    49    50    1
    31    50    51    1
    32    51    52    1
    33    51    53    1
    34    53    54    1
    35    37    39    1
    36    39    40   ar
    37    40    41   ar
    38    41    42   ar
    39    42    43    1
    40    42    44   ar
    41    44    45   ar
    42    45    46    1
    43    37    38    1
    44     4     5   ar
    45     5     6   ar
    46    10    11    1
    47    11    12    1
    48    16    17   ar
    49    17    18   ar
    50    23    24   ar
    51    24    25    2
    52    24    19   ar
    53    18    13   ar
    54    12     7    1
    55     6     1   ar
    56    38    34    1
    57    54    48    1
    58    45    39   ar
    59    22    26    1
    60    22    27    1
@<TRIPOS>MOLECULE
*****
 54 60 0 0 0
SMALL
GASTEIGER

@<TRIPOS>ATOM
      1 C          60.6327   87.8019   10.6884 C.ar    1  UNL1        0.0481
      2 C          59.4409   87.3679   11.2910 C.ar    1  UNL1        0.0176
      3 C          59.4716   86.7096   12.5234 C.ar    1  UNL1        0.0382
      4 C          60.6870   86.4721   13.1750 C.ar    1  UNL1        0.1388
      5 C          61.8824   86.9160   12.5771 C.ar    1  UNL1        0.0382
      6 C          61.8521   87.5733   11.3438 C.ar    1  UNL1        0.0176
      7 N          60.0745   89.9987    7.1550 N.pl3   1  UNL1       -0.3041
      8 C          60.4873   90.6981    8.3776 C.3     1  UNL1        0.1122
      9 C          61.3106   89.7614    9.2594 C.3     1  UNL1        0.1122
     10 N          60.6100   88.4815    9.4189 N.pl3   1  UNL1       -0.3041
     11 C          60.1858   87.7761    8.2034 C.3     1  UNL1        0.1122
     12 C          59.3794   88.7140    7.3016 C.3     1  UNL1        0.1122
     13 C          60.0539   92.0579    3.4281 C.ar    1  UNL1        0.0709
     14 C          58.8805   91.9664    4.1917 C.ar    1  UNL1        0.0190
     15 C          58.8848   91.2935    5.4167 C.ar    1  UNL1        0.0160
     16 C          60.0631   90.6965    5.8953 C.ar    1  UNL1        0.0480
     17 C          61.2331   90.7777    5.1239 C.ar    1  UNL1        0.0160
     18 C          61.2279   91.4504    3.8990 C.ar    1  UNL1        0.0190
     19 N          59.4049   93.4925    0.1614 N.ar    1  UNL1       -0.2013
     20 N          60.6566   93.8916    0.3394 N.ar    1  UNL1       -0.1319
     21 C          61.0300   93.4318    1.5517 C.ar    1  UNL1        0.2197
     22 N          62.2990   93.7252    2.1378 N.pl3   1  UNL1       -0.3273
     23 N          60.0421   92.7372    2.1612 N.ar    1  UNL1       -0.2309
     24 C          59.0432   92.7915    1.2594 C.ar    1  UNL1        0.3531
     25 O          57.9276   92.2245    1.4109 O.2     1  UNL1       -0.2443
     26 H          62.5095   93.4774    3.1288 H       1  UNL1        0.1452
     27 H          63.0131   94.2562    1.5921 H       1  UNL1        0.1452
     28 C          58.6544   93.7481   -1.0776 C.3     1  UNL1        0.1100
     29 C          57.5196   94.7650   -0.8812 C.3     1  UNL1        0.0265
     30 C          56.6676   92.2431   -1.7741 C.3     1  UNL1        0.0021
     31 C          58.1851   92.4352   -1.7414 C.3     1  UNL1        0.0245
     32 O          60.6561   85.8031   14.4096 O.3     1  UNL1       -0.4727
     33 C          61.6350   84.8725   14.8746 C.3     1  UNL1        0.2374
     34 C          61.5860   83.5703   14.0641 C.3     1  UNL1        0.1909
     35 C          62.8581   83.3027   13.3124 C.3     1  UNL1        0.1783
     36 O          62.4756   82.7009   12.1172 O.3     1  UNL1       -0.3271
     37 C          61.0804   82.9151   11.9868 C.3     1  UNL1        0.2232
     38 O          60.5956   83.6509   13.0920 O.3     1  UNL1       -0.3258
     39 C          60.3441   81.5735   11.8935 C.ar    1  UNL1        0.0404
     40 C          61.0461   80.4214   11.4740 C.ar    1  UNL1        0.0021
     41 C          60.3963   79.1942   11.3345 C.ar    1  UNL1        0.0113
     42 C          59.0313   79.0904   11.5950 C.ar    1  UNL1        0.0585
     43 CL         58.2176   77.5470   11.4138 Cl      1  UNL1       -0.0822
     44 C          58.3102   80.2191   11.9855 C.ar    1  UNL1        0.0226
     45 C          58.9466   81.4586   12.1275 C.ar    1  UNL1        0.0591
     46 CL         57.9306   82.8302   12.5668 Cl      1  UNL1       -0.0824
     47 C          60.8406   83.7345   10.7064 C.3     1  UNL1        0.1338
     48 N          59.9467   82.9887    9.7887 N.3     1  UNL1       -0.2659
     49 C          58.8921   83.8554    9.2297 C.3     1  UNL1        0.0898
     50 C          57.9405   83.0249    8.3649 C.3     1  UNL1        0.0897
     51 N          58.6910   82.3673    7.2787 N.3     1  UNL1       -0.2691
     52 C          57.7774   81.5728    6.4442 C.3     1  UNL1        0.0897
     53 C          59.7466   81.5018    7.8380 C.3     1  UNL1        0.0897
     54 C          60.6992   82.3297    8.7055 C.3     1  UNL1        0.0898
@<TRIPOS>BOND
     1    30    31    1
     2    31    28    1
     3    28    29    1
     4    28    19    1
     5    19    20   ar
     6    20    21   ar
     7    21    22    1
     8    21    23   ar
     9    23    13    1
    10    13    14   ar
    11    14    15   ar
    12    15    16   ar
    13    16     7    1
    14     7     8    1
    15     8     9    1
    16     9    10    1
    17    10     1    1
    18     1     2   ar
    19     2     3   ar
    20     3     4   ar
    21     4    32    1
    22    32    33    1
    23    33    34    1
    24    34    35    1
    25    35    36    1
    26    36    37    1
    27    37    47    1
    28    47    48    1
    29    48    49    1
    30    49    50    1
    31    50    51    1
    32    51    52    1
    33    51    53    1
    34    53    54    1
    35    37    39    1
    36    39    40   ar
    37    40    41   ar
    38    41    42   ar
    39    42    43    1
    40    42    44   ar
    41    44    45   ar
    42    45    46    1
    43    37    38    1
    44     4     5   ar
    45     5     6   ar
    46    10    11    1
    47    11    12    1
    48    16    17   ar
    49    17    18   ar
    50    23    24   ar
    51    24    25    2
    52    24    19   ar
    53    18    13   ar
    54    12     7    1
    55     6     1   ar
    56    38    34    1
    57    54    48    1
    58    45    39   ar
    59    22    26    1
    60    22    27    1
