@<TRIPOS>MOLECULE
*****
 53 60 0 0 0
SMALL
GASTEIGER

@<TRIPOS>ATOM
      1 C          61.6083   86.3792   10.4841 C.ar    1  UNL1        0.0043
      2 C          62.3852   85.6743    9.5503 C.ar    1  UNL1        0.0060
      3 C          61.8635   84.5757    8.8719 C.ar    1  UNL1        0.0691
      4 C          60.5491   84.1575    9.1070 C.ar    1  UNL1        0.2270
      5 C          59.7569   84.8638   10.0258 C.ar    1  UNL1        0.0729
      6 C          60.2551   85.9952   10.7016 C.ar    1  UNL1        0.0773
      7 N          60.0338   82.9820    8.4382 N.am    1  UNL1       -0.0905
      8 C          60.0550   82.9871    7.0625 C.2     1  UNL1        0.4233
      9 O          60.7352   83.8411    6.4282 O.2     1  UNL1       -0.2135
     10 C          59.2918   82.0813    6.3337 C.2     1  UNL1        0.1214
     11 C          58.4281   81.2147    6.9864 C.2     1  UNL1        0.0468
     12 I          57.2102   79.9744    5.7607 I       1  UNL1       -0.0419
     13 C          58.4094   81.1875    8.3919 C.ar    1  UNL1        0.0882
     14 C          57.4912   80.3868    9.0874 C.ar    1  UNL1        0.1051
     15 N          57.5013   80.3457   10.4391 N.ar    1  UNL1       -0.2434
     16 C          58.4298   81.0036   11.1729 C.ar    1  UNL1        0.0870
     17 C          58.4306   80.8430   12.5606 C.ar    1  UNL1        0.0193
     18 C          59.4574   81.3822   13.3307 C.ar    1  UNL1        0.0016
     19 C          60.5270   82.0510   12.7177 C.ar    1  UNL1        0.0018
     20 C          60.5098   82.2331   11.3224 C.ar    1  UNL1        0.0075
     21 C          59.4201   81.7916   10.5358 C.ar    1  UNL1        0.0810
     22 C          59.3205   82.0047    9.1210 C.ar    1  UNL1        0.2301
     23 C          61.6781   82.5280   13.5285 C.ar    1  UNL1        0.0192
     24 C          62.7743   81.6842   13.7840 C.ar    1  UNL1        0.0988
     25 N          63.8256   82.1222   14.5255 N.ar    1  UNL1       -0.2438
     26 C          63.8632   83.3765   15.0455 C.ar    1  UNL1        0.0813
     27 C          64.9627   83.7888   15.8077 C.ar    1  UNL1        0.0191
     28 C          64.9981   85.0806   16.3421 C.ar    1  UNL1        0.0015
     29 C          63.9380   85.9640   16.1156 C.ar    1  UNL1        0.0001
     30 C          62.8374   85.5599   15.3539 C.ar    1  UNL1        0.0015
     31 C          62.7915   84.2656   14.8159 C.ar    1  UNL1        0.0177
     32 C          61.6991   83.8318   14.0538 C.ar    1  UNL1        0.0030
     33 C          63.4789   89.6227   12.6003 C.ar    1  UNL1        0.0534
     34 C          62.8468   89.8486   11.3645 C.ar    1  UNL1        0.0045
     35 C          62.2361   88.7967   10.6760 C.ar    1  UNL1        0.0001
     36 C          62.2511   87.4991   11.2076 C.ar    1  UNL1       -0.0000
     37 C          62.8408   87.2784   12.4610 C.ar    1  UNL1        0.0001
     38 C          63.4559   88.3276   13.1483 C.ar    1  UNL1        0.0045
     39 N          65.5628   90.8831   13.3238 N.am    1  UNL1       -0.3024
     40 C          64.1318   90.7436   13.3178 C.2     1  UNL1        0.2458
     41 O          63.4177   91.5957   13.9145 O.2     1  UNL1       -0.2701
     42 H          66.1158   90.3735   12.5982 H       1  UNL1        0.1497
     43 C          67.8912   93.8953   16.3693 C.3     1  UNL1        0.0896
     44 N          68.1772   93.8532   14.9251 N.3     1  UNL1       -0.2714
     45 C          68.7144   92.5423   14.5065 C.3     1  UNL1        0.0738
     46 C          67.6515   91.4251   14.5341 C.3     1  UNL1        0.0369
     47 C          66.2485   91.9154   14.1073 C.3     1  UNL1        0.0746
     48 C          66.3369   93.2093   13.2933 C.3     1  UNL1        0.0369
     49 C          67.0286   94.3220   14.1053 C.3     1  UNL1        0.0738
     50 C          59.3414   86.7136   11.6791 C.3     1  UNL1        0.4188
     51 F          59.7890   86.4966   12.9686 F       1  UNL1       -0.1659
     52 F          59.3031   88.0733   11.4341 F       1  UNL1       -0.1659
     53 F          58.0444   86.2396   11.5779 F       1  UNL1       -0.1659
@<TRIPOS>BOND
     1    43    44    1
     2    44    45    1
     3    45    46    1
     4    46    47    1
     5    47    39    1
     6    39    40   am
     7    40    41    2
     8    40    33    1
     9    33    34   ar
    10    34    35   ar
    11    35    36   ar
    12    36     1    1
    13     1     2   ar
    14     2     3   ar
    15     3     4   ar
    16     4     7    1
    17     7     8    1
    18     8     9    2
    19     8    10    1
    20    10    11    2
    21    11    12    1
    22    11    13    1
    23    13    14   ar
    24    14    15   ar
    25    15    16   ar
    26    16    17   ar
    27    17    18   ar
    28    18    19   ar
    29    19    23    1
    30    23    24   ar
    31    24    25   ar
    32    25    26   ar
    33    26    27   ar
    34    27    28   ar
    35    28    29   ar
    36    29    30   ar
    37    30    31   ar
    38    31    32   ar
    39    19    20   ar
    40    20    21   ar
    41    21    22   ar
    42     4     5   ar
    43     5     6   ar
    44     6    50    1
    45    50    51    1
    46    50    52    1
    47    50    53    1
    48    36    37   ar
    49    37    38   ar
    50    47    48    1
    51    48    49    1
    52    49    44    1
    53    38    33   ar
    54     6     1   ar
    55    22     7    1
    56    22    13   ar
    57    21    16   ar
    58    32    23   ar
    59    31    26   ar
    60    39    42    1
@<TRIPOS>MOLECULE
*****
 53 60 0 0 0
SMALL
GASTEIGER

@<TRIPOS>ATOM
      1 C          61.4375   86.8507    9.9828 C.ar    1  UNL1        0.0043
      2 C          62.6146   86.1265    9.7323 C.ar    1  UNL1        0.0060
      3 C          63.1322   85.2535   10.6859 C.ar    1  UNL1        0.0691
      4 C          62.4822   85.0791   11.9127 C.ar    1  UNL1        0.2270
      5 C          61.2959   85.7847   12.1685 C.ar    1  UNL1        0.0729
      6 C          60.7392   86.6508   11.2068 C.ar    1  UNL1        0.0773
      7 N          63.0570   84.2117   12.9186 N.am    1  UNL1       -0.0905
      8 C          63.2587   82.8968   12.5673 C.2     1  UNL1        0.4233
      9 O          63.2070   82.5337   11.3590 O.2     1  UNL1       -0.2135
     10 C          63.4793   81.9248   13.5372 C.2     1  UNL1        0.1214
     11 C          63.4110   82.2553   14.8823 C.2     1  UNL1        0.0468
     12 I          63.6255   80.6591   16.2715 I       1  UNL1       -0.0419
     13 C          63.2227   83.5978   15.2545 C.ar    1  UNL1        0.0882
     14 C          63.0641   83.9595   16.6006 C.ar    1  UNL1        0.1051
     15 N          62.9129   85.2570   16.9500 N.ar    1  UNL1       -0.2434
     16 C          62.9821   86.2601   16.0432 C.ar    1  UNL1        0.0870
     17 C          62.9045   87.5810   16.4912 C.ar    1  UNL1        0.0193
     18 C          63.1206   88.6368   15.6098 C.ar    1  UNL1        0.0016
     19 C          63.4659   88.3854   14.2738 C.ar    1  UNL1        0.0018
     20 C          63.5180   87.0543   13.8200 C.ar    1  UNL1        0.0075
     21 C          63.1911   85.9731   14.6716 C.ar    1  UNL1        0.0810
     22 C          63.1670   84.6033   14.2468 C.ar    1  UNL1        0.2301
     23 C          63.8064   89.5091   13.3620 C.ar    1  UNL1        0.0192
     24 C          63.2175   89.6028   12.0879 C.ar    1  UNL1        0.0988
     25 N          63.5303   90.6309   11.2559 N.ar    1  UNL1       -0.2438
     26 C          64.4132   91.5993   11.6130 C.ar    1  UNL1        0.0813
     27 C          64.7120   92.6401   10.7258 C.ar    1  UNL1        0.0191
     28 C          65.6219   93.6353   11.0964 C.ar    1  UNL1        0.0015
     29 C          66.2337   93.5953   12.3532 C.ar    1  UNL1        0.0001
     30 C          65.9388   92.5600   13.2454 C.ar    1  UNL1        0.0015
     31 C          65.0296   91.5560   12.8819 C.ar    1  UNL1        0.0177
     32 C          64.7196   90.5037   13.7531 C.ar    1  UNL1        0.0030
     33 C          60.1202   89.6296    6.9761 C.ar    1  UNL1        0.0534
     34 C          59.7460   88.2757    6.9081 C.ar    1  UNL1        0.0045
     35 C          60.1708   87.3712    7.8852 C.ar    1  UNL1        0.0001
     36 C          60.9819   87.8025    8.9448 C.ar    1  UNL1       -0.0000
     37 C          61.3197   89.1604    9.0409 C.ar    1  UNL1        0.0001
     38 C          60.9001   90.0650    8.0625 C.ar    1  UNL1        0.0045
     39 N          60.6163   91.1934    5.0363 N.am    1  UNL1       -0.3024
     40 C          59.6720   90.5789    5.9294 C.2     1  UNL1        0.2458
     41 O          58.4419   90.8339    5.8114 O.2     1  UNL1       -0.2701
     42 H          61.5621   90.7603    4.9366 H       1  UNL1        0.1497
     43 C          59.8144   94.8926    1.9632 C.3     1  UNL1        0.0896
     44 N          59.5918   93.4866    1.5848 N.3     1  UNL1       -0.2714
     45 C          60.8442   92.7035    1.6081 C.3     1  UNL1        0.0738
     46 C          61.3620   92.4477    3.0382 C.3     1  UNL1        0.0369
     47 C          60.2247   92.2145    4.0596 C.3     1  UNL1        0.0746
     48 C          58.9293   91.7923    3.3609 C.3     1  UNL1        0.0369
     49 C          58.4783   92.8631    2.3480 C.3     1  UNL1        0.0738
     50 C          59.4514   87.3792   11.5495 C.3     1  UNL1        0.4188
     51 F          58.4433   86.9477   10.7083 F       1  UNL1       -0.1659
     52 F          59.0753   87.1575   12.8608 F       1  UNL1       -0.1659
     53 F          59.6031   88.7462   11.3894 F       1  UNL1       -0.1659
@<TRIPOS>BOND
     1    43    44    1
     2    44    45    1
     3    45    46    1
     4    46    47    1
     5    47    39    1
     6    39    40   am
     7    40    41    2
     8    40    33    1
     9    33    34   ar
    10    34    35   ar
    11    35    36   ar
    12    36     1    1
    13     1     2   ar
    14     2     3   ar
    15     3     4   ar
    16     4     7    1
    17     7     8    1
    18     8     9    2
    19     8    10    1
    20    10    11    2
    21    11    12    1
    22    11    13    1
    23    13    14   ar
    24    14    15   ar
    25    15    16   ar
    26    16    17   ar
    27    17    18   ar
    28    18    19   ar
    29    19    23    1
    30    23    24   ar
    31    24    25   ar
    32    25    26   ar
    33    26    27   ar
    34    27    28   ar
    35    28    29   ar
    36    29    30   ar
    37    30    31   ar
    38    31    32   ar
    39    19    20   ar
    40    20    21   ar
    41    21    22   ar
    42     4     5   ar
    43     5     6   ar
    44     6    50    1
    45    50    51    1
    46    50    52    1
    47    50    53    1
    48    36    37   ar
    49    37    38   ar
    50    47    48    1
    51    48    49    1
    52    49    44    1
    53    38    33   ar
    54     6     1   ar
    55    22     7    1
    56    22    13   ar
    57    21    16   ar
    58    32    23   ar
    59    31    26   ar
    60    39    42    1
@<TRIPOS>MOLECULE
*****
 53 60 0 0 0
SMALL
GASTEIGER

@<TRIPOS>ATOM
      1 C          61.8370   85.3647   13.6471 C.ar    1  UNL1        0.0043
      2 C          60.4441   85.4397   13.4836 C.ar    1  UNL1        0.0060
      3 C          59.7144   84.3319   13.0598 C.ar    1  UNL1        0.0691
      4 C          60.3596   83.1190   12.7937 C.ar    1  UNL1        0.2270
      5 C          61.7493   83.0266   12.9693 C.ar    1  UNL1        0.0729
      6 C          62.5027   84.1264   13.4247 C.ar    1  UNL1        0.0773
      7 N          59.6007   81.9892   12.3013 N.am    1  UNL1       -0.0905
      8 C          59.0974   81.1187   13.2403 C.2     1  UNL1        0.4233
      9 O          59.0604   81.4341   14.4624 O.2     1  UNL1       -0.2135
     10 C          58.6586   79.8506   12.8749 C.2     1  UNL1        0.1214
     11 C          58.8050   79.4130   11.5672 C.2     1  UNL1        0.0468
     12 I          58.2276   77.4071   11.1592 I       1  UNL1       -0.0419
     13 C          59.3018   80.2984   10.5947 C.ar    1  UNL1        0.0882
     14 C          59.5433   79.8684    9.2814 C.ar    1  UNL1        0.1051
     15 N          59.9935   80.7356    8.3465 N.ar    1  UNL1       -0.2434
     16 C          60.1579   82.0542    8.6066 C.ar    1  UNL1        0.0870
     17 C          60.5421   82.9042    7.5667 C.ar    1  UNL1        0.0193
     18 C          60.5759   84.2824    7.7605 C.ar    1  UNL1        0.0016
     19 C          60.1786   84.8357    8.9865 C.ar    1  UNL1        0.0018
     20 C          59.8168   83.9753   10.0397 C.ar    1  UNL1        0.0075
     21 C          59.8846   82.5694    9.8978 C.ar    1  UNL1        0.0810
     22 C          59.5880   81.6467   10.9551 C.ar    1  UNL1        0.2301
     23 C          60.1072   86.3108    9.1567 C.ar    1  UNL1        0.0192
     24 C          59.9557   87.1552    8.0417 C.ar    1  UNL1        0.0988
     25 N          59.8908   88.5035    8.1996 N.ar    1  UNL1       -0.2438
     26 C          59.9687   89.0867    9.4238 C.ar    1  UNL1        0.0813
     27 C          59.9018   90.4798    9.5443 C.ar    1  UNL1        0.0191
     28 C          59.9827   91.0772   10.8061 C.ar    1  UNL1        0.0015
     29 C          60.1285   90.2862   11.9500 C.ar    1  UNL1        0.0001
     30 C          60.1942   88.8941   11.8377 C.ar    1  UNL1        0.0015
     31 C          60.1165   88.2859   10.5764 C.ar    1  UNL1        0.0177
     32 C          60.1853   86.8940   10.4334 C.ar    1  UNL1        0.0030
     33 C          63.9037   88.9509   14.8157 C.ar    1  UNL1        0.0534
     34 C          63.8277   88.5816   13.4609 C.ar    1  UNL1        0.0045
     35 C          63.1547   87.4180   13.0784 C.ar    1  UNL1        0.0001
     36 C          62.5502   86.5996   14.0436 C.ar    1  UNL1       -0.0000
     37 C          62.5849   86.9882   15.3909 C.ar    1  UNL1        0.0001
     38 C          63.2613   88.1484   15.7756 C.ar    1  UNL1        0.0045
     39 N          65.7747   90.6348   14.4719 N.am    1  UNL1       -0.3024
     40 C          64.6280   90.1822   15.2117 C.2     1  UNL1        0.2458
     41 O          64.2182   90.8500   16.2007 O.2     1  UNL1       -0.2701
     42 H          65.9205   90.2665   13.5048 H       1  UNL1        0.1497
     43 C          68.6464   94.1090   16.3302 C.3     1  UNL1        0.0896
     44 N          68.5153   93.8818   14.8809 N.3     1  UNL1       -0.2714
     45 C          69.0049   92.5454   14.4849 C.3     1  UNL1        0.0738
     46 C          68.0758   91.4065   14.9523 C.3     1  UNL1        0.0369
     47 C          66.5781   91.7864   14.8940 C.3     1  UNL1        0.0746
     48 C          66.3401   92.9606   13.9405 C.3     1  UNL1        0.0369
     49 C          67.1515   94.1959   14.3785 C.3     1  UNL1        0.0738
     50 C          64.0019   83.9544   13.5958 C.3     1  UNL1        0.4188
     51 F          64.6520   84.4818   12.4962 F       1  UNL1       -0.1659
     52 F          64.4588   84.5831   14.7387 F       1  UNL1       -0.1659
     53 F          64.3333   82.6141   13.7020 F       1  UNL1       -0.1659
@<TRIPOS>BOND
     1    43    44    1
     2    44    45    1
     3    45    46    1
     4    46    47    1
     5    47    39    1
     6    39    40   am
     7    40    41    2
     8    40    33    1
     9    33    34   ar
    10    34    35   ar
    11    35    36   ar
    12    36     1    1
    13     1     2   ar
    14     2     3   ar
    15     3     4   ar
    16     4     7    1
    17     7     8    1
    18     8     9    2
    19     8    10    1
    20    10    11    2
    21    11    12    1
    22    11    13    1
    23    13    14   ar
    24    14    15   ar
    25    15    16   ar
    26    16    17   ar
    27    17    18   ar
    28    18    19   ar
    29    19    23    1
    30    23    24   ar
    31    24    25   ar
    32    25    26   ar
    33    26    27   ar
    34    27    28   ar
    35    28    29   ar
    36    29    30   ar
    37    30    31   ar
    38    31    32   ar
    39    19    20   ar
    40    20    21   ar
    41    21    22   ar
    42     4     5   ar
    43     5     6   ar
    44     6    50    1
    45    50    51    1
    46    50    52    1
    47    50    53    1
    48    36    37   ar
    49    37    38   ar
    50    47    48    1
    51    48    49    1
    52    49    44    1
    53    38    33   ar
    54     6     1   ar
    55    22     7    1
    56    22    13   ar
    57    21    16   ar
    58    32    23   ar
    59    31    26   ar
    60    39    42    1
@<TRIPOS>MOLECULE
*****
 53 60 0 0 0
SMALL
GASTEIGER

@<TRIPOS>ATOM
      1 C          60.6175   88.3420   10.3029 C.ar    1  UNL1        0.0043
      2 C          61.4529   89.0576   11.1761 C.ar    1  UNL1        0.0060
      3 C          61.7204   88.5826   12.4576 C.ar    1  UNL1        0.0691
      4 C          61.1626   87.3765   12.8961 C.ar    1  UNL1        0.2270
      5 C          60.3393   86.6437   12.0268 C.ar    1  UNL1        0.0729
      6 C          60.0788   87.0912   10.7166 C.ar    1  UNL1        0.0773
      7 N          61.4021   86.9185   14.2480 N.am    1  UNL1       -0.0905
      8 C          60.8678   87.6735   15.2665 C.2     1  UNL1        0.4233
      9 O          59.9911   88.5513   15.0312 O.2     1  UNL1       -0.2135
     10 C          61.3119   87.5221   16.5757 C.2     1  UNL1        0.1214
     11 C          62.3657   86.6663   16.8589 C.2     1  UNL1        0.0468
     12 I          63.0489   86.6240   18.8726 I       1  UNL1       -0.0419
     13 C          62.9090   85.8766   15.8305 C.ar    1  UNL1        0.0882
     14 C          64.0288   85.0629   16.0586 C.ar    1  UNL1        0.1051
     15 N          64.5254   84.2850   15.0702 N.ar    1  UNL1       -0.2434
     16 C          63.9322   84.1963   13.8563 C.ar    1  UNL1        0.0870
     17 C          64.4522   83.3048   12.9149 C.ar    1  UNL1        0.0193
     18 C          63.7828   83.0783   11.7154 C.ar    1  UNL1        0.0016
     19 C          62.5549   83.7060   11.4596 C.ar    1  UNL1        0.0018
     20 C          62.0470   84.6228   12.3987 C.ar    1  UNL1        0.0075
     21 C          62.7678   84.9512   13.5708 C.ar    1  UNL1        0.0810
     22 C          62.3286   85.9227   14.5303 C.ar    1  UNL1        0.2301
     23 C          61.7859   83.3786   10.2302 C.ar    1  UNL1        0.0192
     24 C          62.2495   83.7828    8.9650 C.ar    1  UNL1        0.0988
     25 N          61.5449   83.4826    7.8424 N.ar    1  UNL1       -0.2438
     26 C          60.3782   82.7888    7.8921 C.ar    1  UNL1        0.0813
     27 C          59.6797   82.5026    6.7132 C.ar    1  UNL1        0.0191
     28 C          58.4785   81.7886    6.7678 C.ar    1  UNL1        0.0015
     29 C          57.9730   81.3571    7.9982 C.ar    1  UNL1        0.0001
     30 C          58.6660   81.6376    9.1797 C.ar    1  UNL1        0.0015
     31 C          59.8700   82.3552    9.1353 C.ar    1  UNL1        0.0177
     32 C          60.5826   82.6555   10.3035 C.ar    1  UNL1        0.0030
     33 C          59.7997   90.0943    6.4612 C.ar    1  UNL1        0.0534
     34 C          59.2865   88.8269    6.7902 C.ar    1  UNL1        0.0045
     35 C          59.5489   88.2564    8.0388 C.ar    1  UNL1        0.0001
     36 C          60.3334   88.9399    8.9790 C.ar    1  UNL1       -0.0000
     37 C          60.8091   90.2232    8.6718 C.ar    1  UNL1        0.0001
     38 C          60.5520   90.7930    7.4224 C.ar    1  UNL1        0.0045
     39 N          60.5849   91.2353    4.3314 N.am    1  UNL1       -0.3024
     40 C          59.5232   90.6863    5.1306 C.2     1  UNL1        0.2458
     41 O          58.3415   90.6895    4.6883 O.2     1  UNL1       -0.2701
     42 H          61.5686   90.9623    4.5548 H       1  UNL1        0.1497
     43 C          59.1793   93.5623    0.2842 C.3     1  UNL1        0.0896
     44 N          60.4522   93.8560    0.9646 N.3     1  UNL1       -0.2714
     45 C          60.2404   94.3889    2.3261 C.3     1  UNL1        0.0738
     46 C          59.7267   93.3201    3.3123 C.3     1  UNL1        0.0369
     47 C          60.3371   91.9220    3.0599 C.3     1  UNL1        0.0746
     48 C          61.6408   92.0214    2.2629 C.3     1  UNL1        0.0369
     49 C          61.4031   92.7143    0.9067 C.3     1  UNL1        0.0738
     50 C          59.1820   86.2460    9.8290 C.3     1  UNL1        0.4188
     51 F          58.7074   85.1677   10.5515 F       1  UNL1       -0.1659
     52 F          58.1122   86.9753    9.3454 F       1  UNL1       -0.1659
     53 F          59.8836   85.7682    8.7351 F       1  UNL1       -0.1659
@<TRIPOS>BOND
     1    43    44    1
     2    44    45    1
     3    45    46    1
     4    46    47    1
     5    47    39    1
     6    39    40   am
     7    40    41    2
     8    40    33    1
     9    33    34   ar
    10    34    35   ar
    11    35    36   ar
    12    36     1    1
    13     1     2   ar
    14     2     3   ar
    15     3     4   ar
    16     4     7    1
    17     7     8    1
    18     8     9    2
    19     8    10    1
    20    10    11    2
    21    11    12    1
    22    11    13    1
    23    13    14   ar
    24    14    15   ar
    25    15    16   ar
    26    16    17   ar
    27    17    18   ar
    28    18    19   ar
    29    19    23    1
    30    23    24   ar
    31    24    25   ar
    32    25    26   ar
    33    26    27   ar
    34    27    28   ar
    35    28    29   ar
    36    29    30   ar
    37    30    31   ar
    38    31    32   ar
    39    19    20   ar
    40    20    21   ar
    41    21    22   ar
    42     4     5   ar
    43     5     6   ar
    44     6    50    1
    45    50    51    1
    46    50    52    1
    47    50    53    1
    48    36    37   ar
    49    37    38   ar
    50    47    48    1
    51    48    49    1
    52    49    44    1
    53    38    33   ar
    54     6     1   ar
    55    22     7    1
    56    22    13   ar
    57    21    16   ar
    58    32    23   ar
    59    31    26   ar
    60    39    42    1
