@<TRIPOS>MOLECULE
*****
 47 52 0 0 0
SMALL
GASTEIGER

@<TRIPOS>ATOM
      1 C         -64.2372  -52.2680  -24.3697 C.ar    1  UNL1        0.0702
      2 C         -63.6591  -52.8345  -23.2284 C.ar    1  UNL1        0.0191
      3 C         -64.3395  -53.8171  -22.5080 C.ar    1  UNL1        0.0356
      4 C         -65.6209  -54.2200  -22.9225 C.ar    1  UNL1        0.1318
      5 N         -66.1721  -53.6356  -24.0235 N.ar    1  UNL1       -0.2279
      6 C         -65.5254  -52.6809  -24.7431 C.ar    1  UNL1        0.1149
      7 N         -66.3579  -55.2351  -22.2067 N.pl3   1  UNL1       -0.2932
      8 C         -65.8595  -55.7173  -20.9094 C.3     1  UNL1        0.0923
      9 C         -67.0344  -56.1046  -20.0083 C.3     1  UNL1        0.0252
     10 C         -67.9321  -57.1971  -20.6462 C.3     1  UNL1        0.0472
     11 C         -67.8292  -57.2338  -22.1919 C.3     1  UNL1        0.0252
     12 C         -67.5587  -55.8511  -22.7979 C.3     1  UNL1        0.0923
     13 C         -69.3938  -57.0376  -20.1954 C.3     1  UNL1        0.2054
     14 O         -69.6437  -55.6820  -19.8285 O.3     1  UNL1       -0.4755
     15 C         -70.3899  -55.2872  -18.7086 C.ar    1  UNL1        0.1388
     16 C         -70.2841  -55.9366  -17.4648 C.ar    1  UNL1        0.0369
     17 C         -71.0503  -55.5047  -16.3804 C.ar    1  UNL1        0.0033
     18 C         -71.9263  -54.4261  -16.5223 C.ar    1  UNL1        0.0066
     19 C         -72.0452  -53.7651  -17.7564 C.ar    1  UNL1        0.0785
     20 C         -71.2697  -54.2061  -18.8446 C.ar    1  UNL1        0.0433
     21 C         -72.9738  -52.6226  -17.9046 C.2     1  UNL1        0.3381
     22 O         -72.8683  -51.8367  -18.8850 O.2     1  UNL1       -0.2451
     23 O         -73.9746  -52.4045  -16.9613 O.3     1  UNL1       -0.4771
     24 H         -74.6156  -51.6254  -17.0533 H       1  UNL1        0.2954
     25 C         -63.9019  -49.8504  -25.0741 C.2     1  UNL1        0.2839
     26 O         -64.8517  -49.4481  -24.3506 O.2     1  UNL1       -0.2665
     27 N         -63.5319  -51.2406  -25.0855 N.am    1  UNL1       -0.2766
     28 H         -62.7378  -51.5440  -25.6900 H       1  UNL1        0.1553
     29 C         -61.0578  -45.9433  -28.6465 C.ar    1  UNL1        0.0002
     30 C         -60.5269  -45.5603  -27.3848 C.ar    1  UNL1        0.0031
     31 C         -60.9217  -46.2185  -26.2067 C.ar    1  UNL1        0.0375
     32 C         -61.8439  -47.2534  -26.3151 C.ar    1  UNL1        0.1452
     33 O         -62.3369  -47.9870  -25.3471 O.2     1  UNL1       -0.4492
     34 C         -63.1713  -48.8600  -25.8837 C.ar    1  UNL1        0.1946
     35 C         -63.2416  -48.6659  -27.2689 C.ar    1  UNL1        0.0202
     36 C         -64.1015  -49.3749  -28.2709 C.3     1  UNL1        0.0345
     37 C         -62.3627  -47.6325  -27.5231 C.ar    1  UNL1        0.0337
     38 C         -61.9961  -47.0013  -28.7117 C.ar    1  UNL1        0.0028
     39 C         -59.8235  -43.8987  -32.2297 C.ar    1  UNL1        0.0073
     40 C         -61.1391  -43.7731  -31.7599 C.ar    1  UNL1       -0.0019
     41 C         -61.5395  -44.4332  -30.5947 C.ar    1  UNL1       -0.0002
     42 C         -60.6334  -45.2409  -29.8841 C.ar    1  UNL1       -0.0000
     43 C         -59.3201  -45.3776  -30.3688 C.ar    1  UNL1       -0.0002
     44 C         -58.9214  -44.7176  -31.5347 C.ar    1  UNL1       -0.0019
     45 C         -59.4059  -43.2217  -33.5033 C.3     1  UNL1        0.1687
     46 C         -61.4231  -43.4175  -34.5953 C.3     1  UNL1        0.1746
     47 O         -60.0759  -43.8325  -34.5850 O.3     1  UNL1       -0.3463
@<TRIPOS>BOND
     1    46    47    1
     2    47    45    1
     3    45    39    1
     4    39    40   ar
     5    40    41   ar
     6    41    42   ar
     7    42    29    1
     8    29    30   ar
     9    30    31   ar
    10    31    32   ar
    11    32    33   ar
    12    33    34   ar
    13    34    25    1
    14    25    26    2
    15    25    27   am
    16    27     1    1
    17     1     2   ar
    18     2     3   ar
    19     3     4   ar
    20     4     7    1
    21     7     8    1
    22     8     9    1
    23     9    10    1
    24    10    13    1
    25    13    14    1
    26    14    15    1
    27    15    16   ar
    28    16    17   ar
    29    17    18   ar
    30    18    19   ar
    31    19    21    1
    32    21    22    2
    33    21    23    1
    34    19    20   ar
    35    10    11    1
    36    11    12    1
    37     4     5   ar
    38     5     6   ar
    39    34    35   ar
    40    35    36    1
    41    35    37   ar
    42    37    38   ar
    43    42    43   ar
    44    43    44   ar
    45    44    39   ar
    46    38    29   ar
    47    37    32   ar
    48     6     1   ar
    49    12     7    1
    50    20    15   ar
    51    27    28    1
    52    23    24    1
@<TRIPOS>MOLECULE
*****
 47 52 0 0 0
SMALL
GASTEIGER

@<TRIPOS>ATOM
      1 C         -62.8353  -40.7472  -21.3701 C.ar    1  UNL1        0.0702
      2 C         -61.7695  -41.1744  -20.5707 C.ar    1  UNL1        0.0191
      3 C         -60.9185  -42.1877  -21.0140 C.ar    1  UNL1        0.0356
      4 C         -61.1511  -42.7941  -22.2607 C.ar    1  UNL1        0.1318
      5 N         -62.2104  -42.3767  -23.0098 N.ar    1  UNL1       -0.2279
      6 C         -63.0485  -41.3881  -22.6003 C.ar    1  UNL1        0.1149
      7 N         -60.2932  -43.8445  -22.7575 N.pl3   1  UNL1       -0.2932
      8 C         -58.8496  -43.7977  -22.4784 C.3     1  UNL1        0.0923
      9 C         -58.2950  -45.2184  -22.3499 C.3     1  UNL1        0.0252
     10 C         -58.5390  -46.0648  -23.6268 C.3     1  UNL1        0.0472
     11 C         -59.7340  -45.5521  -24.4694 C.3     1  UNL1        0.0252
     12 C         -60.8341  -44.9187  -23.6086 C.3     1  UNL1        0.0923
     13 C         -58.7120  -47.5517  -23.2740 C.3     1  UNL1        0.2054
     14 O         -59.9964  -47.7664  -22.6917 O.3     1  UNL1       -0.4755
     15 C         -60.9109  -48.7386  -23.1225 C.ar    1  UNL1        0.1388
     16 C         -61.9476  -48.4497  -24.0290 C.ar    1  UNL1        0.0369
     17 C         -62.8326  -49.4539  -24.4260 C.ar    1  UNL1        0.0033
     18 C         -62.6955  -50.7511  -23.9267 C.ar    1  UNL1        0.0066
     19 C         -61.6664  -51.0586  -23.0209 C.ar    1  UNL1        0.0785
     20 C         -60.7782  -50.0412  -22.6256 C.ar    1  UNL1        0.0433
     21 C         -61.5228  -52.4335  -22.4932 C.2     1  UNL1        0.3381
     22 O         -62.5163  -53.2087  -22.4514 O.2     1  UNL1       -0.2451
     23 O         -60.2868  -52.8848  -22.0371 O.3     1  UNL1       -0.4771
     24 H         -60.1776  -53.8242  -21.6740 H       1  UNL1        0.2954
     25 C         -63.3150  -38.3558  -20.6600 C.2     1  UNL1        0.2839
     26 O         -62.1512  -37.9742  -20.9553 O.2     1  UNL1       -0.2665
     27 N         -63.7154  -39.7188  -20.8872 N.am    1  UNL1       -0.2766
     28 H         -64.6871  -40.0050  -20.6381 H       1  UNL1        0.1553
     29 C         -67.3938  -34.4925  -18.5258 C.ar    1  UNL1        0.0002
     30 C         -66.2001  -33.8804  -18.0558 C.ar    1  UNL1        0.0031
     31 C         -64.9436  -34.4533  -18.3205 C.ar    1  UNL1        0.0375
     32 C         -64.9061  -35.6331  -19.0553 C.ar    1  UNL1        0.1452
     33 O         -63.8468  -36.3207  -19.4064 O.2     1  UNL1       -0.4492
     34 C         -64.2545  -37.3678  -20.1019 C.ar    1  UNL1        0.1946
     35 C         -65.6525  -37.3725  -20.1849 C.ar    1  UNL1        0.0202
     36 C         -66.5492  -38.3946  -20.8152 C.3     1  UNL1        0.0345
     37 C         -66.0472  -36.2328  -19.5139 C.ar    1  UNL1        0.0337
     38 C         -67.3105  -35.6946  -19.2688 C.ar    1  UNL1        0.0028
     39 C         -71.2249  -32.7055  -17.7060 C.ar    1  UNL1        0.0073
     40 C         -70.0585  -32.1724  -17.1379 C.ar    1  UNL1       -0.0019
     41 C         -68.8141  -32.7495  -17.4067 C.ar    1  UNL1       -0.0002
     42 C         -68.7152  -33.8782  -18.2401 C.ar    1  UNL1       -0.0000
     43 C         -69.8896  -34.4195  -18.7935 C.ar    1  UNL1       -0.0002
     44 C         -71.1334  -33.8420  -18.5229 C.ar    1  UNL1       -0.0019
     45 C         -72.5651  -32.1095  -17.3842 C.3     1  UNL1        0.1687
     46 C         -74.6888  -32.9983  -17.4032 C.3     1  UNL1        0.1746
     47 O         -73.5456  -32.7340  -18.1847 O.3     1  UNL1       -0.3463
@<TRIPOS>BOND
     1    46    47    1
     2    47    45    1
     3    45    39    1
     4    39    40   ar
     5    40    41   ar
     6    41    42   ar
     7    42    29    1
     8    29    30   ar
     9    30    31   ar
    10    31    32   ar
    11    32    33   ar
    12    33    34   ar
    13    34    25    1
    14    25    26    2
    15    25    27   am
    16    27     1    1
    17     1     2   ar
    18     2     3   ar
    19     3     4   ar
    20     4     7    1
    21     7     8    1
    22     8     9    1
    23     9    10    1
    24    10    13    1
    25    13    14    1
    26    14    15    1
    27    15    16   ar
    28    16    17   ar
    29    17    18   ar
    30    18    19   ar
    31    19    21    1
    32    21    22    2
    33    21    23    1
    34    19    20   ar
    35    10    11    1
    36    11    12    1
    37     4     5   ar
    38     5     6   ar
    39    34    35   ar
    40    35    36    1
    41    35    37   ar
    42    37    38   ar
    43    42    43   ar
    44    43    44   ar
    45    44    39   ar
    46    38    29   ar
    47    37    32   ar
    48     6     1   ar
    49    12     7    1
    50    20    15   ar
    51    27    28    1
    52    23    24    1
@<TRIPOS>MOLECULE
*****
 47 52 0 0 0
SMALL
GASTEIGER

@<TRIPOS>ATOM
      1 C         -62.8260  -40.9609  -21.3335 C.ar    1  UNL1        0.0702
      2 C         -61.9249  -41.5621  -20.4480 C.ar    1  UNL1        0.0191
      3 C         -61.0955  -42.5971  -20.8818 C.ar    1  UNL1        0.0356
      4 C         -61.1854  -43.0490  -22.2099 C.ar    1  UNL1        0.1318
      5 N         -62.0881  -42.4631  -23.0461 N.ar    1  UNL1       -0.2279
      6 C         -62.9018  -41.4503  -22.6466 C.ar    1  UNL1        0.1149
      7 N         -60.3440  -44.1158  -22.6996 N.pl3   1  UNL1       -0.2932
      8 C         -58.9063  -44.1097  -22.3880 C.3     1  UNL1        0.0923
      9 C         -58.3916  -45.5457  -22.2637 C.3     1  UNL1        0.0252
     10 C         -58.6286  -46.3714  -23.5553 C.3     1  UNL1        0.0472
     11 C         -59.7907  -45.8186  -24.4183 C.3     1  UNL1        0.0252
     12 C         -60.8931  -45.1662  -23.5749 C.3     1  UNL1        0.0923
     13 C         -58.8477  -47.8572  -23.2236 C.3     1  UNL1        0.2054
     14 O         -60.1207  -48.0339  -22.6048 O.3     1  UNL1       -0.4755
     15 C         -61.0380  -49.0376  -22.9484 C.ar    1  UNL1        0.1388
     16 C         -60.9775  -50.3334  -22.4031 C.ar    1  UNL1        0.0369
     17 C         -61.9151  -51.2973  -22.7790 C.ar    1  UNL1        0.0033
     18 C         -62.9187  -50.9827  -23.6980 C.ar    1  UNL1        0.0066
     19 C         -62.9953  -49.6942  -24.2530 C.ar    1  UNL1        0.0785
     20 C         -62.0469  -48.7280  -23.8691 C.ar    1  UNL1        0.0433
     21 C         -64.0593  -49.3628  -25.2263 C.2     1  UNL1        0.3381
     22 O         -65.2346  -49.1301  -24.8335 O.2     1  UNL1       -0.2451
     23 O         -63.7720  -49.3047  -26.5877 O.3     1  UNL1       -0.4771
     24 H         -64.4930  -49.0787  -27.2625 H       1  UNL1        0.2954
     25 C         -63.2725  -38.5480  -20.6763 C.2     1  UNL1        0.2839
     26 O         -62.1099  -38.1851  -20.9990 O.2     1  UNL1       -0.2665
     27 N         -63.6888  -39.9123  -20.8630 N.am    1  UNL1       -0.2766
     28 H         -64.6591  -40.1829  -20.5919 H       1  UNL1        0.1553
     29 C         -67.2811  -34.5909  -18.5815 C.ar    1  UNL1        0.0002
     30 C         -66.0759  -33.9906  -18.1257 C.ar    1  UNL1        0.0031
     31 C         -64.8297  -34.5868  -18.3874 C.ar    1  UNL1        0.0375
     32 C         -64.8138  -35.7777  -19.1049 C.ar    1  UNL1        0.1452
     33 O         -63.7670  -36.4867  -19.4504 O.2     1  UNL1       -0.4492
     34 C         -64.1939  -37.5374  -20.1287 C.ar    1  UNL1        0.1946
     35 C         -65.5922  -37.5216  -20.2056 C.ar    1  UNL1        0.0202
     36 C         -66.5075  -38.5387  -20.8170 C.3     1  UNL1        0.0345
     37 C         -65.9662  -36.3662  -19.5498 C.ar    1  UNL1        0.0337
     38 C         -67.2198  -35.8048  -19.3071 C.ar    1  UNL1        0.0028
     39 C         -71.0801  -32.7324  -17.7714 C.ar    1  UNL1        0.0073
     40 C         -69.9066  -32.2268  -17.1930 C.ar    1  UNL1       -0.0019
     41 C         -68.6725  -32.8271  -17.4586 C.ar    1  UNL1       -0.0002
     42 C         -68.5915  -33.9520  -18.2992 C.ar    1  UNL1       -0.0000
     43 C         -69.7733  -34.4657  -18.8629 C.ar    1  UNL1       -0.0002
     44 C         -71.0068  -33.8650  -18.5956 C.ar    1  UNL1       -0.0019
     45 C         -72.4099  -32.1117  -17.4533 C.3     1  UNL1        0.1687
     46 C         -74.5408  -32.9801  -17.5260 C.3     1  UNL1        0.1746
     47 O         -73.3922  -32.6856  -18.2886 O.3     1  UNL1       -0.3463
@<TRIPOS>BOND
     1    46    47    1
     2    47    45    1
     3    45    39    1
     4    39    40   ar
     5    40    41   ar
     6    41    42   ar
     7    42    29    1
     8    29    30   ar
     9    30    31   ar
    10    31    32   ar
    11    32    33   ar
    12    33    34   ar
    13    34    25    1
    14    25    26    2
    15    25    27   am
    16    27     1    1
    17     1     2   ar
    18     2     3   ar
    19     3     4   ar
    20     4     7    1
    21     7     8    1
    22     8     9    1
    23     9    10    1
    24    10    13    1
    25    13    14    1
    26    14    15    1
    27    15    16   ar
    28    16    17   ar
    29    17    18   ar
    30    18    19   ar
    31    19    21    1
    32    21    22    2
    33    21    23    1
    34    19    20   ar
    35    10    11    1
    36    11    12    1
    37     4     5   ar
    38     5     6   ar
    39    34    35   ar
    40    35    36    1
    41    35    37   ar
    42    37    38   ar
    43    42    43   ar
    44    43    44   ar
    45    44    39   ar
    46    38    29   ar
    47    37    32   ar
    48     6     1   ar
    49    12     7    1
    50    20    15   ar
    51    27    28    1
    52    23    24    1
@<TRIPOS>MOLECULE
*****
 47 52 0 0 0
SMALL
GASTEIGER

@<TRIPOS>ATOM
      1 C         -62.7237  -42.6137  -21.3236 C.ar    1  UNL1        0.0702
      2 C         -63.2512  -43.8313  -20.8797 C.ar    1  UNL1        0.0191
      3 C         -62.5916  -45.0286  -21.1601 C.ar    1  UNL1        0.0356
      4 C         -61.4038  -45.0079  -21.9115 C.ar    1  UNL1        0.1318
      5 N         -60.9235  -43.8112  -22.3530 N.ar    1  UNL1       -0.2279
      6 C         -61.5464  -42.6327  -22.0871 C.ar    1  UNL1        0.1149
      7 N         -60.6891  -46.2240  -22.2218 N.pl3   1  UNL1       -0.2932
      8 C         -60.3530  -47.1656  -21.1428 C.3     1  UNL1        0.0923
      9 C         -60.3609  -48.5995  -21.6780 C.3     1  UNL1        0.0252
     10 C         -59.3671  -48.7963  -22.8527 C.3     1  UNL1        0.0472
     11 C         -59.0435  -47.4752  -23.5951 C.3     1  UNL1        0.0252
     12 C         -60.2220  -46.4936  -23.5929 C.3     1  UNL1        0.0923
     13 C         -59.8800  -49.8662  -23.8313 C.3     1  UNL1        0.2054
     14 O         -61.2936  -50.0060  -23.7007 O.3     1  UNL1       -0.4755
     15 C         -62.2296  -49.4907  -24.6092 C.ar    1  UNL1        0.1388
     16 C         -63.6163  -49.6596  -24.4405 C.ar    1  UNL1        0.0369
     17 C         -64.5068  -49.1270  -25.3748 C.ar    1  UNL1        0.0033
     18 C         -64.0280  -48.4235  -26.4824 C.ar    1  UNL1        0.0066
     19 C         -62.6468  -48.2445  -26.6675 C.ar    1  UNL1        0.0785
     20 C         -61.7556  -48.7841  -25.7216 C.ar    1  UNL1        0.0433
     21 C         -62.1416  -47.4989  -27.8415 C.2     1  UNL1        0.3381
     22 O         -62.9433  -46.9217  -28.6251 O.2     1  UNL1       -0.2451
     23 O         -60.7737  -47.4275  -28.0923 O.3     1  UNL1       -0.4771
     24 H         -60.4173  -46.9197  -28.8931 H       1  UNL1        0.2954
     25 C         -62.8230  -40.2268  -20.4601 C.2     1  UNL1        0.2839
     26 O         -61.5856  -40.1999  -20.2246 O.2     1  UNL1       -0.2665
     27 N         -63.4289  -41.3927  -21.0457 N.am    1  UNL1       -0.2766
     28 H         -64.4547  -41.3844  -21.2346 H       1  UNL1        0.1553
     29 C         -66.3512  -35.5323  -19.1834 C.ar    1  UNL1        0.0002
     30 C         -65.0845  -34.8885  -19.2258 C.ar    1  UNL1        0.0031
     31 C         -63.9137  -35.6182  -19.4972 C.ar    1  UNL1        0.0375
     32 C         -64.0342  -36.9849  -19.7232 C.ar    1  UNL1        0.1452
     33 O         -63.0745  -37.8367  -19.9904 O.2     1  UNL1       -0.4492
     34 C         -63.6214  -39.0300  -20.1430 C.ar    1  UNL1        0.1946
     35 C         -65.0049  -38.9520  -19.9397 C.ar    1  UNL1        0.0202
     36 C         -66.0156  -40.0585  -19.9460 C.3     1  UNL1        0.0345
     37 C         -65.2470  -37.6172  -19.6856 C.ar    1  UNL1        0.0337
     38 C         -66.4287  -36.9262  -19.4175 C.ar    1  UNL1        0.0028
     39 C         -69.9152  -33.2611  -18.3574 C.ar    1  UNL1        0.0073
     40 C         -68.7215  -32.9781  -17.6775 C.ar    1  UNL1       -0.0019
     41 C         -67.5632  -33.7122  -17.9479 C.ar    1  UNL1       -0.0002
     42 C         -67.5810  -34.7512  -18.8959 C.ar    1  UNL1       -0.0000
     43 C         -68.7848  -35.0425  -19.5624 C.ar    1  UNL1       -0.0002
     44 C         -69.9426  -34.3082  -19.2902 C.ar    1  UNL1       -0.0019
     45 C         -71.1687  -32.4988  -18.0371 C.3     1  UNL1        0.1687
     46 C         -73.4083  -32.8925  -17.6775 C.3     1  UNL1        0.1746
     47 O         -72.2834  -33.2640  -18.4418 O.3     1  UNL1       -0.3463
@<TRIPOS>BOND
     1    46    47    1
     2    47    45    1
     3    45    39    1
     4    39    40   ar
     5    40    41   ar
     6    41    42   ar
     7    42    29    1
     8    29    30   ar
     9    30    31   ar
    10    31    32   ar
    11    32    33   ar
    12    33    34   ar
    13    34    25    1
    14    25    26    2
    15    25    27   am
    16    27     1    1
    17     1     2   ar
    18     2     3   ar
    19     3     4   ar
    20     4     7    1
    21     7     8    1
    22     8     9    1
    23     9    10    1
    24    10    13    1
    25    13    14    1
    26    14    15    1
    27    15    16   ar
    28    16    17   ar
    29    17    18   ar
    30    18    19   ar
    31    19    21    1
    32    21    22    2
    33    21    23    1
    34    19    20   ar
    35    10    11    1
    36    11    12    1
    37     4     5   ar
    38     5     6   ar
    39    34    35   ar
    40    35    36    1
    41    35    37   ar
    42    37    38   ar
    43    42    43   ar
    44    43    44   ar
    45    44    39   ar
    46    38    29   ar
    47    37    32   ar
    48     6     1   ar
    49    12     7    1
    50    20    15   ar
    51    27    28    1
    52    23    24    1
