@<TRIPOS>MOLECULE
*****
 36 41 0 0 0
SMALL
GASTEIGER

@<TRIPOS>ATOM
      1 C          48.0048   12.7807  -25.2545 C.ar    1  UNL1        0.1095
      2 N          47.1070   12.6530  -26.2640 N.ar    1  UNL1       -0.1677
      3 N          47.1141   13.7815  -26.9649 N.ar    1  UNL1       -0.2319
      4 C          46.3369   14.0003  -28.1771 C.3     1  UNL1        0.1554
      5 C          48.0205   14.6117  -26.4255 C.ar    1  UNL1        0.1657
      6 N          48.3771   15.8392  -26.8741 N.ar    1  UNL1       -0.2025
      7 C          49.3331   16.5256  -26.1801 C.ar    1  UNL1        0.1888
      8 S          49.8406   18.1443  -26.7359 S.3     1  UNL1       -0.1034
      9 N          49.8894   15.9901  -25.0473 N.ar    1  UNL1       -0.2063
     10 C          49.5299   14.7544  -24.5886 C.ar    1  UNL1        0.1383
     11 C          48.5889   14.0385  -25.3317 C.ar    1  UNL1        0.0865
     12 H          48.8475   18.7774  -25.9654 H       1  UNL1        0.1101
     13 C          49.3929   10.7769  -24.4633 C.ar    1  UNL1        0.0809
     14 C          48.3533   11.6815  -24.3441 C.ar    1  UNL1        0.0577
     15 C          47.7218   11.3524  -23.1603 C.ar    1  UNL1        0.1231
     16 N          48.3383   10.2893  -22.6081 N.ar    1  UNL1       -0.1676
     17 N          49.3387    9.9396  -23.4028 N.ar    1  UNL1       -0.2488
     18 C          50.2004    8.7924  -23.1374 C.3     1  UNL1        0.1537
     19 C          53.0398   10.3691  -28.9451 C.3     1  UNL1        0.0310
     20 C          52.1141   10.4505  -27.7678 C.ar    1  UNL1       -0.0218
     21 C          50.9493    9.6699  -27.7294 C.ar    1  UNL1       -0.0042
     22 C          50.0670    9.7731  -26.6506 C.ar    1  UNL1        0.0012
     23 C          50.3321   10.6661  -25.6001 C.ar    1  UNL1        0.0174
     24 C          51.4860   11.4626  -25.6505 C.ar    1  UNL1        0.0012
     25 C          52.3685   11.3592  -26.7298 C.ar    1  UNL1       -0.0042
     26 N          50.0359   14.2793  -23.3379 N.pl3   1  UNL1       -0.2916
     27 C          51.4039   13.8505  -23.1511 C.3     1  UNL1        0.0937
     28 C          51.4542   13.3342  -21.7230 C.3     1  UNL1        0.0391
     29 C          50.3052   14.0389  -20.9741 C.3     1  UNL1        0.0790
     30 C          49.3134   14.4245  -22.0866 C.3     1  UNL1        0.1081
     31 N          49.6815   13.1694  -19.9383 N.3     1  UNL1       -0.2723
     32 C          48.2260   13.0161  -20.1655 C.3     1  UNL1        0.0721
     33 C          47.5570   12.3599  -18.9436 C.3     1  UNL1        0.0174
     34 C          48.5132   11.4301  -18.1820 C.3     1  UNL1        0.0029
     35 C          49.5025   10.7696  -19.1401 C.3     1  UNL1        0.0174
     36 C          50.3274   11.8266  -19.9081 C.3     1  UNL1        0.0721
@<TRIPOS>BOND
     1    19    20    1
     2    20    21   ar
     3    21    22   ar
     4    22    23   ar
     5    23    13    1
     6    13    14   ar
     7    14     1    1
     8     1     2   ar
     9     2     3   ar
    10     3     4    1
    11     3     5   ar
    12     5     6   ar
    13     6     7   ar
    14     7     8    1
    15     7     9   ar
    16     9    10   ar
    17    10    26    1
    18    26    27    1
    19    27    28    1
    20    28    29    1
    21    29    31    1
    22    31    32    1
    23    32    33    1
    24    33    34    1
    25    34    35    1
    26    35    36    1
    27    29    30    1
    28    10    11   ar
    29    14    15   ar
    30    15    16   ar
    31    16    17   ar
    32    17    18    1
    33    23    24   ar
    34    24    25   ar
    35    25    20   ar
    36    17    13   ar
    37    11     1   ar
    38    11     5   ar
    39    30    26    1
    40    36    31    1
    41     8    12    1
@<TRIPOS>MOLECULE
*****
 36 41 0 0 0
SMALL
GASTEIGER

@<TRIPOS>ATOM
      1 C          49.2953   11.2286  -26.1501 C.ar    1  UNL1        0.1095
      2 N          49.2667   10.1930  -27.0266 N.ar    1  UNL1       -0.1677
      3 N          50.5118    9.9593  -27.4266 N.ar    1  UNL1       -0.2319
      4 C          50.8989    8.8704  -28.3131 C.3     1  UNL1        0.1554
      5 C          51.3292   10.8183  -26.7974 C.ar    1  UNL1        0.1657
      6 N          52.6800   10.8753  -26.8815 N.ar    1  UNL1       -0.2025
      7 C          53.3310   11.8275  -26.1491 C.ar    1  UNL1        0.1888
      8 S          55.1112   11.9382  -26.2223 S.3     1  UNL1       -0.1034
      9 N          52.6257   12.7132  -25.3761 N.ar    1  UNL1       -0.2063
     10 C          51.2630   12.6624  -25.2915 C.ar    1  UNL1        0.1383
     11 C          50.6092   11.6546  -26.0035 C.ar    1  UNL1        0.0865
     12 H          55.0630   12.8290  -27.3108 H       1  UNL1        0.1101
     13 C          46.9109   12.1400  -25.9229 C.ar    1  UNL1        0.0809
     14 C          48.1129   11.6880  -25.4090 C.ar    1  UNL1        0.0577
     15 C          47.9575   11.7290  -24.0369 C.ar    1  UNL1        0.1231
     16 N          46.7314   12.2031  -23.7421 N.ar    1  UNL1       -0.1676
     17 N          46.1080   12.4593  -24.8826 N.ar    1  UNL1       -0.2488
     18 C          44.7668   13.0305  -24.9439 C.3     1  UNL1        0.1537
     19 C          45.6127   12.9340  -31.5119 C.3     1  UNL1        0.0310
     20 C          45.9825   12.7339  -30.0721 C.ar    1  UNL1       -0.0218
     21 C          46.2390   11.4453  -29.5810 C.ar    1  UNL1       -0.0042
     22 C          46.5464   11.2539  -28.2313 C.ar    1  UNL1        0.0012
     23 C          46.5913   12.3474  -27.3517 C.ar    1  UNL1        0.0174
     24 C          46.3125   13.6330  -27.8395 C.ar    1  UNL1        0.0012
     25 C          46.0050   13.8243  -29.1898 C.ar    1  UNL1       -0.0042
     26 N          50.5511   13.6768  -24.5773 N.pl3   1  UNL1       -0.2916
     27 C          50.2571   13.5891  -23.1644 C.3     1  UNL1        0.0937
     28 C          49.4057   14.8130  -22.8715 C.3     1  UNL1        0.0391
     29 C          49.7540   15.8457  -23.9624 C.3     1  UNL1        0.0790
     30 C          50.2865   14.9938  -25.1288 C.3     1  UNL1        0.1081
     31 N          48.5819   16.6748  -24.3580 N.3     1  UNL1       -0.2723
     32 C          48.9787   17.7728  -25.2694 C.3     1  UNL1        0.0721
     33 C          47.8230   18.7762  -25.4380 C.3     1  UNL1        0.0174
     34 C          46.4461   18.1162  -25.2722 C.3     1  UNL1        0.0029
     35 C          46.4754   16.6721  -25.7691 C.3     1  UNL1        0.0174
     36 C          47.5316   15.8403  -25.0075 C.3     1  UNL1        0.0721
@<TRIPOS>BOND
     1    19    20    1
     2    20    21   ar
     3    21    22   ar
     4    22    23   ar
     5    23    13    1
     6    13    14   ar
     7    14     1    1
     8     1     2   ar
     9     2     3   ar
    10     3     4    1
    11     3     5   ar
    12     5     6   ar
    13     6     7   ar
    14     7     8    1
    15     7     9   ar
    16     9    10   ar
    17    10    26    1
    18    26    27    1
    19    27    28    1
    20    28    29    1
    21    29    31    1
    22    31    32    1
    23    32    33    1
    24    33    34    1
    25    34    35    1
    26    35    36    1
    27    29    30    1
    28    10    11   ar
    29    14    15   ar
    30    15    16   ar
    31    16    17   ar
    32    17    18    1
    33    23    24   ar
    34    24    25   ar
    35    25    20   ar
    36    17    13   ar
    37    11     1   ar
    38    11     5   ar
    39    30    26    1
    40    36    31    1
    41     8    12    1
@<TRIPOS>MOLECULE
*****
 36 41 0 0 0
SMALL
GASTEIGER

@<TRIPOS>ATOM
      1 C          49.3137   16.0517  -24.3466 C.ar    1  UNL1        0.1095
      2 N          50.0386   17.0916  -24.8311 N.ar    1  UNL1       -0.1677
      3 N          49.4653   17.5024  -25.9569 N.ar    1  UNL1       -0.2319
      4 C          49.9096   18.6524  -26.7326 C.3     1  UNL1        0.1554
      5 C          48.3753   16.7509  -26.1781 C.ar    1  UNL1        0.1657
      6 N          47.4805   16.8818  -27.1867 N.ar    1  UNL1       -0.2025
      7 C          46.4268   16.0130  -27.2293 C.ar    1  UNL1        0.1888
      8 S          45.2181   16.1495  -28.5358 S.3     1  UNL1       -0.1034
      9 N          46.3033   15.0230  -26.2891 N.ar    1  UNL1       -0.2063
     10 C          47.2055   14.8843  -25.2726 C.ar    1  UNL1        0.1383
     11 C          48.2514   15.8073  -25.2075 C.ar    1  UNL1        0.0865
     12 H          45.9473   15.2834  -29.3717 H       1  UNL1        0.1101
     13 C          50.4541   14.3798  -22.7744 C.ar    1  UNL1        0.0809
     14 C          49.5833   15.4189  -23.0484 C.ar    1  UNL1        0.0577
     15 C          49.0363   15.7636  -21.8275 C.ar    1  UNL1        0.1231
     16 N          49.5372   14.9565  -20.8721 N.ar    1  UNL1       -0.1676
     17 N          50.3837   14.1171  -21.4497 N.ar    1  UNL1       -0.2488
     18 C          51.0828   13.0655  -20.7187 C.3     1  UNL1        0.1537
     19 C          53.5548   11.4159  -26.6671 C.3     1  UNL1        0.0310
     20 C          52.7345   12.1541  -25.6514 C.ar    1  UNL1       -0.0218
     21 C          51.5654   12.8250  -26.0399 C.ar    1  UNL1       -0.0042
     22 C          50.8211   13.5447  -25.1013 C.ar    1  UNL1        0.0012
     23 C          51.2411   13.6121  -23.7632 C.ar    1  UNL1        0.0174
     24 C          52.4226   12.9592  -23.3807 C.ar    1  UNL1        0.0012
     25 C          53.1671   12.2394  -24.3197 C.ar    1  UNL1       -0.0042
     26 N          47.1174   13.7671  -24.3837 N.pl3   1  UNL1       -0.2916
     27 C          46.4404   13.8248  -23.1076 C.3     1  UNL1        0.0937
     28 C          46.6952   12.4672  -22.4747 C.3     1  UNL1        0.0391
     29 C          46.9751   11.4986  -23.6414 C.3     1  UNL1        0.0790
     30 C          47.4632   12.4133  -24.7793 C.3     1  UNL1        0.1081
     31 N          47.9760   10.4540  -23.2881 N.3     1  UNL1       -0.2723
     32 C          49.2851   10.7207  -23.9273 C.3     1  UNL1        0.0721
     33 C          50.2114    9.4988  -23.7865 C.3     1  UNL1        0.0174
     34 C          49.9087    8.6773  -22.5246 C.3     1  UNL1        0.0029
     35 C          49.4196    9.5817  -21.3951 C.3     1  UNL1        0.0174
     36 C          48.1505   10.3588  -21.8110 C.3     1  UNL1        0.0721
@<TRIPOS>BOND
     1    19    20    1
     2    20    21   ar
     3    21    22   ar
     4    22    23   ar
     5    23    13    1
     6    13    14   ar
     7    14     1    1
     8     1     2   ar
     9     2     3   ar
    10     3     4    1
    11     3     5   ar
    12     5     6   ar
    13     6     7   ar
    14     7     8    1
    15     7     9   ar
    16     9    10   ar
    17    10    26    1
    18    26    27    1
    19    27    28    1
    20    28    29    1
    21    29    31    1
    22    31    32    1
    23    32    33    1
    24    33    34    1
    25    34    35    1
    26    35    36    1
    27    29    30    1
    28    10    11   ar
    29    14    15   ar
    30    15    16   ar
    31    16    17   ar
    32    17    18    1
    33    23    24   ar
    34    24    25   ar
    35    25    20   ar
    36    17    13   ar
    37    11     1   ar
    38    11     5   ar
    39    30    26    1
    40    36    31    1
    41     8    12    1
@<TRIPOS>MOLECULE
*****
 36 41 0 0 0
SMALL
GASTEIGER

@<TRIPOS>ATOM
      1 C          48.4276   12.4605  -26.0526 C.ar    1  UNL1        0.1095
      2 N          47.3273   12.3274  -26.8357 N.ar    1  UNL1       -0.1677
      3 N          46.9372   13.5424  -27.2053 N.ar    1  UNL1       -0.2319
      4 C          45.8324   13.8085  -28.1164 C.3     1  UNL1        0.1554
      5 C          47.7894   14.4395  -26.6850 C.ar    1  UNL1        0.1657
      6 N          47.7802   15.7816  -26.8694 N.ar    1  UNL1       -0.2025
      7 C          48.7476   16.5229  -26.2518 C.ar    1  UNL1        0.1888
      8 S          48.7804   18.2944  -26.4695 S.3     1  UNL1       -0.1034
      9 N          49.6796   15.9190  -25.4481 N.ar    1  UNL1       -0.2063
     10 C          49.6904   14.5664  -25.2557 C.ar    1  UNL1        0.1383
     11 C          48.7292   13.8108  -25.9304 C.ar    1  UNL1        0.0865
     12 H          47.9371   18.4984  -25.3613 H       1  UNL1        0.1101
     13 C          49.0738   10.6599  -24.3473 C.ar    1  UNL1        0.0809
     14 C          49.2055   11.3167  -25.5575 C.ar    1  UNL1        0.0577
     15 C          50.2117   10.6458  -26.2253 C.ar    1  UNL1        0.1231
     16 N          50.6758    9.6500  -25.4454 N.ar    1  UNL1       -0.1676
     17 N          49.9936    9.6692  -24.3100 N.ar    1  UNL1       -0.2488
     18 C          50.2616    8.7528  -23.2067 C.3     1  UNL1        0.1537
     19 C          45.5705   12.1442  -19.9797 C.3     1  UNL1        0.0310
     20 C          46.4503   11.7462  -21.1274 C.ar    1  UNL1       -0.0218
     21 C          47.1288   10.5187  -21.1050 C.ar    1  UNL1       -0.0042
     22 C          47.9784   10.1639  -22.1564 C.ar    1  UNL1        0.0012
     23 C          48.1692   11.0363  -23.2398 C.ar    1  UNL1        0.0174
     24 C          47.5074   12.2733  -23.2502 C.ar    1  UNL1        0.0012
     25 C          46.6577   12.6281  -22.1984 C.ar    1  UNL1       -0.0042
     26 N          50.5962   13.9838  -24.3144 N.pl3   1  UNL1       -0.2916
     27 C          51.7790   13.2507  -24.7065 C.3     1  UNL1        0.0937
     28 C          52.3609   12.7324  -23.4021 C.3     1  UNL1        0.0391
     29 C          51.8478   13.6806  -22.2997 C.3     1  UNL1        0.0790
     30 C          50.5644   14.2877  -22.8948 C.3     1  UNL1        0.1081
     31 N          51.5945   12.9751  -21.0129 N.3     1  UNL1       -0.2723
     32 C          52.3650   13.5813  -19.9027 C.3     1  UNL1        0.0721
     33 C          52.3148   12.6777  -18.6569 C.3     1  UNL1        0.0174
     34 C          51.0256   11.8458  -18.5889 C.3     1  UNL1        0.0029
     35 C          49.8554   12.6106  -19.2042 C.3     1  UNL1        0.0174
     36 C          50.1426   12.9817  -20.6765 C.3     1  UNL1        0.0721
@<TRIPOS>BOND
     1    19    20    1
     2    20    21   ar
     3    21    22   ar
     4    22    23   ar
     5    23    13    1
     6    13    14   ar
     7    14     1    1
     8     1     2   ar
     9     2     3   ar
    10     3     4    1
    11     3     5   ar
    12     5     6   ar
    13     6     7   ar
    14     7     8    1
    15     7     9   ar
    16     9    10   ar
    17    10    26    1
    18    26    27    1
    19    27    28    1
    20    28    29    1
    21    29    31    1
    22    31    32    1
    23    32    33    1
    24    33    34    1
    25    34    35    1
    26    35    36    1
    27    29    30    1
    28    10    11   ar
    29    14    15   ar
    30    15    16   ar
    31    16    17   ar
    32    17    18    1
    33    23    24   ar
    34    24    25   ar
    35    25    20   ar
    36    17    13   ar
    37    11     1   ar
    38    11     5   ar
    39    30    26    1
    40    36    31    1
    41     8    12    1
@<TRIPOS>MOLECULE
*****
 36 41 0 0 0
SMALL
GASTEIGER

@<TRIPOS>ATOM
      1 C          47.3650   11.4545  -23.1040 C.ar    1  UNL1        0.1095
      2 N          47.4388   10.1279  -22.8278 N.ar    1  UNL1       -0.1677
      3 N          47.8664    9.9922  -21.5774 N.ar    1  UNL1       -0.2319
      4 C          48.0006    8.7154  -20.8894 C.3     1  UNL1        0.1554
      5 C          48.0419   11.2151  -21.0526 C.ar    1  UNL1        0.1657
      6 N          48.4138   11.5177  -19.7856 N.ar    1  UNL1       -0.2025
      7 C          48.5296   12.8361  -19.4461 C.ar    1  UNL1        0.1888
      8 S          49.0109   13.2848  -17.7867 S.3     1  UNL1       -0.1034
      9 N          48.3009   13.8166  -20.3766 N.ar    1  UNL1       -0.2063
     10 C          47.9299   13.5163  -21.6567 C.ar    1  UNL1        0.1383
     11 C          47.7650   12.1682  -21.9816 C.ar    1  UNL1        0.0865
     12 H          50.3776   13.2661  -18.1223 H       1  UNL1        0.1101
     13 C          47.4932   12.2721  -25.5295 C.ar    1  UNL1        0.0809
     14 C          46.8150   11.9855  -24.3586 C.ar    1  UNL1        0.0577
     15 C          45.4914   12.2761  -24.6273 C.ar    1  UNL1        0.1231
     16 N          45.3842   12.7353  -25.8893 N.ar    1  UNL1       -0.1676
     17 N          46.5955   12.7409  -26.4257 N.ar    1  UNL1       -0.2488
     18 C          46.8639   13.2227  -27.7765 C.3     1  UNL1        0.1537
     19 C          53.2258   11.9508  -26.2957 C.3     1  UNL1        0.0310
     20 C          51.7379   12.0433  -26.1308 C.ar    1  UNL1       -0.0218
     21 C          51.1500   13.2325  -25.6748 C.ar    1  UNL1       -0.0042
     22 C          49.7676   13.3073  -25.4846 C.ar    1  UNL1        0.0012
     23 C          48.9549   12.1907  -25.7379 C.ar    1  UNL1        0.0174
     24 C          49.5467   10.9952  -26.1725 C.ar    1  UNL1        0.0012
     25 C          50.9296   10.9204  -26.3626 C.ar    1  UNL1       -0.0042
     26 N          47.8216   14.5553  -22.6338 N.pl3   1  UNL1       -0.2916
     27 C          46.5754   14.9082  -23.2762 C.3     1  UNL1        0.0937
     28 C          46.9553   15.9657  -24.2990 C.3     1  UNL1        0.0391
     29 C          48.2640   16.6017  -23.7887 C.3     1  UNL1        0.0790
     30 C          48.8785   15.5195  -22.8826 C.3     1  UNL1        0.1081
     31 N          49.1773   16.9951  -24.8974 N.3     1  UNL1       -0.2723
     32 C          48.7882   18.2990  -25.4820 C.3     1  UNL1        0.0721
     33 C          49.5556   18.5512  -26.7930 C.3     1  UNL1        0.0174
     34 C          50.9285   17.8630  -26.8091 C.3     1  UNL1        0.0029
     35 C          51.5238   17.8111  -25.4035 C.3     1  UNL1        0.0174
     36 C          50.5906   17.0585  -24.4286 C.3     1  UNL1        0.0721
@<TRIPOS>BOND
     1    19    20    1
     2    20    21   ar
     3    21    22   ar
     4    22    23   ar
     5    23    13    1
     6    13    14   ar
     7    14     1    1
     8     1     2   ar
     9     2     3   ar
    10     3     4    1
    11     3     5   ar
    12     5     6   ar
    13     6     7   ar
    14     7     8    1
    15     7     9   ar
    16     9    10   ar
    17    10    26    1
    18    26    27    1
    19    27    28    1
    20    28    29    1
    21    29    31    1
    22    31    32    1
    23    32    33    1
    24    33    34    1
    25    34    35    1
    26    35    36    1
    27    29    30    1
    28    10    11   ar
    29    14    15   ar
    30    15    16   ar
    31    16    17   ar
    32    17    18    1
    33    23    24   ar
    34    24    25   ar
    35    25    20   ar
    36    17    13   ar
    37    11     1   ar
    38    11     5   ar
    39    30    26    1
    40    36    31    1
    41     8    12    1
@<TRIPOS>MOLECULE
*****
 36 41 0 0 0
SMALL
GASTEIGER

@<TRIPOS>ATOM
      1 C          48.5857   11.5636  -23.4560 C.ar    1  UNL1        0.1095
      2 N          48.5155   10.3833  -22.7899 N.ar    1  UNL1       -0.1677
      3 N          49.3680   10.4349  -21.7724 N.ar    1  UNL1       -0.2319
      4 C          49.5237    9.3828  -20.7772 C.3     1  UNL1        0.1554
      5 C          49.9591   11.6401  -21.7732 C.ar    1  UNL1        0.1657
      6 N          50.8490   12.1171  -20.8700 N.ar    1  UNL1       -0.2025
      7 C          51.3310   13.3832  -21.0481 C.ar    1  UNL1        0.1888
      8 S          52.5011   14.0580  -19.8811 S.3     1  UNL1       -0.1034
      9 N          50.9399   14.1307  -22.1286 N.ar    1  UNL1       -0.2063
     10 C          50.0460   13.6524  -23.0444 C.ar    1  UNL1        0.1383
     11 C          49.5201   12.3770  -22.8278 C.ar    1  UNL1        0.0865
     12 H          53.5959   13.5546  -20.6083 H       1  UNL1        0.1101
     13 C          47.8630   11.6286  -25.9139 C.ar    1  UNL1        0.0809
     14 C          47.6945   11.9124  -24.5706 C.ar    1  UNL1        0.0577
     15 C          46.4836   12.5725  -24.4899 C.ar    1  UNL1        0.1231
     16 N          45.9624   12.6982  -25.7259 N.ar    1  UNL1       -0.1676
     17 N          46.8028   12.1367  -26.5821 N.ar    1  UNL1       -0.2488
     18 C          46.5794   12.1270  -28.0240 C.3     1  UNL1        0.1537
     19 C          52.4746    9.1357  -28.3777 C.3     1  UNL1        0.0310
     20 C          51.2806    9.7562  -27.7153 C.ar    1  UNL1       -0.0218
     21 C          49.9853    9.4242  -28.1392 C.ar    1  UNL1       -0.0042
     22 C          48.8734   10.0304  -27.5483 C.ar    1  UNL1        0.0012
     23 C          49.0418   10.9848  -26.5324 C.ar    1  UNL1        0.0174
     24 C          50.3385   11.3325  -26.1248 C.ar    1  UNL1        0.0012
     25 C          51.4507   10.7260  -26.7161 C.ar    1  UNL1       -0.0042
     26 N          49.7557   14.4070  -24.2243 N.pl3   1  UNL1       -0.2916
     27 C          50.4564   14.2181  -25.4747 C.3     1  UNL1        0.0937
     28 C          49.9003   15.2925  -26.3940 C.3     1  UNL1        0.0391
     29 C          48.5039   15.6444  -25.8428 C.3     1  UNL1        0.0790
     30 C          48.5733   15.2392  -24.3592 C.3     1  UNL1        0.1081
     31 N          48.1669   17.0842  -26.0196 N.3     1  UNL1       -0.2723
     32 C          48.0914   17.7860  -24.7175 C.3     1  UNL1        0.0721
     33 C          47.4708   19.1840  -24.8952 C.3     1  UNL1        0.0174
     34 C          47.7409   19.7714  -26.2884 C.3     1  UNL1        0.0029
     35 C          49.0948   19.3042  -26.8190 C.3     1  UNL1        0.0174
     36 C          49.1629   17.7624  -26.8966 C.3     1  UNL1        0.0721
@<TRIPOS>BOND
     1    19    20    1
     2    20    21   ar
     3    21    22   ar
     4    22    23   ar
     5    23    13    1
     6    13    14   ar
     7    14     1    1
     8     1     2   ar
     9     2     3   ar
    10     3     4    1
    11     3     5   ar
    12     5     6   ar
    13     6     7   ar
    14     7     8    1
    15     7     9   ar
    16     9    10   ar
    17    10    26    1
    18    26    27    1
    19    27    28    1
    20    28    29    1
    21    29    31    1
    22    31    32    1
    23    32    33    1
    24    33    34    1
    25    34    35    1
    26    35    36    1
    27    29    30    1
    28    10    11   ar
    29    14    15   ar
    30    15    16   ar
    31    16    17   ar
    32    17    18    1
    33    23    24   ar
    34    24    25   ar
    35    25    20   ar
    36    17    13   ar
    37    11     1   ar
    38    11     5   ar
    39    30    26    1
    40    36    31    1
    41     8    12    1
@<TRIPOS>MOLECULE
*****
 36 41 0 0 0
SMALL
GASTEIGER

@<TRIPOS>ATOM
      1 C          47.5732   10.9188  -27.7949 C.ar    1  UNL1        0.1095
      2 N          47.6587    9.6712  -28.3219 N.ar    1  UNL1       -0.1677
      3 N          47.1321    9.7036  -29.5411 N.ar    1  UNL1       -0.2319
      4 C          47.1102    8.5710  -30.4566 C.3     1  UNL1        0.1554
      5 C          46.7359   10.9597  -29.8002 C.ar    1  UNL1        0.1657
      6 N          46.2013   11.4292  -30.9530 N.ar    1  UNL1       -0.2025
      7 C          45.8689   12.7530  -31.0163 C.ar    1  UNL1        0.1888
      8 S          45.1671   13.4196  -32.5161 S.3     1  UNL1       -0.1034
      9 N          46.0495   13.5681  -29.9289 N.ar    1  UNL1       -0.2063
     10 C          46.5843   13.0983  -28.7628 C.ar    1  UNL1        0.1383
     11 C          46.9677   11.7561  -28.7232 C.ar    1  UNL1        0.0865
     12 H          43.8566   13.1256  -32.0952 H       1  UNL1        0.1101
     13 C          49.5010   11.2678  -26.1427 C.ar    1  UNL1        0.0809
     14 C          48.1655   11.2882  -26.5022 C.ar    1  UNL1        0.0577
     15 C          47.4990   11.7641  -25.3896 C.ar    1  UNL1        0.1231
     16 N          48.3879   11.9963  -24.4042 N.ar    1  UNL1       -0.1676
     17 N          49.5924   11.6857  -24.8598 N.ar    1  UNL1       -0.2488
     18 C          50.7976   11.7717  -24.0419 C.3     1  UNL1        0.1537
     19 C          53.8705    9.3373  -29.4188 C.3     1  UNL1        0.0310
     20 C          52.7545    9.8234  -28.5425 C.ar    1  UNL1       -0.0218
     21 C          51.6015    9.0435  -28.3689 C.ar    1  UNL1       -0.0042
     22 C          50.5454    9.5125  -27.5831 C.ar    1  UNL1        0.0012
     23 C          50.6233   10.7725  -26.9684 C.ar    1  UNL1        0.0174
     24 C          51.7676   11.5610  -27.1610 C.ar    1  UNL1        0.0012
     25 C          52.8240   11.0917  -27.9472 C.ar    1  UNL1       -0.0042
     26 N          46.6428   13.9428  -27.6099 N.pl3   1  UNL1       -0.2916
     27 C          45.6458   13.9201  -26.5631 C.3     1  UNL1        0.0937
     28 C          46.0518   15.0402  -25.6201 C.3     1  UNL1        0.0391
     29 C          47.5652   15.2475  -25.8310 C.3     1  UNL1        0.0790
     30 C          47.8237   14.7069  -27.2490 C.3     1  UNL1        0.1081
     31 N          47.9711   16.6732  -25.6876 N.3     1  UNL1       -0.2723
     32 C          48.2847   17.2812  -27.0013 C.3     1  UNL1        0.0721
     33 C          48.9674   18.6483  -26.8120 C.3     1  UNL1        0.0174
     34 C          48.5374   19.3420  -25.5110 C.3     1  UNL1        0.0029
     35 C          47.0914   18.9929  -25.1644 C.3     1  UNL1        0.0174
     36 C          46.9065   17.4665  -25.0104 C.3     1  UNL1        0.0721
@<TRIPOS>BOND
     1    19    20    1
     2    20    21   ar
     3    21    22   ar
     4    22    23   ar
     5    23    13    1
     6    13    14   ar
     7    14     1    1
     8     1     2   ar
     9     2     3   ar
    10     3     4    1
    11     3     5   ar
    12     5     6   ar
    13     6     7   ar
    14     7     8    1
    15     7     9   ar
    16     9    10   ar
    17    10    26    1
    18    26    27    1
    19    27    28    1
    20    28    29    1
    21    29    31    1
    22    31    32    1
    23    32    33    1
    24    33    34    1
    25    34    35    1
    26    35    36    1
    27    29    30    1
    28    10    11   ar
    29    14    15   ar
    30    15    16   ar
    31    16    17   ar
    32    17    18    1
    33    23    24   ar
    34    24    25   ar
    35    25    20   ar
    36    17    13   ar
    37    11     1   ar
    38    11     5   ar
    39    30    26    1
    40    36    31    1
    41     8    12    1
@<TRIPOS>MOLECULE
*****
 36 41 0 0 0
SMALL
GASTEIGER

@<TRIPOS>ATOM
      1 C          49.3573   11.6816  -25.0476 C.ar    1  UNL1        0.1095
      2 N          49.9398   10.4955  -25.3566 N.ar    1  UNL1       -0.1677
      3 N          51.1695   10.4989  -24.8539 N.ar    1  UNL1       -0.2319
      4 C          52.0837    9.3664  -24.9121 C.3     1  UNL1        0.1554
      5 C          51.3636   11.6617  -24.2120 C.ar    1  UNL1        0.1657
      6 N          52.4617   12.0395  -23.5144 N.ar    1  UNL1       -0.2025
      7 C          52.4570   13.2718  -22.9243 C.ar    1  UNL1        0.1888
      8 S          53.8784   13.8119  -21.9893 S.3     1  UNL1       -0.1034
      9 N          51.3778   14.1057  -23.0638 N.ar    1  UNL1       -0.2063
     10 C          50.2699   13.7308  -23.7699 C.ar    1  UNL1        0.1383
     11 C          50.2625   12.4505  -24.3275 C.ar    1  UNL1        0.0865
     12 H          54.4793   14.3765  -23.1299 H       1  UNL1        0.1101
     13 C          46.9005   12.0923  -24.4446 C.ar    1  UNL1        0.0809
     14 C          47.9500   11.9867  -25.3393 C.ar    1  UNL1        0.0577
     15 C          47.3997   12.2621  -26.5761 C.ar    1  UNL1        0.1231
     16 N          46.0811   12.4992  -26.4333 N.ar    1  UNL1       -0.1676
     17 N          45.7831   12.3853  -25.1475 N.ar    1  UNL1       -0.2488
     18 C          44.4268   12.5335  -24.6304 C.3     1  UNL1        0.1537
     19 C          47.1718   11.0539  -18.7524 C.3     1  UNL1        0.0310
     20 C          47.0707   11.3064  -20.2274 C.ar    1  UNL1       -0.0218
     21 C          47.6501   10.4112  -21.1388 C.ar    1  UNL1       -0.0042
     22 C          47.5893   10.6655  -22.5116 C.ar    1  UNL1        0.0012
     23 C          46.9573   11.8237  -22.9915 C.ar    1  UNL1        0.0174
     24 C          46.3978   12.7295  -22.0777 C.ar    1  UNL1        0.0012
     25 C          46.4588   12.4751  -20.7045 C.ar    1  UNL1       -0.0042
     26 N          49.2159   14.6697  -24.0011 N.pl3   1  UNL1       -0.2916
     27 C          48.3246   15.1285  -22.9593 C.3     1  UNL1        0.0937
     28 C          47.3170   16.0117  -23.6758 C.3     1  UNL1        0.0391
     29 C          48.0176   16.5044  -24.9580 C.3     1  UNL1        0.0790
     30 C          49.1013   15.4439  -25.2243 C.3     1  UNL1        0.1081
     31 N          47.0762   16.6493  -26.1028 N.3     1  UNL1       -0.2723
     32 C          47.7439   16.3589  -27.3925 C.3     1  UNL1        0.0721
     33 C          46.8479   16.7849  -28.5701 C.3     1  UNL1        0.0174
     34 C          45.3532   16.7112  -28.2246 C.3     1  UNL1        0.0029
     35 C          45.0811   15.5753  -27.2405 C.3     1  UNL1        0.0174
     36 C          45.8941   15.7566  -25.9391 C.3     1  UNL1        0.0721
@<TRIPOS>BOND
     1    19    20    1
     2    20    21   ar
     3    21    22   ar
     4    22    23   ar
     5    23    13    1
     6    13    14   ar
     7    14     1    1
     8     1     2   ar
     9     2     3   ar
    10     3     4    1
    11     3     5   ar
    12     5     6   ar
    13     6     7   ar
    14     7     8    1
    15     7     9   ar
    16     9    10   ar
    17    10    26    1
    18    26    27    1
    19    27    28    1
    20    28    29    1
    21    29    31    1
    22    31    32    1
    23    32    33    1
    24    33    34    1
    25    34    35    1
    26    35    36    1
    27    29    30    1
    28    10    11   ar
    29    14    15   ar
    30    15    16   ar
    31    16    17   ar
    32    17    18    1
    33    23    24   ar
    34    24    25   ar
    35    25    20   ar
    36    17    13   ar
    37    11     1   ar
    38    11     5   ar
    39    30    26    1
    40    36    31    1
    41     8    12    1
@<TRIPOS>MOLECULE
*****
 36 41 0 0 0
SMALL
GASTEIGER

@<TRIPOS>ATOM
      1 C          48.1222   11.3225  -26.6871 C.ar    1  UNL1        0.1095
      2 N          47.7253   10.5533  -27.7323 N.ar    1  UNL1       -0.1677
      3 N          46.9563   11.2967  -28.5202 N.ar    1  UNL1       -0.2319
      4 C          46.4000   10.8449  -29.7883 C.3     1  UNL1        0.1554
      5 C          46.8806   12.5314  -27.9990 C.ar    1  UNL1        0.1657
      6 N          46.2431   13.6051  -28.5241 N.ar    1  UNL1       -0.2025
      7 C          46.2922   14.7837  -27.8346 C.ar    1  UNL1        0.1888
      8 S          45.4726   16.2280  -28.4892 S.3     1  UNL1       -0.1034
      9 N          46.9472   14.8596  -26.6327 N.ar    1  UNL1       -0.2063
     10 C          47.5880   13.7783  -26.0970 C.ar    1  UNL1        0.1383
     11 C          47.5755   12.5911  -26.8321 C.ar    1  UNL1        0.0865
     12 H          44.2709   15.9091  -27.8297 H       1  UNL1        0.1101
     13 C          50.2776   10.2000  -25.8734 C.ar    1  UNL1        0.0809
     14 C          49.0829   10.8677  -25.6729 C.ar    1  UNL1        0.0577
     15 C          48.9947   11.0482  -24.3061 C.ar    1  UNL1        0.1231
     16 N          50.0720   10.4965  -23.7142 N.ar    1  UNL1       -0.1676
     17 N          50.8373    9.9773  -24.6626 N.ar    1  UNL1       -0.2488
     18 C          52.0735    9.2557  -24.3795 C.3     1  UNL1        0.1537
     19 C          52.3719    8.2669  -30.9161 C.3     1  UNL1        0.0310
     20 C          51.8096    8.7901  -29.6278 C.ar    1  UNL1       -0.0218
     21 C          52.4708    9.8131  -28.9320 C.ar    1  UNL1       -0.0042
     22 C          51.9681   10.2749  -27.7126 C.ar    1  UNL1        0.0012
     23 C          50.8029    9.7129  -27.1669 C.ar    1  UNL1        0.0174
     24 C          50.1550    8.6745  -27.8528 C.ar    1  UNL1        0.0012
     25 C          50.6581    8.2126  -29.0726 C.ar    1  UNL1       -0.0042
     26 N          48.1532   13.8577  -24.7855 N.pl3   1  UNL1       -0.2916
     27 C          49.5239   14.2456  -24.5385 C.3     1  UNL1        0.0937
     28 C          49.7061   14.0825  -23.0389 C.3     1  UNL1        0.0391
     29 C          48.2972   14.1982  -22.4231 C.3     1  UNL1        0.0790
     30 C          47.3516   13.8138  -23.5754 C.3     1  UNL1        0.1081
     31 N          48.1214   13.3215  -21.2322 N.3     1  UNL1       -0.2723
     32 C          47.0065   12.3655  -21.4239 C.3     1  UNL1        0.0721
     33 C          46.6586   11.6712  -20.0943 C.3     1  UNL1        0.0174
     34 C          47.8713   11.5568  -19.1589 C.3     1  UNL1        0.0029
     35 C          49.1596   11.3883  -19.9620 C.3     1  UNL1        0.0174
     36 C          49.3748   12.5743  -20.9288 C.3     1  UNL1        0.0721
@<TRIPOS>BOND
     1    19    20    1
     2    20    21   ar
     3    21    22   ar
     4    22    23   ar
     5    23    13    1
     6    13    14   ar
     7    14     1    1
     8     1     2   ar
     9     2     3   ar
    10     3     4    1
    11     3     5   ar
    12     5     6   ar
    13     6     7   ar
    14     7     8    1
    15     7     9   ar
    16     9    10   ar
    17    10    26    1
    18    26    27    1
    19    27    28    1
    20    28    29    1
    21    29    31    1
    22    31    32    1
    23    32    33    1
    24    33    34    1
    25    34    35    1
    26    35    36    1
    27    29    30    1
    28    10    11   ar
    29    14    15   ar
    30    15    16   ar
    31    16    17   ar
    32    17    18    1
    33    23    24   ar
    34    24    25   ar
    35    25    20   ar
    36    17    13   ar
    37    11     1   ar
    38    11     5   ar
    39    30    26    1
    40    36    31    1
    41     8    12    1
