@<TRIPOS>MOLECULE
*****
 45 50 0 0 0
SMALL
GASTEIGER

@<TRIPOS>ATOM
      1 C         -63.7774  -51.7247  -24.4578 C.ar    1  UNL1        0.0702
      2 C         -63.3229  -52.3250  -23.2728 C.ar    1  UNL1        0.0191
      3 C         -64.0513  -53.3630  -22.6894 C.ar    1  UNL1        0.0356
      4 C         -65.2498  -53.7866  -23.2826 C.ar    1  UNL1        0.1318
      5 N         -65.6766  -53.1826  -24.4265 N.ar    1  UNL1       -0.2279
      6 C         -64.9838  -52.1706  -25.0125 C.ar    1  UNL1        0.1149
      7 N         -66.0167  -54.8629  -22.7113 N.pl3   1  UNL1       -0.2932
      8 C         -67.0709  -55.5192  -23.4967 C.3     1  UNL1        0.0923
      9 C         -68.2325  -55.9257  -22.5865 C.3     1  UNL1        0.0252
     10 C         -67.7297  -56.7692  -21.3998 C.3     1  UNL1        0.0472
     11 C         -66.6519  -55.9922  -20.6177 C.3     1  UNL1        0.0252
     12 C         -65.4992  -55.5742  -21.5362 C.3     1  UNL1        0.0923
     13 C         -68.9012  -57.1558  -20.4853 C.3     1  UNL1        0.2054
     14 O         -68.8464  -56.3974  -19.2785 O.3     1  UNL1       -0.4755
     15 C         -69.8490  -55.5167  -18.8462 C.ar    1  UNL1        0.1388
     16 C         -70.2925  -54.5337  -19.7333 C.ar    1  UNL1        0.0373
     17 C         -71.2887  -53.6344  -19.3533 C.ar    1  UNL1        0.0091
     18 C         -71.8575  -53.6997  -18.0769 C.ar    1  UNL1        0.0365
     19 I         -73.4284  -52.3325  -17.6579 I       1  UNL1       -0.0423
     20 C         -71.4177  -54.6846  -17.1624 C.ar    1  UNL1        0.0838
     21 C         -70.4158  -55.5888  -17.5600 C.ar    1  UNL1        0.0438
     22 C         -71.9688  -54.7853  -15.7920 C.2     1  UNL1        0.3385
     23 O         -72.9037  -55.5902  -15.5411 O.2     1  UNL1       -0.2451
     24 O         -71.4893  -53.9722  -14.7669 O.3     1  UNL1       -0.4771
     25 H         -70.7080  -53.3430  -14.9062 H       1  UNL1        0.2954
     26 C         -63.6010  -49.3099  -25.2218 C.2     1  UNL1        0.2839
     27 O         -64.6285  -48.9641  -24.5788 O.2     1  UNL1       -0.2665
     28 N         -63.0690  -50.6367  -25.0762 N.am    1  UNL1       -0.2766
     29 H         -62.0768  -50.8011  -25.3607 H       1  UNL1        0.1553
     30 C         -63.9043  -49.0310  -28.4003 C.3     1  UNL1        0.0345
     31 C         -63.0456  -48.2133  -27.4832 C.ar    1  UNL1        0.0202
     32 C         -62.9165  -48.3380  -26.0954 C.ar    1  UNL1        0.1946
     33 O         -62.0637  -47.4384  -25.6381 O.2     1  UNL1       -0.4492
     34 C         -61.6339  -46.7358  -26.6576 C.ar    1  UNL1        0.1452
     35 C         -60.7262  -45.6828  -26.6341 C.ar    1  UNL1        0.0375
     36 C         -60.4033  -45.0623  -27.8533 C.ar    1  UNL1        0.0031
     37 C         -60.9890  -45.5010  -29.0717 C.ar    1  UNL1        0.0002
     38 C         -61.9084  -46.5773  -29.0515 C.ar    1  UNL1        0.0028
     39 C         -62.2058  -47.1700  -27.8233 C.ar    1  UNL1        0.0337
     40 C         -60.6402  -44.8377  -30.3536 C.ar    1  UNL1        0.0000
     41 C         -59.3666  -45.0138  -30.9275 C.ar    1  UNL1        0.0000
     42 C         -59.0407  -44.3872  -32.1343 C.ar    1  UNL1        0.0000
     43 C         -59.9794  -43.5805  -32.7812 C.ar    1  UNL1        0.0000
     44 C         -61.2463  -43.3981  -32.2224 C.ar    1  UNL1        0.0000
     45 C         -61.5774  -44.0215  -31.0154 C.ar    1  UNL1        0.0000
@<TRIPOS>BOND
     1    30    31    1
     2    31    32   ar
     3    32    26    1
     4    26    27    2
     5    26    28   am
     6    28     1    1
     7     1     2   ar
     8     2     3   ar
     9     3     4   ar
    10     4     7    1
    11     7     8    1
    12     8     9    1
    13     9    10    1
    14    10    13    1
    15    13    14    1
    16    14    15    1
    17    15    16   ar
    18    16    17   ar
    19    17    18   ar
    20    18    19    1
    21    18    20   ar
    22    20    22    1
    23    22    23    2
    24    22    24    1
    25    20    21   ar
    26    10    11    1
    27    11    12    1
    28     4     5   ar
    29     5     6   ar
    30    32    33   ar
    31    33    34   ar
    32    34    35   ar
    33    35    36   ar
    34    36    37   ar
    35    37    40    1
    36    40    41   ar
    37    41    42   ar
    38    42    43   ar
    39    43    44   ar
    40    44    45   ar
    41    37    38   ar
    42    38    39   ar
    43    39    31   ar
    44     6     1   ar
    45    39    34   ar
    46    12     7    1
    47    45    40   ar
    48    21    15   ar
    49    28    29    1
    50    24    25    1
@<TRIPOS>MOLECULE
*****
 45 50 0 0 0
SMALL
GASTEIGER

@<TRIPOS>ATOM
      1 C         -64.0189  -51.8239  -24.6373 C.ar    1  UNL1        0.0702
      2 C         -64.8897  -52.6237  -25.3944 C.ar    1  UNL1        0.0191
      3 C         -65.5870  -53.6692  -24.7869 C.ar    1  UNL1        0.0356
      4 C         -65.3953  -53.9284  -23.4218 C.ar    1  UNL1        0.1318
      5 N         -64.5376  -53.1459  -22.7093 N.ar    1  UNL1       -0.2279
      6 C         -63.8485  -52.1223  -23.2794 C.ar    1  UNL1        0.1149
      7 N         -66.1095  -54.9917  -22.7643 N.pl3   1  UNL1       -0.2932
      8 C         -67.2063  -55.6843  -23.4543 C.3     1  UNL1        0.0923
      9 C         -68.2994  -56.0703  -22.4546 C.3     1  UNL1        0.0252
     10 C         -67.7081  -56.8681  -21.2770 C.3     1  UNL1        0.0472
     11 C         -66.5893  -56.0548  -20.5960 C.3     1  UNL1        0.0252
     12 C         -65.5058  -55.6576  -21.6037 C.3     1  UNL1        0.0923
     13 C         -68.8109  -57.2342  -20.2730 C.3     1  UNL1        0.2054
     14 O         -68.5856  -56.5599  -19.0365 O.3     1  UNL1       -0.4755
     15 C         -69.5806  -55.9083  -18.2928 C.ar    1  UNL1        0.1388
     16 C         -69.6357  -56.1403  -16.9169 C.ar    1  UNL1        0.0373
     17 C         -70.6045  -55.5154  -16.1317 C.ar    1  UNL1        0.0091
     18 C         -71.5390  -54.6493  -16.7093 C.ar    1  UNL1        0.0365
     19 I         -72.9006  -53.6920  -15.3894 I       1  UNL1       -0.0423
     20 C         -71.5029  -54.4060  -18.1019 C.ar    1  UNL1        0.0838
     21 C         -70.5175  -55.0386  -18.8817 C.ar    1  UNL1        0.0438
     22 C         -72.4805  -53.5165  -18.7690 C.2     1  UNL1        0.3385
     23 O         -73.6308  -53.9396  -19.0566 O.2     1  UNL1       -0.2451
     24 O         -72.1374  -52.2124  -19.1200 O.3     1  UNL1       -0.4771
     25 H         -71.2423  -51.8103  -18.8691 H       1  UNL1        0.2954
     26 C         -63.7131  -49.3900  -25.2917 C.2     1  UNL1        0.2839
     27 O         -64.6915  -49.0122  -24.5926 O.2     1  UNL1       -0.2665
     28 N         -63.2640  -50.7535  -25.2308 N.am    1  UNL1       -0.2766
     29 H         -62.2958  -50.9661  -25.5621 H       1  UNL1        0.1553
     30 C         -63.9767  -49.0612  -28.4690 C.3     1  UNL1        0.0345
     31 C         -63.1107  -48.2745  -27.5318 C.ar    1  UNL1        0.0202
     32 C         -62.9989  -48.4210  -26.1446 C.ar    1  UNL1        0.1946
     33 O         -62.1322  -47.5461  -25.6660 O.2     1  UNL1       -0.4492
     34 C         -61.6769  -46.8389  -26.6712 C.ar    1  UNL1        0.1452
     35 C         -60.7474  -45.8059  -26.6237 C.ar    1  UNL1        0.0375
     36 C         -60.3986  -45.1757  -27.8307 C.ar    1  UNL1        0.0031
     37 C         -60.9804  -45.5851  -29.0610 C.ar    1  UNL1        0.0002
     38 C         -61.9226  -46.6418  -29.0654 C.ar    1  UNL1        0.0028
     39 C         -62.2454  -47.2448  -27.8486 C.ar    1  UNL1        0.0337
     40 C         -60.6041  -44.9119  -30.3300 C.ar    1  UNL1        0.0000
     41 C         -61.5280  -44.0933  -31.0073 C.ar    1  UNL1        0.0000
     42 C         -61.1712  -43.4613  -32.2025 C.ar    1  UNL1        0.0000
     43 C         -59.8918  -43.6376  -32.7339 C.ar    1  UNL1        0.0000
     44 C         -58.9661  -44.4468  -32.0714 C.ar    1  UNL1        0.0000
     45 C         -59.3177  -45.0820  -30.8764 C.ar    1  UNL1        0.0000
@<TRIPOS>BOND
     1    30    31    1
     2    31    32   ar
     3    32    26    1
     4    26    27    2
     5    26    28   am
     6    28     1    1
     7     1     2   ar
     8     2     3   ar
     9     3     4   ar
    10     4     7    1
    11     7     8    1
    12     8     9    1
    13     9    10    1
    14    10    13    1
    15    13    14    1
    16    14    15    1
    17    15    16   ar
    18    16    17   ar
    19    17    18   ar
    20    18    19    1
    21    18    20   ar
    22    20    22    1
    23    22    23    2
    24    22    24    1
    25    20    21   ar
    26    10    11    1
    27    11    12    1
    28     4     5   ar
    29     5     6   ar
    30    32    33   ar
    31    33    34   ar
    32    34    35   ar
    33    35    36   ar
    34    36    37   ar
    35    37    40    1
    36    40    41   ar
    37    41    42   ar
    38    42    43   ar
    39    43    44   ar
    40    44    45   ar
    41    37    38   ar
    42    38    39   ar
    43    39    31   ar
    44     6     1   ar
    45    39    34   ar
    46    12     7    1
    47    45    40   ar
    48    21    15   ar
    49    28    29    1
    50    24    25    1
@<TRIPOS>MOLECULE
*****
 45 50 0 0 0
SMALL
GASTEIGER

@<TRIPOS>ATOM
      1 C         -70.8981  -55.7048  -23.5703 C.ar    1  UNL1        0.0702
      2 C         -69.5479  -55.4583  -23.2748 C.ar    1  UNL1        0.0191
      3 C         -69.0741  -55.6252  -21.9725 C.ar    1  UNL1        0.0356
      4 C         -69.9597  -56.0194  -20.9587 C.ar    1  UNL1        0.1318
      5 N         -71.2676  -56.2431  -21.2665 N.ar    1  UNL1       -0.2279
      6 C         -71.7511  -56.0874  -22.5273 C.ar    1  UNL1        0.1149
      7 N         -69.4982  -56.2120  -19.6085 N.pl3   1  UNL1       -0.2932
      8 C         -70.1425  -57.2073  -18.7406 C.3     1  UNL1        0.0923
      9 C         -70.1652  -56.7104  -17.2929 C.3     1  UNL1        0.0252
     10 C         -68.7525  -56.3079  -16.8295 C.3     1  UNL1        0.0472
     11 C         -68.1685  -55.2416  -17.7776 C.3     1  UNL1        0.0252
     12 C         -68.1624  -55.7377  -19.2271 C.3     1  UNL1        0.0923
     13 C         -68.7912  -55.7950  -15.3825 C.3     1  UNL1        0.2054
     14 O         -69.5785  -56.6706  -14.5775 O.3     1  UNL1       -0.4755
     15 C         -70.4627  -56.2487  -13.5736 C.ar    1  UNL1        0.1388
     16 C         -71.5169  -57.0947  -13.2233 C.ar    1  UNL1        0.0373
     17 C         -72.4229  -56.7232  -12.2299 C.ar    1  UNL1        0.0091
     18 C         -72.2930  -55.4962  -11.5707 C.ar    1  UNL1        0.0365
     19 I         -73.6828  -55.0932  -10.0156 I       1  UNL1       -0.0423
     20 C         -71.2352  -54.6232  -11.9153 C.ar    1  UNL1        0.0838
     21 C         -70.3253  -55.0122  -12.9155 C.ar    1  UNL1        0.0438
     22 C         -71.0631  -53.3038  -11.2662 C.2     1  UNL1        0.3385
     23 O         -71.6510  -52.2892  -11.7244 O.2     1  UNL1       -0.2451
     24 O         -70.2255  -53.1536  -10.1628 O.3     1  UNL1       -0.4771
     25 H         -69.7677  -53.9459   -9.7286 H       1  UNL1        0.2954
     26 C         -71.2381  -54.3333  -25.6796 C.2     1  UNL1        0.2839
     27 O         -70.3688  -53.4842  -25.3448 O.2     1  UNL1       -0.2665
     28 N         -71.4302  -55.5206  -24.8935 N.am    1  UNL1       -0.2766
     29 H         -71.9141  -56.3319  -25.3409 H       1  UNL1        0.1553
     30 C         -70.6575  -55.5701  -28.5789 C.3     1  UNL1        0.0345
     31 C         -71.7832  -54.6673  -28.1729 C.ar    1  UNL1        0.0202
     32 C         -72.0334  -54.1297  -26.9053 C.ar    1  UNL1        0.1946
     33 O         -73.1197  -53.3784  -26.9394 O.2     1  UNL1       -0.4492
     34 C         -73.5876  -53.4018  -28.1634 C.ar    1  UNL1        0.1452
     35 C         -74.7173  -52.7517  -28.6476 C.ar    1  UNL1        0.0375
     36 C         -75.0422  -52.9155  -30.0053 C.ar    1  UNL1        0.0031
     37 C         -74.2375  -53.7222  -30.8548 C.ar    1  UNL1        0.0002
     38 C         -73.0951  -54.3664  -30.3217 C.ar    1  UNL1        0.0028
     39 C         -72.8024  -54.1815  -28.9696 C.ar    1  UNL1        0.0337
     40 C         -74.5907  -53.8879  -32.2876 C.ar    1  UNL1        0.0000
     41 C         -74.5060  -52.7992  -33.1763 C.ar    1  UNL1        0.0000
     42 C         -74.8401  -52.9580  -34.5248 C.ar    1  UNL1        0.0000
     43 C         -75.2606  -54.2017  -35.0010 C.ar    1  UNL1        0.0000
     44 C         -75.3484  -55.2896  -34.1297 C.ar    1  UNL1        0.0000
     45 C         -75.0165  -55.1364  -32.7800 C.ar    1  UNL1        0.0000
@<TRIPOS>BOND
     1    30    31    1
     2    31    32   ar
     3    32    26    1
     4    26    27    2
     5    26    28   am
     6    28     1    1
     7     1     2   ar
     8     2     3   ar
     9     3     4   ar
    10     4     7    1
    11     7     8    1
    12     8     9    1
    13     9    10    1
    14    10    13    1
    15    13    14    1
    16    14    15    1
    17    15    16   ar
    18    16    17   ar
    19    17    18   ar
    20    18    19    1
    21    18    20   ar
    22    20    22    1
    23    22    23    2
    24    22    24    1
    25    20    21   ar
    26    10    11    1
    27    11    12    1
    28     4     5   ar
    29     5     6   ar
    30    32    33   ar
    31    33    34   ar
    32    34    35   ar
    33    35    36   ar
    34    36    37   ar
    35    37    40    1
    36    40    41   ar
    37    41    42   ar
    38    42    43   ar
    39    43    44   ar
    40    44    45   ar
    41    37    38   ar
    42    38    39   ar
    43    39    31   ar
    44     6     1   ar
    45    39    34   ar
    46    12     7    1
    47    45    40   ar
    48    21    15   ar
    49    28    29    1
    50    24    25    1
