@<TRIPOS>MOLECULE
*****
 45 50 0 0 0
SMALL
GASTEIGER

@<TRIPOS>ATOM
      1 C         -26.5903   50.9683   -6.5475 C.ar    1  UNL1        0.0702
      2 C         -27.1687   51.7413   -7.5659 C.ar    1  UNL1        0.0191
      3 C         -26.4213   52.0866   -8.6932 C.ar    1  UNL1        0.0356
      4 C         -25.0814   51.6783   -8.7885 C.ar    1  UNL1        0.1318
      5 N         -24.5402   50.9357   -7.7830 N.ar    1  UNL1       -0.2279
      6 C         -25.2491   50.5876   -6.6769 C.ar    1  UNL1        0.1149
      7 N         -24.2856   51.9960   -9.9459 N.pl3   1  UNL1       -0.2932
      8 C         -23.6359   50.9463  -10.7435 C.3     1  UNL1        0.0923
      9 C         -22.1537   51.2809  -10.9842 C.3     1  UNL1        0.0252
     10 C         -21.8727   52.8045  -11.0820 C.3     1  UNL1        0.0472
     11 C         -23.1401   53.5885  -11.4753 C.3     1  UNL1        0.0252
     12 C         -24.2337   53.3887  -10.4148 C.3     1  UNL1        0.0923
     13 C         -20.7175   53.0853  -12.0626 C.3     1  UNL1        0.2054
     14 O         -19.4716   52.6161  -11.5438 O.3     1  UNL1       -0.4754
     15 C         -18.9540   52.9084  -10.2711 C.ar    1  UNL1        0.1392
     16 C         -17.9871   52.1039   -9.6391 C.ar    1  UNL1        0.0427
     17 C         -17.5120   52.4414   -8.3696 C.ar    1  UNL1        0.0333
     18 I         -16.0696   51.2229   -7.4291 I       1  UNL1       -0.0424
     19 C         -17.9896   53.5834   -7.7213 C.ar    1  UNL1        0.0124
     20 C         -18.9497   54.4025   -8.3397 C.ar    1  UNL1        0.0789
     21 C         -19.4231   54.0542   -9.6169 C.ar    1  UNL1        0.0434
     22 C         -19.4585   55.6142   -7.6595 C.2     1  UNL1        0.3381
     23 O         -20.1099   56.4816   -8.3023 O.2     1  UNL1       -0.2451
     24 O         -19.2222   55.8083   -6.3010 O.3     1  UNL1       -0.4771
     25 H         -19.5660   56.6343   -5.8258 H       1  UNL1        0.2954
     26 C         -27.9313   49.3306   -5.1430 C.2     1  UNL1        0.2839
     27 O         -27.9197   48.4555   -6.0494 O.2     1  UNL1       -0.2665
     28 N         -27.3160   50.6129   -5.3591 N.am    1  UNL1       -0.2766
     29 H         -27.3436   51.3191   -4.5920 H       1  UNL1        0.1553
     30 C         -26.5796   48.9160   -2.2299 C.3     1  UNL1        0.0345
     31 C         -28.0280   48.8534   -2.6093 C.ar    1  UNL1        0.0202
     32 C         -28.6086   49.0138   -3.8737 C.ar    1  UNL1        0.1946
     33 O         -29.9133   48.8179   -3.7996 O.2     1  UNL1       -0.4492
     34 C         -30.2123   48.5635   -2.5491 C.ar    1  UNL1        0.1452
     35 C         -31.4699   48.3042   -2.0157 C.ar    1  UNL1        0.0375
     36 C         -31.5625   48.0548   -0.6351 C.ar    1  UNL1        0.0031
     37 C         -30.4030   48.0673    0.1872 C.ar    1  UNL1        0.0002
     38 C         -29.1414   48.3337   -0.3971 C.ar    1  UNL1        0.0028
     39 C         -29.0882   48.5786   -1.7692 C.ar    1  UNL1        0.0337
     40 C         -30.5127   47.8025    1.6443 C.ar    1  UNL1        0.0000
     41 C         -31.3648   46.7905    2.1259 C.ar    1  UNL1        0.0000
     42 C         -31.4667   46.5443    3.4986 C.ar    1  UNL1        0.0000
     43 C         -30.7211   47.3022    4.4041 C.ar    1  UNL1        0.0000
     44 C         -29.8720   48.3087    3.9390 C.ar    1  UNL1        0.0000
     45 C         -29.7668   48.5601    2.5675 C.ar    1  UNL1        0.0000
@<TRIPOS>BOND
     1    30    31    1
     2    31    32   ar
     3    32    26    1
     4    26    27    2
     5    26    28   am
     6    28     1    1
     7     1     2   ar
     8     2     3   ar
     9     3     4   ar
    10     4     7    1
    11     7     8    1
    12     8     9    1
    13     9    10    1
    14    10    13    1
    15    13    14    1
    16    14    15    1
    17    15    16   ar
    18    16    17   ar
    19    17    18    1
    20    17    19   ar
    21    19    20   ar
    22    20    22    1
    23    22    23    2
    24    22    24    1
    25    20    21   ar
    26    10    11    1
    27    11    12    1
    28     4     5   ar
    29     5     6   ar
    30    32    33   ar
    31    33    34   ar
    32    34    35   ar
    33    35    36   ar
    34    36    37   ar
    35    37    40    1
    36    40    41   ar
    37    41    42   ar
    38    42    43   ar
    39    43    44   ar
    40    44    45   ar
    41    37    38   ar
    42    38    39   ar
    43    39    31   ar
    44     6     1   ar
    45    39    34   ar
    46    12     7    1
    47    45    40   ar
    48    21    15   ar
    49    28    29    1
    50    24    25    1
@<TRIPOS>MOLECULE
*****
 45 50 0 0 0
SMALL
GASTEIGER

@<TRIPOS>ATOM
      1 C         -25.9632   49.9128   -7.6760 C.ar    1  UNL1        0.0702
      2 C         -26.2436   49.6997   -9.0344 C.ar    1  UNL1        0.0191
      3 C         -25.4319   50.2724  -10.0152 C.ar    1  UNL1        0.0356
      4 C         -24.3509   51.0830   -9.6340 C.ar    1  UNL1        0.1318
      5 N         -24.1041   51.2814   -8.3092 N.ar    1  UNL1       -0.2279
      6 C         -24.8806   50.7337   -7.3375 C.ar    1  UNL1        0.1149
      7 N         -23.4782   51.6725  -10.6163 N.pl3   1  UNL1       -0.2932
      8 C         -22.1448   51.1185  -10.8907 C.3     1  UNL1        0.0923
      9 C         -21.0776   52.2264  -10.8704 C.3     1  UNL1        0.0252
     10 C         -21.6083   53.6037  -11.3512 C.3     1  UNL1        0.0472
     11 C         -22.8558   53.4484  -12.2429 C.3     1  UNL1        0.0252
     12 C         -23.9859   52.7687  -11.4546 C.3     1  UNL1        0.0923
     13 C         -20.5008   54.3936  -12.0755 C.3     1  UNL1        0.2054
     14 O         -19.8238   55.2771  -11.1797 O.3     1  UNL1       -0.4754
     15 C         -19.4870   54.9894   -9.8466 C.ar    1  UNL1        0.1392
     16 C         -19.1729   53.6906   -9.4038 C.ar    1  UNL1        0.0427
     17 C         -18.8500   53.4632   -8.0639 C.ar    1  UNL1        0.0333
     18 I         -18.3898   51.5109   -7.4107 I       1  UNL1       -0.0424
     19 C         -18.8312   54.5248   -7.1557 C.ar    1  UNL1        0.0124
     20 C         -19.1351   55.8295   -7.5810 C.ar    1  UNL1        0.0789
     21 C         -19.4603   56.0487   -8.9311 C.ar    1  UNL1        0.0434
     22 C         -19.1155   56.9586   -6.6247 C.2     1  UNL1        0.3381
     23 O         -19.9433   57.9033   -6.7348 O.2     1  UNL1       -0.2451
     24 O         -18.1810   56.9886   -5.5927 O.3     1  UNL1       -0.4771
     25 H         -18.1590   57.7569   -4.9328 H       1  UNL1        0.2954
     26 C         -27.0002   49.9908   -5.3583 C.2     1  UNL1        0.2839
     27 O         -26.3931   51.0539   -5.0601 O.2     1  UNL1       -0.2665
     28 N         -26.7881   49.3634   -6.6354 N.am    1  UNL1       -0.2766
     29 H         -27.3019   48.4823   -6.8538 H       1  UNL1        0.1553
     30 C         -26.2930   47.7712   -3.1093 C.3     1  UNL1        0.0345
     31 C         -27.5999   48.4551   -3.3737 C.ar    1  UNL1        0.0202
     32 C         -27.9084   49.4006   -4.3598 C.ar    1  UNL1        0.1946
     33 O         -29.1919   49.7099   -4.3032 O.2     1  UNL1       -0.4492
     34 C         -29.7262   49.0332   -3.3160 C.ar    1  UNL1        0.1452
     35 C         -31.0504   49.0577   -2.8926 C.ar    1  UNL1        0.0375
     36 C         -31.4100   48.2446   -1.8033 C.ar    1  UNL1        0.0031
     37 C         -30.4464   47.4229   -1.1576 C.ar    1  UNL1        0.0002
     38 C         -29.1092   47.4266   -1.6223 C.ar    1  UNL1        0.0028
     39 C         -28.7885   48.2471   -2.7036 C.ar    1  UNL1        0.0337
     40 C         -30.8375   46.5682   -0.0080 C.ar    1  UNL1        0.0000
     41 C         -30.9803   47.1208    1.2791 C.ar    1  UNL1        0.0000
     42 C         -31.3477   46.3132    2.3598 C.ar    1  UNL1        0.0000
     43 C         -31.5771   44.9488    2.1694 C.ar    1  UNL1        0.0000
     44 C         -31.4389   44.3887    0.8976 C.ar    1  UNL1        0.0000
     45 C         -31.0708   45.1912   -0.1867 C.ar    1  UNL1        0.0000
@<TRIPOS>BOND
     1    30    31    1
     2    31    32   ar
     3    32    26    1
     4    26    27    2
     5    26    28   am
     6    28     1    1
     7     1     2   ar
     8     2     3   ar
     9     3     4   ar
    10     4     7    1
    11     7     8    1
    12     8     9    1
    13     9    10    1
    14    10    13    1
    15    13    14    1
    16    14    15    1
    17    15    16   ar
    18    16    17   ar
    19    17    18    1
    20    17    19   ar
    21    19    20   ar
    22    20    22    1
    23    22    23    2
    24    22    24    1
    25    20    21   ar
    26    10    11    1
    27    11    12    1
    28     4     5   ar
    29     5     6   ar
    30    32    33   ar
    31    33    34   ar
    32    34    35   ar
    33    35    36   ar
    34    36    37   ar
    35    37    40    1
    36    40    41   ar
    37    41    42   ar
    38    42    43   ar
    39    43    44   ar
    40    44    45   ar
    41    37    38   ar
    42    38    39   ar
    43    39    31   ar
    44     6     1   ar
    45    39    34   ar
    46    12     7    1
    47    45    40   ar
    48    21    15   ar
    49    28    29    1
    50    24    25    1
@<TRIPOS>MOLECULE
*****
 45 50 0 0 0
SMALL
GASTEIGER

@<TRIPOS>ATOM
      1 C         -25.2947   50.1427   -9.0150 C.ar    1  UNL1        0.0702
      2 C         -25.3569   48.8827   -8.4000 C.ar    1  UNL1        0.0191
      3 C         -26.3561   47.9767   -8.7597 C.ar    1  UNL1        0.0356
      4 C         -27.3122   48.3439   -9.7199 C.ar    1  UNL1        0.1318
      5 N         -27.2353   49.5755  -10.2965 N.ar    1  UNL1       -0.2279
      6 C         -26.2713   50.4733   -9.9622 C.ar    1  UNL1        0.1149
      7 N         -28.3441   47.4281  -10.1329 N.pl3   1  UNL1       -0.2932
      8 C         -28.0303   46.0543  -10.5502 C.3     1  UNL1        0.0923
      9 C         -28.7140   45.7192  -11.8869 C.3     1  UNL1        0.0252
     10 C         -30.0731   46.4430  -12.0839 C.3     1  UNL1        0.0472
     11 C         -30.6902   46.8625  -10.7352 C.3     1  UNL1        0.0252
     12 C         -29.7512   47.8356  -10.0059 C.3     1  UNL1        0.0923
     13 C         -31.0475   45.5652  -12.8932 C.3     1  UNL1        0.2054
     14 O         -31.5835   46.2789  -14.0089 O.3     1  UNL1       -0.4754
     15 C         -30.9402   46.4693  -15.2430 C.ar    1  UNL1        0.1392
     16 C         -30.7734   45.4343  -16.1825 C.ar    1  UNL1        0.0427
     17 C         -30.1205   45.6812  -17.3925 C.ar    1  UNL1        0.0333
     18 I         -29.8689   44.1197  -18.7884 I       1  UNL1       -0.0424
     19 C         -29.6338   46.9589  -17.6804 C.ar    1  UNL1        0.0124
     20 C         -29.7973   48.0064  -16.7576 C.ar    1  UNL1        0.0789
     21 C         -30.4545   47.7483  -15.5418 C.ar    1  UNL1        0.0434
     22 C         -29.2858   49.3623  -17.0569 C.2     1  UNL1        0.3381
     23 O         -28.9301   50.1312  -16.1231 O.2     1  UNL1       -0.2451
     24 O         -29.1923   49.8025  -18.3747 O.3     1  UNL1       -0.4771
     25 H         -28.8436   50.7288  -18.5904 H       1  UNL1        0.2954
     26 C         -23.2611   51.5711   -9.5413 C.2     1  UNL1        0.2839
     27 O         -23.1340   51.0683  -10.6896 O.2     1  UNL1       -0.2665
     28 N         -24.2986   51.1143   -8.6557 N.am    1  UNL1       -0.2766
     29 H         -24.3781   51.5465   -7.7097 H       1  UNL1        0.1553
     30 C         -23.3439   54.7252  -10.2694 C.3     1  UNL1        0.0345
     31 C         -22.3538   53.9835   -9.4236 C.ar    1  UNL1        0.0202
     32 C         -22.3089   52.6157   -9.1260 C.ar    1  UNL1        0.1946
     33 O         -21.2379   52.3463   -8.4003 O.2     1  UNL1       -0.4492
     34 C         -20.5996   53.4718   -8.1909 C.ar    1  UNL1        0.1452
     35 C         -19.4254   53.6569   -7.4694 C.ar    1  UNL1        0.0375
     36 C         -18.9101   54.9614   -7.3712 C.ar    1  UNL1        0.0031
     37 C         -19.5716   56.0552   -7.9930 C.ar    1  UNL1        0.0002
     38 C         -20.7637   55.8220   -8.7200 C.ar    1  UNL1        0.0028
     39 C         -21.2465   54.5155   -8.7943 C.ar    1  UNL1        0.0337
     40 C         -19.0182   57.4288   -7.8826 C.ar    1  UNL1        0.0000
     41 C         -18.2595   57.8068   -6.7584 C.ar    1  UNL1        0.0000
     42 C         -17.7406   59.1012   -6.6569 C.ar    1  UNL1        0.0000
     43 C         -17.9712   60.0308   -7.6733 C.ar    1  UNL1        0.0000
     44 C         -18.7220   59.6681   -8.7936 C.ar    1  UNL1        0.0000
     45 C         -19.2443   58.3754   -8.9002 C.ar    1  UNL1        0.0000
@<TRIPOS>BOND
     1    30    31    1
     2    31    32   ar
     3    32    26    1
     4    26    27    2
     5    26    28   am
     6    28     1    1
     7     1     2   ar
     8     2     3   ar
     9     3     4   ar
    10     4     7    1
    11     7     8    1
    12     8     9    1
    13     9    10    1
    14    10    13    1
    15    13    14    1
    16    14    15    1
    17    15    16   ar
    18    16    17   ar
    19    17    18    1
    20    17    19   ar
    21    19    20   ar
    22    20    22    1
    23    22    23    2
    24    22    24    1
    25    20    21   ar
    26    10    11    1
    27    11    12    1
    28     4     5   ar
    29     5     6   ar
    30    32    33   ar
    31    33    34   ar
    32    34    35   ar
    33    35    36   ar
    34    36    37   ar
    35    37    40    1
    36    40    41   ar
    37    41    42   ar
    38    42    43   ar
    39    43    44   ar
    40    44    45   ar
    41    37    38   ar
    42    38    39   ar
    43    39    31   ar
    44     6     1   ar
    45    39    34   ar
    46    12     7    1
    47    45    40   ar
    48    21    15   ar
    49    28    29    1
    50    24    25    1
