@<TRIPOS>MOLECULE
*****
 35 40 0 0 0
SMALL
GASTEIGER

@<TRIPOS>ATOM
      1 C         -23.0869   -8.8420  -14.2205 C.ar    1  UNL1        0.1095
      2 N         -22.8090   -8.6232  -15.5303 N.ar    1  UNL1       -0.1677
      3 N         -23.1813   -9.6942  -16.2183 N.ar    1  UNL1       -0.2319
      4 C         -23.1338   -9.7933  -17.6709 C.3     1  UNL1        0.1554
      5 C         -23.7178  -10.5796  -15.3663 C.ar    1  UNL1        0.1657
      6 N         -24.3020  -11.7584  -15.6859 N.ar    1  UNL1       -0.2028
      7 C         -24.8251  -12.5112  -14.6771 C.ar    1  UNL1        0.1947
      8 I         -25.7526  -14.3463  -15.1147 I       1  UNL1        0.0015
      9 N         -24.7312  -12.0906  -13.3784 N.ar    1  UNL1       -0.2066
     10 C         -24.1412  -10.9043  -13.0389 C.ar    1  UNL1        0.1382
     11 C         -23.6550  -10.1084  -14.0867 C.ar    1  UNL1        0.0865
     12 C         -23.8951   -6.8313  -12.8141 C.ar    1  UNL1        0.0809
     13 C         -22.9603   -7.7773  -13.2166 C.ar    1  UNL1        0.0577
     14 C         -21.7955   -7.4377  -12.5586 C.ar    1  UNL1        0.1231
     15 N         -22.0175   -6.3583  -11.7861 N.ar    1  UNL1       -0.1676
     16 N         -23.2796   -5.9910  -11.9474 N.ar    1  UNL1       -0.2488
     17 C         -23.8418   -4.8108  -11.2978 C.3     1  UNL1        0.1537
     18 C         -29.3259   -6.1631  -14.7366 C.3     1  UNL1        0.0310
     19 C         -27.9134   -6.3673  -14.2762 C.ar    1  UNL1       -0.0218
     20 C         -27.6118   -7.3671  -13.3406 C.ar    1  UNL1       -0.0042
     21 C         -26.3032   -7.5279  -12.8773 C.ar    1  UNL1        0.0012
     22 C         -25.2797   -6.6750  -13.3231 C.ar    1  UNL1        0.0174
     23 C         -25.5887   -5.6676  -14.2511 C.ar    1  UNL1        0.0012
     24 C         -26.8953   -5.5131  -14.7223 C.ar    1  UNL1       -0.0042
     25 N         -23.9602  -10.5790  -11.6510 N.pl3   1  UNL1       -0.2916
     26 C         -24.7790   -9.5881  -10.9675 C.3     1  UNL1        0.0937
     27 C         -23.9122   -9.0420   -9.8401 C.3     1  UNL1        0.0391
     28 C         -22.8137  -10.0913   -9.6222 C.3     1  UNL1        0.0790
     29 C         -22.6638  -10.7244  -11.0089 C.3     1  UNL1        0.1081
     30 N         -21.5419   -9.5000   -9.1276 N.3     1  UNL1       -0.2723
     31 C         -20.4412   -9.7116  -10.0949 C.3     1  UNL1        0.0721
     32 C         -19.0873   -9.3317   -9.4666 C.3     1  UNL1        0.0174
     33 C         -19.2269   -8.2578   -8.3778 C.3     1  UNL1        0.0029
     34 C         -20.3647   -7.2947   -8.7113 C.3     1  UNL1        0.0174
     35 C         -21.7073   -8.0438   -8.8633 C.3     1  UNL1        0.0721
@<TRIPOS>BOND
     1    18    19    1
     2    19    20   ar
     3    20    21   ar
     4    21    22   ar
     5    22    12    1
     6    12    13   ar
     7    13     1    1
     8     1     2   ar
     9     2     3   ar
    10     3     4    1
    11     3     5   ar
    12     5     6   ar
    13     6     7   ar
    14     7     8    1
    15     7     9   ar
    16     9    10   ar
    17    10    25    1
    18    25    26    1
    19    26    27    1
    20    27    28    1
    21    28    30    1
    22    30    31    1
    23    31    32    1
    24    32    33    1
    25    33    34    1
    26    34    35    1
    27    28    29    1
    28    10    11   ar
    29    13    14   ar
    30    14    15   ar
    31    15    16   ar
    32    16    17    1
    33    22    23   ar
    34    23    24   ar
    35    24    19   ar
    36    16    12   ar
    37    11     1   ar
    38    11     5   ar
    39    29    25    1
    40    35    30    1
@<TRIPOS>MOLECULE
*****
 35 40 0 0 0
SMALL
GASTEIGER

@<TRIPOS>ATOM
      1 C         -20.3594   -7.4441   -8.5573 C.ar    1  UNL1        0.1095
      2 N         -19.8639   -6.9743   -7.3850 N.ar    1  UNL1       -0.1677
      3 N         -18.9917   -7.8580   -6.9189 N.ar    1  UNL1       -0.2319
      4 C         -18.1767   -7.6566   -5.7283 C.3     1  UNL1        0.1554
      5 C         -18.9058   -8.8703   -7.7937 C.ar    1  UNL1        0.1657
      6 N         -18.0582   -9.9242   -7.7309 N.ar    1  UNL1       -0.2028
      7 C         -18.0953  -10.8402   -8.7398 C.ar    1  UNL1        0.1947
      8 I         -16.7959  -12.4923   -8.7001 I       1  UNL1        0.0015
      9 N         -18.9882  -10.7033   -9.7674 N.ar    1  UNL1       -0.2066
     10 C         -19.8532   -9.6465   -9.8434 C.ar    1  UNL1        0.1382
     11 C         -19.7713   -8.6783   -8.8317 C.ar    1  UNL1        0.0865
     12 C         -22.5114   -6.8576   -9.8608 C.ar    1  UNL1        0.0809
     13 C         -21.2158   -6.6187   -9.4191 C.ar    1  UNL1        0.0577
     14 C         -20.8174   -5.4693  -10.0713 C.ar    1  UNL1        0.1231
     15 N         -21.8222   -5.0263  -10.8493 N.ar    1  UNL1       -0.1676
     16 N         -22.8376   -5.8676  -10.7265 N.ar    1  UNL1       -0.2488
     17 C         -24.0756   -5.7182  -11.4854 C.3     1  UNL1        0.1537
     18 C         -25.7455  -11.5309   -8.7046 C.3     1  UNL1        0.0310
     19 C         -24.9413  -10.2952   -8.9785 C.ar    1  UNL1       -0.0218
     20 C         -25.1831   -9.5348  -10.1314 C.ar    1  UNL1       -0.0042
     21 C         -24.4037   -8.4088  -10.4099 C.ar    1  UNL1        0.0012
     22 C         -23.3532   -8.0397   -9.5531 C.ar    1  UNL1        0.0174
     23 C         -23.1072   -8.8110   -8.4059 C.ar    1  UNL1        0.0012
     24 C         -23.8931   -9.9312   -8.1218 C.ar    1  UNL1       -0.0042
     25 N         -20.8514   -9.6258  -10.8769 N.pl3   1  UNL1       -0.2916
     26 C         -21.5847  -10.8175  -11.2790 C.3     1  UNL1        0.0937
     27 C         -21.9768  -10.5907  -12.7334 C.3     1  UNL1        0.0391
     28 C         -21.8778   -9.0751  -12.9534 C.3     1  UNL1        0.0790
     29 C         -20.7938   -8.6536  -11.9566 C.3     1  UNL1        0.1081
     30 N         -21.5306   -8.7176  -14.3545 N.3     1  UNL1       -0.2723
     31 C         -21.4474   -9.9232  -15.2099 C.3     1  UNL1        0.0721
     32 C         -20.8389   -9.5739  -16.5808 C.3     1  UNL1        0.0174
     33 C         -21.1020   -8.1160  -16.9850 C.3     1  UNL1        0.0029
     34 C         -22.4552   -7.6443  -16.4559 C.3     1  UNL1        0.0174
     35 C         -22.5302   -7.7683  -14.9178 C.3     1  UNL1        0.0721
@<TRIPOS>BOND
     1    18    19    1
     2    19    20   ar
     3    20    21   ar
     4    21    22   ar
     5    22    12    1
     6    12    13   ar
     7    13     1    1
     8     1     2   ar
     9     2     3   ar
    10     3     4    1
    11     3     5   ar
    12     5     6   ar
    13     6     7   ar
    14     7     8    1
    15     7     9   ar
    16     9    10   ar
    17    10    25    1
    18    25    26    1
    19    26    27    1
    20    27    28    1
    21    28    30    1
    22    30    31    1
    23    31    32    1
    24    32    33    1
    25    33    34    1
    26    34    35    1
    27    28    29    1
    28    10    11   ar
    29    13    14   ar
    30    14    15   ar
    31    15    16   ar
    32    16    17    1
    33    22    23   ar
    34    23    24   ar
    35    24    19   ar
    36    16    12   ar
    37    11     1   ar
    38    11     5   ar
    39    29    25    1
    40    35    30    1
@<TRIPOS>MOLECULE
*****
 35 40 0 0 0
SMALL
GASTEIGER

@<TRIPOS>ATOM
      1 C         -20.2569   -7.7634   -8.3930 C.ar    1  UNL1        0.1095
      2 N         -20.1575   -7.5565   -7.0558 N.ar    1  UNL1       -0.1677
      3 N         -19.3377   -8.4703   -6.5540 N.ar    1  UNL1       -0.2319
      4 C         -18.9041   -8.5082   -5.1638 C.3     1  UNL1        0.1554
      5 C         -18.8930   -9.2381   -7.5591 C.ar    1  UNL1        0.1657
      6 N         -17.9670  -10.2224   -7.4767 N.ar    1  UNL1       -0.2028
      7 C         -17.6161  -10.8726   -8.6223 C.ar    1  UNL1        0.1947
      8 I         -16.1768  -12.4034   -8.5566 I       1  UNL1        0.0015
      9 N         -18.2106  -10.5503   -9.8118 N.ar    1  UNL1       -0.2066
     10 C         -19.1500   -9.5611   -9.9109 C.ar    1  UNL1        0.1382
     11 C         -19.4655   -8.8583   -8.7386 C.ar    1  UNL1        0.0865
     12 C         -22.2397   -6.8612   -9.7816 C.ar    1  UNL1        0.0809
     13 C         -20.9481   -6.8110   -9.2720 C.ar    1  UNL1        0.0577
     14 C         -20.3644   -5.7138   -9.8725 C.ar    1  UNL1        0.1231
     15 N         -21.2587   -5.1215  -10.6854 N.ar    1  UNL1       -0.1676
     16 N         -22.3837   -5.8182  -10.6345 N.ar    1  UNL1       -0.2488
     17 C         -23.5495   -5.4852  -11.4476 C.3     1  UNL1        0.1537
     18 C         -26.2103  -10.9703   -8.7889 C.3     1  UNL1        0.0310
     19 C         -25.1702   -9.9318   -9.0862 C.ar    1  UNL1       -0.0218
     20 C         -23.8724  -10.0626   -8.5720 C.ar    1  UNL1       -0.0042
     21 C         -22.9158   -9.0724   -8.8112 C.ar    1  UNL1        0.0012
     22 C         -23.2488   -7.9229   -9.5471 C.ar    1  UNL1        0.0174
     23 C         -24.5531   -7.7905  -10.0501 C.ar    1  UNL1        0.0012
     24 C         -25.5070   -8.7856   -9.8197 C.ar    1  UNL1       -0.0042
     25 N         -19.8287   -9.3566  -11.1608 N.pl3   1  UNL1       -0.2916
     26 C         -19.6538   -8.1502  -11.9568 C.3     1  UNL1        0.0937
     27 C         -20.9449   -7.9860  -12.7482 C.3     1  UNL1        0.0391
     28 C         -21.6086   -9.3698  -12.7421 C.3     1  UNL1        0.0790
     29 C         -21.1139   -9.9820  -11.4281 C.3     1  UNL1        0.1081
     30 N         -23.0923   -9.2977  -12.8118 N.3     1  UNL1       -0.2723
     31 C         -23.5338   -8.3576  -13.8668 C.3     1  UNL1        0.0721
     32 C         -25.0473   -8.0937  -13.7586 C.3     1  UNL1        0.0174
     33 C         -25.8053   -9.2743  -13.1344 C.3     1  UNL1        0.0029
     34 C         -25.1492  -10.6001  -13.5157 C.3     1  UNL1        0.0174
     35 C         -23.6728  -10.6459  -13.0632 C.3     1  UNL1        0.0721
@<TRIPOS>BOND
     1    18    19    1
     2    19    20   ar
     3    20    21   ar
     4    21    22   ar
     5    22    12    1
     6    12    13   ar
     7    13     1    1
     8     1     2   ar
     9     2     3   ar
    10     3     4    1
    11     3     5   ar
    12     5     6   ar
    13     6     7   ar
    14     7     8    1
    15     7     9   ar
    16     9    10   ar
    17    10    25    1
    18    25    26    1
    19    26    27    1
    20    27    28    1
    21    28    30    1
    22    30    31    1
    23    31    32    1
    24    32    33    1
    25    33    34    1
    26    34    35    1
    27    28    29    1
    28    10    11   ar
    29    13    14   ar
    30    14    15   ar
    31    15    16   ar
    32    16    17    1
    33    22    23   ar
    34    23    24   ar
    35    24    19   ar
    36    16    12   ar
    37    11     1   ar
    38    11     5   ar
    39    29    25    1
    40    35    30    1
@<TRIPOS>MOLECULE
*****
 35 40 0 0 0
SMALL
GASTEIGER

@<TRIPOS>ATOM
      1 C         -21.8690   -9.6303  -12.0035 C.ar    1  UNL1        0.1095
      2 N         -20.8275  -10.4993  -11.9762 N.ar    1  UNL1       -0.1677
      3 N         -21.2741  -11.6943  -12.3387 N.ar    1  UNL1       -0.2319
      4 C         -20.4269  -12.8645  -12.5260 C.3     1  UNL1        0.1554
      5 C         -22.5802  -11.5901  -12.6228 C.ar    1  UNL1        0.1657
      6 N         -23.3805  -12.5630  -13.1187 N.ar    1  UNL1       -0.2028
      7 C         -24.6828  -12.2545  -13.3780 C.ar    1  UNL1        0.1947
      8 I         -25.9698  -13.7226  -14.1576 I       1  UNL1        0.0015
      9 N         -25.1637  -11.0011  -13.1135 N.ar    1  UNL1       -0.2066
     10 C         -24.3691  -10.0085  -12.6093 C.ar    1  UNL1        0.1382
     11 C         -23.0171  -10.3166  -12.3975 C.ar    1  UNL1        0.0865
     12 C         -20.9998   -7.5041  -10.8211 C.ar    1  UNL1        0.0809
     13 C         -21.6730   -8.1852  -11.8278 C.ar    1  UNL1        0.0577
     14 C         -22.2578   -7.2026  -12.6009 C.ar    1  UNL1        0.1231
     15 N         -21.9405   -5.9938  -12.1017 N.ar    1  UNL1       -0.1676
     16 N         -21.1897   -6.1783  -11.0265 N.ar    1  UNL1       -0.2488
     17 C         -20.7175   -5.0711  -10.2006 C.3     1  UNL1        0.1537
     18 C         -18.2100   -9.7706   -6.2695 C.3     1  UNL1        0.0310
     19 C         -18.9650   -9.2200   -7.4424 C.ar    1  UNL1       -0.0218
     20 C         -18.6592   -9.6448   -8.7432 C.ar    1  UNL1       -0.0042
     21 C         -19.3314   -9.0985   -9.8398 C.ar    1  UNL1        0.0012
     22 C         -20.3025   -8.1001   -9.6553 C.ar    1  UNL1        0.0174
     23 C         -20.5970   -7.6694   -8.3516 C.ar    1  UNL1        0.0012
     24 C         -19.9321   -8.2229   -7.2541 C.ar    1  UNL1       -0.0042
     25 N         -24.9611   -8.7542  -12.2340 N.pl3   1  UNL1       -0.2916
     26 C         -25.7146   -8.5838  -11.0000 C.3     1  UNL1        0.0937
     27 C         -26.7004   -7.4544  -11.2699 C.3     1  UNL1        0.0391
     28 C         -26.1368   -6.6986  -12.4809 C.3     1  UNL1        0.0790
     29 C         -25.3719   -7.7874  -13.2395 C.3     1  UNL1        0.1081
     30 N         -27.1970   -6.0668  -13.3105 N.3     1  UNL1       -0.2723
     31 C         -26.6359   -5.5059  -14.5605 C.3     1  UNL1        0.0721
     32 C         -27.6820   -4.6351  -15.2810 C.3     1  UNL1        0.0174
     33 C         -29.1214   -5.0762  -14.9780 C.3     1  UNL1        0.0029
     34 C         -29.1930   -6.5894  -14.7821 C.3     1  UNL1        0.0174
     35 C         -28.2663   -7.0511  -13.6355 C.3     1  UNL1        0.0721
@<TRIPOS>BOND
     1    18    19    1
     2    19    20   ar
     3    20    21   ar
     4    21    22   ar
     5    22    12    1
     6    12    13   ar
     7    13     1    1
     8     1     2   ar
     9     2     3   ar
    10     3     4    1
    11     3     5   ar
    12     5     6   ar
    13     6     7   ar
    14     7     8    1
    15     7     9   ar
    16     9    10   ar
    17    10    25    1
    18    25    26    1
    19    26    27    1
    20    27    28    1
    21    28    30    1
    22    30    31    1
    23    31    32    1
    24    32    33    1
    25    33    34    1
    26    34    35    1
    27    28    29    1
    28    10    11   ar
    29    13    14   ar
    30    14    15   ar
    31    15    16   ar
    32    16    17    1
    33    22    23   ar
    34    23    24   ar
    35    24    19   ar
    36    16    12   ar
    37    11     1   ar
    38    11     5   ar
    39    29    25    1
    40    35    30    1
@<TRIPOS>MOLECULE
*****
 35 40 0 0 0
SMALL
GASTEIGER

@<TRIPOS>ATOM
      1 C         -21.2093  -10.1433  -11.9157 C.ar    1  UNL1        0.1095
      2 N         -20.7721  -10.4713  -10.6740 N.ar    1  UNL1       -0.1677
      3 N         -20.4441   -9.3533  -10.0404 N.ar    1  UNL1       -0.2319
      4 C         -20.0264   -9.2930   -8.6461 C.3     1  UNL1        0.1554
      5 C         -20.6933   -8.3169  -10.8535 C.ar    1  UNL1        0.1657
      6 N         -20.5819   -7.0029  -10.5470 N.ar    1  UNL1       -0.2028
      7 C         -20.9163   -6.0892  -11.5017 C.ar    1  UNL1        0.1947
      8 I         -20.7719   -4.0349  -11.0791 I       1  UNL1        0.0015
      9 N         -21.3246   -6.5002  -12.7412 N.ar    1  UNL1       -0.2066
     10 C         -21.4391   -7.8236  -13.0676 C.ar    1  UNL1        0.1382
     11 C         -21.1472   -8.7581  -12.0630 C.ar    1  UNL1        0.0865
     12 C         -23.1349  -11.2493  -13.2360 C.ar    1  UNL1        0.0809
     13 C         -21.8176  -11.1392  -12.8077 C.ar    1  UNL1        0.0577
     14 C         -21.1828  -12.2628  -13.2973 C.ar    1  UNL1        0.1231
     15 N         -22.0617  -13.0020  -13.9991 N.ar    1  UNL1       -0.1676
     16 N         -23.2372  -12.3936  -13.9542 N.ar    1  UNL1       -0.2488
     17 C         -24.4363  -12.9592  -14.5652 C.3     1  UNL1        0.1537
     18 C         -27.4992   -7.6901  -11.8499 C.3     1  UNL1        0.0310
     19 C         -26.4006   -8.6486  -12.2009 C.ar    1  UNL1       -0.0218
     20 C         -25.5331   -9.1250  -11.2077 C.ar    1  UNL1       -0.0042
     21 C         -24.4815   -9.9825  -11.5418 C.ar    1  UNL1        0.0012
     22 C         -24.2649  -10.3572  -12.8784 C.ar    1  UNL1        0.0174
     23 C         -25.1290   -9.8682  -13.8713 C.ar    1  UNL1        0.0012
     24 C         -26.1869   -9.0188  -13.5359 C.ar    1  UNL1       -0.0042
     25 N         -21.7493   -8.1912  -14.4216 N.pl3   1  UNL1       -0.2916
     26 C         -20.7207   -8.5301  -15.3946 C.3     1  UNL1        0.0937
     27 C         -21.3093   -8.1839  -16.7563 C.3     1  UNL1        0.0391
     28 C         -22.8279   -8.1224  -16.5431 C.3     1  UNL1        0.0790
     29 C         -22.9518   -7.7007  -15.0758 C.3     1  UNL1        0.1081
     30 N         -23.5013   -7.1705  -17.4661 N.3     1  UNL1       -0.2723
     31 C         -24.3228   -7.8867  -18.4682 C.3     1  UNL1        0.0721
     32 C         -24.8013   -6.9200  -19.5674 C.3     1  UNL1        0.0174
     33 C         -24.9313   -5.4757  -19.0622 C.3     1  UNL1        0.0029
     34 C         -25.3598   -5.4524  -17.5962 C.3     1  UNL1        0.0174
     35 C         -24.3539   -6.2153  -16.7056 C.3     1  UNL1        0.0721
@<TRIPOS>BOND
     1    18    19    1
     2    19    20   ar
     3    20    21   ar
     4    21    22   ar
     5    22    12    1
     6    12    13   ar
     7    13     1    1
     8     1     2   ar
     9     2     3   ar
    10     3     4    1
    11     3     5   ar
    12     5     6   ar
    13     6     7   ar
    14     7     8    1
    15     7     9   ar
    16     9    10   ar
    17    10    25    1
    18    25    26    1
    19    26    27    1
    20    27    28    1
    21    28    30    1
    22    30    31    1
    23    31    32    1
    24    32    33    1
    25    33    34    1
    26    34    35    1
    27    28    29    1
    28    10    11   ar
    29    13    14   ar
    30    14    15   ar
    31    15    16   ar
    32    16    17    1
    33    22    23   ar
    34    23    24   ar
    35    24    19   ar
    36    16    12   ar
    37    11     1   ar
    38    11     5   ar
    39    29    25    1
    40    35    30    1
@<TRIPOS>MOLECULE
*****
 35 40 0 0 0
SMALL
GASTEIGER

@<TRIPOS>ATOM
      1 C         -21.6134  -10.1253  -11.3323 C.ar    1  UNL1        0.1095
      2 N         -20.5529  -10.9704  -11.2910 N.ar    1  UNL1       -0.1677
      3 N         -20.9257  -12.1305  -11.8147 N.ar    1  UNL1       -0.2319
      4 C         -20.0286  -13.2569  -12.0354 C.3     1  UNL1        0.1554
      5 C         -22.2013  -12.0248  -12.2137 C.ar    1  UNL1        0.1657
      6 N         -22.9201  -12.9575  -12.8818 N.ar    1  UNL1       -0.2028
      7 C         -24.2005  -12.6512  -13.2351 C.ar    1  UNL1        0.1947
      8 I         -25.3611  -14.0571  -14.2819 I       1  UNL1        0.0015
      9 N         -24.7431  -11.4424  -12.8936 N.ar    1  UNL1       -0.2066
     10 C         -24.0314  -10.4910  -12.2159 C.ar    1  UNL1        0.1382
     11 C         -22.6969  -10.7909  -11.9047 C.ar    1  UNL1        0.0865
     12 C         -21.5940   -7.5872  -11.8138 C.ar    1  UNL1        0.0809
     13 C         -21.4800   -8.7025  -10.9929 C.ar    1  UNL1        0.0577
     14 C         -21.0757   -8.2105   -9.7683 C.ar    1  UNL1        0.1231
     15 N         -20.9697   -6.8707   -9.8383 N.ar    1  UNL1       -0.1676
     16 N         -21.2748   -6.4991  -11.0722 N.ar    1  UNL1       -0.2488
     17 C         -21.2026   -5.1092  -11.5128 C.3     1  UNL1        0.1537
     18 C         -22.7750   -7.6327  -17.4918 C.3     1  UNL1        0.0310
     19 C         -22.4475   -7.5776  -16.0294 C.ar    1  UNL1       -0.0218
     20 C         -21.2522   -8.1326  -15.5506 C.ar    1  UNL1       -0.0042
     21 C         -20.9678   -8.1217  -14.1825 C.ar    1  UNL1        0.0012
     22 C         -21.8858   -7.5783  -13.2682 C.ar    1  UNL1        0.0174
     23 C         -23.0869   -7.0342  -13.7511 C.ar    1  UNL1        0.0012
     24 C         -23.3668   -7.0359  -15.1204 C.ar    1  UNL1       -0.0042
     25 N         -24.6951   -9.2951  -11.7756 N.pl3   1  UNL1       -0.2916
     26 C         -25.4341   -9.2275  -10.5230 C.3     1  UNL1        0.0937
     27 C         -26.4951   -8.1535  -10.7262 C.3     1  UNL1        0.0391
     28 C         -26.0043   -7.3111  -11.9114 C.3     1  UNL1        0.0790
     29 C         -25.1860   -8.3142  -12.7302 C.3     1  UNL1        0.1081
     30 N         -27.1185   -6.7139  -12.6946 N.3     1  UNL1       -0.2723
     31 C         -26.6078   -5.9494  -13.8551 C.3     1  UNL1        0.0721
     32 C         -27.7381   -5.1275  -14.5022 C.3     1  UNL1        0.0174
     33 C         -29.1197   -5.7650  -14.2946 C.3     1  UNL1        0.0029
     34 C         -29.0143   -7.2888  -14.2752 C.3     1  UNL1        0.0174
     35 C         -28.0580   -7.7708  -13.1617 C.3     1  UNL1        0.0721
@<TRIPOS>BOND
     1    18    19    1
     2    19    20   ar
     3    20    21   ar
     4    21    22   ar
     5    22    12    1
     6    12    13   ar
     7    13     1    1
     8     1     2   ar
     9     2     3   ar
    10     3     4    1
    11     3     5   ar
    12     5     6   ar
    13     6     7   ar
    14     7     8    1
    15     7     9   ar
    16     9    10   ar
    17    10    25    1
    18    25    26    1
    19    26    27    1
    20    27    28    1
    21    28    30    1
    22    30    31    1
    23    31    32    1
    24    32    33    1
    25    33    34    1
    26    34    35    1
    27    28    29    1
    28    10    11   ar
    29    13    14   ar
    30    14    15   ar
    31    15    16   ar
    32    16    17    1
    33    22    23   ar
    34    23    24   ar
    35    24    19   ar
    36    16    12   ar
    37    11     1   ar
    38    11     5   ar
    39    29    25    1
    40    35    30    1
@<TRIPOS>MOLECULE
*****
 35 40 0 0 0
SMALL
GASTEIGER

@<TRIPOS>ATOM
      1 C         -21.6958   -7.3469  -12.0766 C.ar    1  UNL1        0.1095
      2 N         -21.8146   -6.0066  -11.9029 N.ar    1  UNL1       -0.1677
      3 N         -21.5399   -5.7261  -10.6361 N.ar    1  UNL1       -0.2319
      4 C         -21.4650   -4.3766  -10.0925 C.3     1  UNL1        0.1554
      5 C         -21.2210   -6.8673  -10.0090 C.ar    1  UNL1        0.1657
      6 N         -20.7881   -6.9956   -8.7326 N.ar    1  UNL1       -0.2028
      7 C         -20.4776   -8.2438   -8.2812 C.ar    1  UNL1        0.1947
      8 I         -19.7915   -8.5024   -6.3110 I       1  UNL1        0.0015
      9 N         -20.6304   -9.3328   -9.0953 N.ar    1  UNL1       -0.2066
     10 C         -21.0699   -9.2204  -10.3857 C.ar    1  UNL1        0.1382
     11 C         -21.3341   -7.9275  -10.8615 C.ar    1  UNL1        0.0865
     12 C         -22.8702   -8.2751  -14.1821 C.ar    1  UNL1        0.0809
     13 C         -21.7589   -7.9609  -13.4095 C.ar    1  UNL1        0.0577
     14 C         -20.6799   -8.4699  -14.1036 C.ar    1  UNL1        0.1231
     15 N         -21.1117   -9.0432  -15.2421 N.ar    1  UNL1       -0.1676
     16 N         -22.4306   -8.9312  -15.2832 N.ar    1  UNL1       -0.2488
     17 C         -23.2328   -9.5032  -16.3603 C.3     1  UNL1        0.1537
     18 C         -28.4585   -7.4448  -12.8712 C.3     1  UNL1        0.0310
     19 C         -27.0015   -7.6434  -13.1655 C.ar    1  UNL1       -0.0218
     20 C         -26.2503   -6.6124  -13.7475 C.ar    1  UNL1       -0.0042
     21 C         -24.9038   -6.8127  -14.0634 C.ar    1  UNL1        0.0012
     22 C         -24.2934   -8.0555  -13.8258 C.ar    1  UNL1        0.0174
     23 C         -25.0528   -9.0889  -13.2537 C.ar    1  UNL1        0.0012
     24 C         -26.3966   -8.8855  -12.9283 C.ar    1  UNL1       -0.0042
     25 N         -21.3308  -10.4105  -11.1475 N.pl3   1  UNL1       -0.2916
     26 C         -20.3509  -10.9865  -12.0573 C.3     1  UNL1        0.0937
     27 C         -21.1559  -11.7273  -13.1172 C.3     1  UNL1        0.0391
     28 C         -22.5401  -11.9563  -12.4954 C.3     1  UNL1        0.0790
     29 C         -22.6849  -10.7723  -11.5344 C.3     1  UNL1        0.1081
     30 N         -23.6272  -12.0007  -13.5092 N.3     1  UNL1       -0.2723
     31 C         -23.2124  -12.7677  -14.7058 C.3     1  UNL1        0.0721
     32 C         -24.2341  -12.5898  -15.8444 C.3     1  UNL1        0.0174
     33 C         -25.6489  -12.2992  -15.3227 C.3     1  UNL1        0.0029
     34 C         -25.8953  -13.0200  -13.9986 C.3     1  UNL1        0.0174
     35 C         -24.8617  -12.5994  -12.9301 C.3     1  UNL1        0.0721
@<TRIPOS>BOND
     1    18    19    1
     2    19    20   ar
     3    20    21   ar
     4    21    22   ar
     5    22    12    1
     6    12    13   ar
     7    13     1    1
     8     1     2   ar
     9     2     3   ar
    10     3     4    1
    11     3     5   ar
    12     5     6   ar
    13     6     7   ar
    14     7     8    1
    15     7     9   ar
    16     9    10   ar
    17    10    25    1
    18    25    26    1
    19    26    27    1
    20    27    28    1
    21    28    30    1
    22    30    31    1
    23    31    32    1
    24    32    33    1
    25    33    34    1
    26    34    35    1
    27    28    29    1
    28    10    11   ar
    29    13    14   ar
    30    14    15   ar
    31    15    16   ar
    32    16    17    1
    33    22    23   ar
    34    23    24   ar
    35    24    19   ar
    36    16    12   ar
    37    11     1   ar
    38    11     5   ar
    39    29    25    1
    40    35    30    1
@<TRIPOS>MOLECULE
*****
 35 40 0 0 0
SMALL
GASTEIGER

@<TRIPOS>ATOM
      1 C         -21.0374  -10.4004  -12.0910 C.ar    1  UNL1        0.1095
      2 N         -20.3128  -11.1435  -11.2173 N.ar    1  UNL1       -0.1677
      3 N         -20.2047  -12.3715  -11.7067 N.ar    1  UNL1       -0.2319
      4 C         -19.4104  -13.4301  -11.0979 C.3     1  UNL1        0.1554
      5 C         -20.8276  -12.4110  -12.8932 C.ar    1  UNL1        0.1657
      6 N         -20.8634  -13.4555  -13.7539 N.ar    1  UNL1       -0.2028
      7 C         -21.5224  -13.2924  -14.9359 C.ar    1  UNL1        0.1947
      8 I         -21.6030  -14.8769  -16.3153 I       1  UNL1        0.0015
      9 N         -22.1509  -12.1111  -15.2216 N.ar    1  UNL1       -0.2066
     10 C         -22.1269  -11.0479  -14.3613 C.ar    1  UNL1        0.1382
     11 C         -21.3999  -11.2034  -13.1718 C.ar    1  UNL1        0.0865
     12 C         -22.1304   -8.2345  -11.2029 C.ar    1  UNL1        0.0809
     13 C         -21.1858   -8.9479  -11.9306 C.ar    1  UNL1        0.0577
     14 C         -20.4543   -7.9932  -12.6079 C.ar    1  UNL1        0.1231
     15 N         -20.9174   -6.7694  -12.2929 N.ar    1  UNL1       -0.1676
     16 N         -21.9307   -6.9180  -11.4532 N.ar    1  UNL1       -0.2488
     17 C         -22.7078   -5.7872  -10.9546 C.3     1  UNL1        0.1537
     18 C         -26.4831  -10.4929   -8.1062 C.3     1  UNL1        0.0310
     19 C         -25.3540   -9.8729   -8.8739 C.ar    1  UNL1       -0.0218
     20 C         -25.6154   -8.9352   -9.8831 C.ar    1  UNL1       -0.0042
     21 C         -24.5665   -8.3912  -10.6293 C.ar    1  UNL1        0.0012
     22 C         -23.2414   -8.7951  -10.3955 C.ar    1  UNL1        0.0174
     23 C         -22.9855   -9.7433   -9.3918 C.ar    1  UNL1        0.0012
     24 C         -24.0334  -10.2798   -8.6386 C.ar    1  UNL1       -0.0042
     25 N         -22.9109   -9.8815  -14.6606 N.pl3   1  UNL1       -0.2916
     26 C         -22.3102   -8.6198  -15.0690 C.3     1  UNL1        0.0937
     27 C         -23.2870   -7.5359  -14.6314 C.3     1  UNL1        0.0391
     28 C         -24.6303   -8.2506  -14.4317 C.3     1  UNL1        0.0790
     29 C         -24.2091   -9.6703  -14.0405 C.3     1  UNL1        0.1081
     30 N         -25.4786   -7.6042  -13.3953 N.3     1  UNL1       -0.2723
     31 C         -25.6544   -6.1603  -13.6714 C.3     1  UNL1        0.0721
     32 C         -26.3076   -5.4543  -12.4685 C.3     1  UNL1        0.0174
     33 C         -27.1969   -6.3985  -11.6464 C.3     1  UNL1        0.0029
     34 C         -27.8613   -7.4370  -12.5484 C.3     1  UNL1        0.0174
     35 C         -26.8095   -8.2678  -13.3167 C.3     1  UNL1        0.0721
@<TRIPOS>BOND
     1    18    19    1
     2    19    20   ar
     3    20    21   ar
     4    21    22   ar
     5    22    12    1
     6    12    13   ar
     7    13     1    1
     8     1     2   ar
     9     2     3   ar
    10     3     4    1
    11     3     5   ar
    12     5     6   ar
    13     6     7   ar
    14     7     8    1
    15     7     9   ar
    16     9    10   ar
    17    10    25    1
    18    25    26    1
    19    26    27    1
    20    27    28    1
    21    28    30    1
    22    30    31    1
    23    31    32    1
    24    32    33    1
    25    33    34    1
    26    34    35    1
    27    28    29    1
    28    10    11   ar
    29    13    14   ar
    30    14    15   ar
    31    15    16   ar
    32    16    17    1
    33    22    23   ar
    34    23    24   ar
    35    24    19   ar
    36    16    12   ar
    37    11     1   ar
    38    11     5   ar
    39    29    25    1
    40    35    30    1
@<TRIPOS>MOLECULE
*****
 35 40 0 0 0
SMALL
GASTEIGER

@<TRIPOS>ATOM
      1 C         -21.9286   -6.8705  -11.9845 C.ar    1  UNL1        0.1095
      2 N         -21.8904   -5.6575  -11.3780 N.ar    1  UNL1       -0.1677
      3 N         -23.0028   -5.0042  -11.6858 N.ar    1  UNL1       -0.2319
      4 C         -23.3691   -3.7048  -11.1383 C.3     1  UNL1        0.1554
      5 C         -23.7601   -5.7971  -12.4573 C.ar    1  UNL1        0.1657
      6 N         -25.0113   -5.5358  -12.9037 N.ar    1  UNL1       -0.2028
      7 C         -25.6384   -6.4866  -13.6528 C.ar    1  UNL1        0.1947
      8 I         -27.5855   -6.1398  -14.3654 I       1  UNL1        0.0015
      9 N         -25.0004   -7.6566  -13.9626 N.ar    1  UNL1       -0.2066
     10 C         -23.7354   -7.9341  -13.5223 C.ar    1  UNL1        0.1382
     11 C         -23.1175   -6.9756  -12.7055 C.ar    1  UNL1        0.0865
     12 C         -21.0555   -9.0718  -10.9518 C.ar    1  UNL1        0.0809
     13 C         -20.9282   -7.9076  -11.6995 C.ar    1  UNL1        0.0577
     14 C         -19.5915   -7.8386  -12.0369 C.ar    1  UNL1        0.1231
     15 N         -18.9493   -8.9109  -11.5380 N.ar    1  UNL1       -0.1676
     16 N         -19.8310   -9.6473  -10.8792 N.ar    1  UNL1       -0.2488
     17 C         -19.4567  -10.8600  -10.1579 C.3     1  UNL1        0.1537
     18 C         -25.8506  -10.8646   -8.2261 C.3     1  UNL1        0.0310
     19 C         -24.5873  -10.4406   -8.9139 C.ar    1  UNL1       -0.0218
     20 C         -23.6714   -9.6051   -8.2590 C.ar    1  UNL1       -0.0042
     21 C         -22.5160   -9.1731   -8.9159 C.ar    1  UNL1        0.0012
     22 C         -22.2706   -9.5489  -10.2471 C.ar    1  UNL1        0.0174
     23 C         -23.1966  -10.3761  -10.9030 C.ar    1  UNL1        0.0012
     24 C         -24.3469  -10.8166  -10.2428 C.ar    1  UNL1       -0.0042
     25 N         -23.0725   -9.1216  -13.9861 N.pl3   1  UNL1       -0.2916
     26 C         -22.1768   -9.1189  -15.1338 C.3     1  UNL1        0.0937
     27 C         -22.2386  -10.5277  -15.7100 C.3     1  UNL1        0.0391
     28 C         -22.7864  -11.4095  -14.5796 C.3     1  UNL1        0.0790
     29 C         -23.6552  -10.4371  -13.7759 C.3     1  UNL1        0.1081
     30 N         -23.5576  -12.5775  -15.0820 N.3     1  UNL1       -0.2723
     31 C         -22.8096  -13.8394  -14.8817 C.3     1  UNL1        0.0721
     32 C         -23.4919  -14.9986  -15.6317 C.3     1  UNL1        0.0174
     33 C         -25.0040  -14.7841  -15.7920 C.3     1  UNL1        0.0029
     34 C         -25.5735  -14.0325  -14.5903 C.3     1  UNL1        0.0174
     35 C         -24.8813  -12.6637  -14.4053 C.3     1  UNL1        0.0721
@<TRIPOS>BOND
     1    18    19    1
     2    19    20   ar
     3    20    21   ar
     4    21    22   ar
     5    22    12    1
     6    12    13   ar
     7    13     1    1
     8     1     2   ar
     9     2     3   ar
    10     3     4    1
    11     3     5   ar
    12     5     6   ar
    13     6     7   ar
    14     7     8    1
    15     7     9   ar
    16     9    10   ar
    17    10    25    1
    18    25    26    1
    19    26    27    1
    20    27    28    1
    21    28    30    1
    22    30    31    1
    23    31    32    1
    24    32    33    1
    25    33    34    1
    26    34    35    1
    27    28    29    1
    28    10    11   ar
    29    13    14   ar
    30    14    15   ar
    31    15    16   ar
    32    16    17    1
    33    22    23   ar
    34    23    24   ar
    35    24    19   ar
    36    16    12   ar
    37    11     1   ar
    38    11     5   ar
    39    29    25    1
    40    35    30    1
