@<TRIPOS>MOLECULE
*****
 46 52 0 0 0
SMALL
GASTEIGER

@<TRIPOS>ATOM
      1 C         -28.0674   48.2974   -4.2461 C.3     1  UNL1        0.0817
      2 C         -28.4375   47.0216   -5.0349 C.3     1  UNL1        0.0252
      3 C         -27.6644   47.0800   -6.3679 C.3     1  UNL1        0.0278
      4 C         -27.0629   48.4365   -6.3799 C.ar    1  UNL1       -0.0248
      5 C         -26.2832   48.9923   -7.3960 C.ar    1  UNL1       -0.0045
      6 C         -25.7464   50.2838   -7.2186 C.ar    1  UNL1       -0.0002
      7 C         -25.9928   50.9778   -6.0120 C.ar    1  UNL1       -0.0003
      8 C         -26.7729   50.3944   -5.0033 C.ar    1  UNL1       -0.0033
      9 C         -27.3148   49.1262   -5.2205 C.ar    1  UNL1       -0.0117
     10 C         -30.1729   49.7710   -4.3470 C.3     1  UNL1        0.1158
     11 N         -31.1650   50.2231   -3.5406 N.3     1  UNL1       -0.2851
     12 C         -30.8629   49.6902   -2.3492 C.3     1  UNL1        0.0910
     13 C         -31.5815   49.8288   -1.1730 C.3     1  UNL1        0.1018
     14 C         -31.1027   49.1548   -0.0421 C.3     1  UNL1        0.3136
     15 N         -29.9647   48.3810   -0.1049 N.am    1  UNL1       -0.1293
     16 C         -29.2661   48.2511   -1.2879 C.2     1  UNL1        0.4047
     17 O         -28.2401   47.5235   -1.3409 O.2     1  UNL1       -0.2174
     18 C         -29.7306   48.9378   -2.4255 C.3     1  UNL1        0.2038
     19 N         -29.2550   48.9869   -3.6955 N.3     1  UNL1       -0.2473
     20 H         -32.0758   49.8987   -3.8653 H       1  UNL1        0.1244
     21 C         -31.2866   51.0964   -6.1414 C.3     1  UNL1        0.0029
     22 C         -30.1567   50.1294   -5.8087 C.3     1  UNL1        0.0326
     23 C         -29.5272   47.6622    1.1048 C.3     1  UNL1        0.3404
     24 C         -30.1501   48.2756    2.3417 C.ar    1  UNL1        0.0640
     25 C         -29.8706   49.6225    2.6361 C.ar    1  UNL1        0.0031
     26 C         -30.4362   50.2399    3.7535 C.ar    1  UNL1       -0.0001
     27 C         -31.2871   49.5222    4.5936 C.ar    1  UNL1        0.0007
     28 C         -31.5730   48.1832    4.3211 C.ar    1  UNL1        0.0102
     29 C         -31.0117   47.5505    3.2024 C.ar    1  UNL1        0.0710
     30 C         -31.3296   46.1616    2.9727 C.1     1  UNL1        0.1003
     31 N         -31.5833   45.0475    2.7886 N.1     1  UNL1       -0.1908
     32 C         -24.8722   50.8760   -8.2590 C.ar    1  UNL1        0.0030
     33 C         -23.4870   50.9058   -8.0241 C.ar    1  UNL1       -0.0001
     34 C         -22.6249   51.5431   -8.9163 C.ar    1  UNL1       -0.0018
     35 C         -23.1285   52.1598  -10.0674 C.ar    1  UNL1        0.0074
     36 C         -24.5090   52.1420  -10.3102 C.ar    1  UNL1        0.0012
     37 C         -25.3885   51.4836   -9.4332 C.ar    1  UNL1        0.0369
     38 C         -26.8220   51.4223   -9.7970 C.ar    1  UNL1        0.1805
     39 N         -27.6165   52.5003   -9.9386 N.ar    1  UNL1       -0.1084
     40 N         -28.7879   52.0151  -10.3260 N.ar    1  UNL1       -0.0229
     41 N         -28.7179   50.6969  -10.4332 N.ar    1  UNL1       -0.0464
     42 N         -27.4988   50.3050  -10.1110 N.ar    1  UNL1       -0.2388
     43 H         -27.1530   49.3210  -10.1474 H       1  UNL1        0.1923
     44 C         -22.2050   52.8893  -11.0008 C.3     1  UNL1        0.1687
     45 O         -21.4864   53.8570  -10.2667 O.3     1  UNL1       -0.3463
     46 C         -20.1144   53.7546  -10.5746 C.3     1  UNL1        0.1746
@<TRIPOS>BOND
     1    21    22    1
     2    22    10    1
     3    10    11    1
     4    11    12    1
     5    12    13    1
     6    13    14    1
     7    14    15    1
     8    15    23    1
     9    23    24    1
    10    24    25   ar
    11    25    26   ar
    12    26    27   ar
    13    27    28   ar
    14    28    29   ar
    15    29    30    1
    16    30    31    3
    17    15    16    1
    18    16    17    2
    19    16    18    1
    20    18    19    1
    21    19     1    1
    22     1     2    1
    23     2     3    1
    24     3     4    1
    25     4     5   ar
    26     5     6   ar
    27     6    32    1
    28    32    33   ar
    29    33    34   ar
    30    34    35   ar
    31    35    44    1
    32    44    45    1
    33    45    46    1
    34    35    36   ar
    35    36    37   ar
    36    37    38    1
    37    38    39   ar
    38    39    40   ar
    39    40    41   ar
    40    41    42   ar
    41     6     7   ar
    42     7     8   ar
    43     8     9   ar
    44    19    10    1
    45     9     1    1
    46    18    12    1
    47     9     4   ar
    48    29    24   ar
    49    37    32   ar
    50    42    38   ar
    51    42    43    1
    52    11    20    1
@<TRIPOS>MOLECULE
*****
 46 52 0 0 0
SMALL
GASTEIGER

@<TRIPOS>ATOM
      1 C         -26.2714   50.8204   -7.0032 C.3     1  UNL1        0.0817
      2 C         -26.7429   52.0826   -6.2473 C.3     1  UNL1        0.0252
      3 C         -27.5705   51.5977   -5.0399 C.3     1  UNL1        0.0278
      4 C         -27.7093   50.1364   -5.2578 C.ar    1  UNL1       -0.0248
      5 C         -28.4042   49.2363   -4.4478 C.ar    1  UNL1       -0.0045
      6 C         -28.3897   47.8658   -4.7780 C.ar    1  UNL1       -0.0002
      7 C         -27.6588   47.4320   -5.9075 C.ar    1  UNL1       -0.0003
      8 C         -26.9626   48.3552   -6.7008 C.ar    1  UNL1       -0.0033
      9 C         -27.0200   49.7091   -6.3649 C.ar    1  UNL1       -0.0117
     10 C         -27.6960   50.9208   -9.1420 C.3     1  UNL1        0.1158
     11 N         -27.5492   51.0533  -10.4837 N.3     1  UNL1       -0.2851
     12 C         -26.2223   51.1467  -10.6424 C.3     1  UNL1        0.0910
     13 C         -25.5403   51.3183  -11.8359 C.3     1  UNL1        0.1018
     14 C         -24.1451   51.4257  -11.7713 C.3     1  UNL1        0.3136
     15 N         -23.4832   51.3681  -10.5644 N.am    1  UNL1       -0.1293
     16 C         -24.1815   51.2023   -9.3858 C.2     1  UNL1        0.4047
     17 O         -23.5697   51.1737   -8.2858 O.2     1  UNL1       -0.2174
     18 C         -25.5824   51.0772   -9.4425 C.3     1  UNL1        0.2038
     19 N         -26.5052   50.9134   -8.4611 N.3     1  UNL1       -0.2473
     20 H         -28.0173   51.8945  -10.8208 H       1  UNL1        0.1244
     21 C         -29.7669   49.5393   -9.0022 C.3     1  UNL1        0.0029
     22 C         -29.0681   50.8098   -8.5334 C.3     1  UNL1        0.0326
     23 C         -22.0182   51.5258  -10.5499 C.3     1  UNL1        0.3404
     24 C         -21.6419   52.9720  -10.3025 C.ar    1  UNL1        0.0640
     25 C         -22.5709   53.9737  -10.6376 C.ar    1  UNL1        0.0031
     26 C         -22.2798   55.3204  -10.4104 C.ar    1  UNL1       -0.0001
     27 C         -21.0576   55.6866   -9.8474 C.ar    1  UNL1        0.0007
     28 C         -20.1205   54.7076   -9.5124 C.ar    1  UNL1        0.0102
     29 C         -20.3997   53.3514   -9.7352 C.ar    1  UNL1        0.0710
     30 C         -19.3920   52.3802   -9.3825 C.1     1  UNL1        0.1003
     31 N         -18.5832   51.6019   -9.1006 N.1     1  UNL1       -0.1908
     32 C         -29.0754   46.8826   -3.9058 C.ar    1  UNL1        0.0030
     33 C         -30.4801   46.8436   -3.9256 C.ar    1  UNL1       -0.0001
     34 C         -31.1838   46.0148   -3.0520 C.ar    1  UNL1       -0.0018
     35 C         -30.4980   45.2013   -2.1428 C.ar    1  UNL1        0.0074
     36 C         -29.0969   45.2353   -2.1092 C.ar    1  UNL1        0.0012
     37 C         -28.3724   46.0473   -2.9990 C.ar    1  UNL1        0.0369
     38 C         -26.8946   45.9657   -2.9737 C.ar    1  UNL1        0.1805
     39 N         -26.1801   44.9588   -3.5115 N.ar    1  UNL1       -0.1084
     40 N         -24.9125   45.3018   -3.3293 N.ar    1  UNL1       -0.0229
     41 N         -24.8450   46.4752   -2.7188 N.ar    1  UNL1       -0.0464
     42 N         -26.0705   46.9101   -2.4899 N.ar    1  UNL1       -0.2388
     43 H         -26.3129   47.8286   -2.0579 H       1  UNL1        0.1923
     44 C         -31.2581   44.3475   -1.1684 C.3     1  UNL1        0.1687
     45 O         -30.8254   44.6536    0.1396 O.3     1  UNL1       -0.3463
     46 C         -31.5820   45.7315    0.6428 C.3     1  UNL1        0.1746
@<TRIPOS>BOND
     1    21    22    1
     2    22    10    1
     3    10    11    1
     4    11    12    1
     5    12    13    1
     6    13    14    1
     7    14    15    1
     8    15    23    1
     9    23    24    1
    10    24    25   ar
    11    25    26   ar
    12    26    27   ar
    13    27    28   ar
    14    28    29   ar
    15    29    30    1
    16    30    31    3
    17    15    16    1
    18    16    17    2
    19    16    18    1
    20    18    19    1
    21    19     1    1
    22     1     2    1
    23     2     3    1
    24     3     4    1
    25     4     5   ar
    26     5     6   ar
    27     6    32    1
    28    32    33   ar
    29    33    34   ar
    30    34    35   ar
    31    35    44    1
    32    44    45    1
    33    45    46    1
    34    35    36   ar
    35    36    37   ar
    36    37    38    1
    37    38    39   ar
    38    39    40   ar
    39    40    41   ar
    40    41    42   ar
    41     6     7   ar
    42     7     8   ar
    43     8     9   ar
    44    19    10    1
    45     9     1    1
    46    18    12    1
    47     9     4   ar
    48    29    24   ar
    49    37    32   ar
    50    42    38   ar
    51    42    43    1
    52    11    20    1
@<TRIPOS>MOLECULE
*****
 46 52 0 0 0
SMALL
GASTEIGER

@<TRIPOS>ATOM
      1 C         -30.6941   48.1564   -9.3613 C.3     1  UNL1        0.0817
      2 C         -31.5354   49.4404   -9.1870 C.3     1  UNL1        0.0252
      3 C         -30.5604   50.6309   -9.2874 C.3     1  UNL1        0.0278
      4 C         -29.2175   49.9999   -9.3088 C.ar    1  UNL1       -0.0248
      5 C         -27.9885   50.6599   -9.3645 C.ar    1  UNL1       -0.0045
      6 C         -26.8042   49.8978   -9.4300 C.ar    1  UNL1       -0.0002
      7 C         -26.8878   48.4869   -9.4569 C.ar    1  UNL1       -0.0003
      8 C         -28.1350   47.8479   -9.4077 C.ar    1  UNL1       -0.0033
      9 C         -29.2882   48.6294   -9.3137 C.ar    1  UNL1       -0.0117
     10 C         -31.3713   45.8285   -8.5028 C.3     1  UNL1        0.1158
     11 N         -31.5388   45.1593   -7.3353 N.3     1  UNL1       -0.2851
     12 C         -31.2443   46.0784   -6.4063 C.3     1  UNL1        0.0910
     13 C         -31.2409   45.8973   -5.0329 C.3     1  UNL1        0.1018
     14 C         -30.8671   46.9897   -4.2397 C.3     1  UNL1        0.3136
     15 N         -30.5120   48.1928   -4.8092 N.am    1  UNL1       -0.1293
     16 C         -30.5164   48.3513   -6.1800 C.2     1  UNL1        0.4047
     17 O         -30.1683   49.4475   -6.6920 O.2     1  UNL1       -0.2174
     18 C         -30.9063   47.2640   -6.9844 C.3     1  UNL1        0.2038
     19 N         -30.9970   47.1373   -8.3325 N.3     1  UNL1       -0.2473
     20 H         -30.9033   44.3637   -7.2761 H       1  UNL1        0.1244
     21 C         -30.3408   45.2356  -10.6944 C.3     1  UNL1        0.0029
     22 C         -31.5833   45.1293   -9.8186 C.3     1  UNL1        0.0326
     23 C         -30.0894   49.2973   -3.9300 C.3     1  UNL1        0.3404
     24 C         -29.0023   50.1178   -4.5929 C.ar    1  UNL1        0.0640
     25 C         -27.7075   49.5743   -4.6754 C.ar    1  UNL1        0.0031
     26 C         -26.6755   50.2824   -5.2946 C.ar    1  UNL1       -0.0001
     27 C         -26.9203   51.5429   -5.8386 C.ar    1  UNL1        0.0007
     28 C         -28.1974   52.1015   -5.7626 C.ar    1  UNL1        0.0102
     29 C         -29.2431   51.4015   -5.1434 C.ar    1  UNL1        0.0710
     30 C         -30.5413   52.0289   -5.0806 C.1     1  UNL1        0.1003
     31 N         -31.5826   52.5315   -5.0313 N.1     1  UNL1       -0.1908
     32 C         -25.4895   50.5733   -9.5429 C.ar    1  UNL1        0.0030
     33 C         -24.5996   50.4793   -8.4593 C.ar    1  UNL1       -0.0001
     34 C         -23.3931   51.1791   -8.4633 C.ar    1  UNL1       -0.0018
     35 C         -23.0465   51.9841   -9.5544 C.ar    1  UNL1        0.0074
     36 C         -23.9283   52.0908  -10.6390 C.ar    1  UNL1        0.0012
     37 C         -25.1370   51.3734  -10.6609 C.ar    1  UNL1        0.0369
     38 C         -25.9775   51.4577  -11.8763 C.ar    1  UNL1        0.1805
     39 N         -25.5201   51.2787  -13.1302 N.ar    1  UNL1       -0.1084
     40 N         -26.5924   51.3743  -13.9039 N.ar    1  UNL1       -0.0229
     41 N         -27.6678   51.5888  -13.1613 N.ar    1  UNL1       -0.0464
     42 N         -27.3084   51.6412  -11.8918 N.ar    1  UNL1       -0.2388
     43 H         -27.9604   51.7587  -11.0855 H       1  UNL1        0.1923
     44 C         -21.7708   52.7768   -9.5351 C.3     1  UNL1        0.1687
     45 O         -20.7144   51.9505   -9.9744 O.3     1  UNL1       -0.3463
     46 C         -20.2665   52.3938  -11.2355 C.3     1  UNL1        0.1746
@<TRIPOS>BOND
     1    21    22    1
     2    22    10    1
     3    10    11    1
     4    11    12    1
     5    12    13    1
     6    13    14    1
     7    14    15    1
     8    15    23    1
     9    23    24    1
    10    24    25   ar
    11    25    26   ar
    12    26    27   ar
    13    27    28   ar
    14    28    29   ar
    15    29    30    1
    16    30    31    3
    17    15    16    1
    18    16    17    2
    19    16    18    1
    20    18    19    1
    21    19     1    1
    22     1     2    1
    23     2     3    1
    24     3     4    1
    25     4     5   ar
    26     5     6   ar
    27     6    32    1
    28    32    33   ar
    29    33    34   ar
    30    34    35   ar
    31    35    44    1
    32    44    45    1
    33    45    46    1
    34    35    36   ar
    35    36    37   ar
    36    37    38    1
    37    38    39   ar
    38    39    40   ar
    39    40    41   ar
    40    41    42   ar
    41     6     7   ar
    42     7     8   ar
    43     8     9   ar
    44    19    10    1
    45     9     1    1
    46    18    12    1
    47     9     4   ar
    48    29    24   ar
    49    37    32   ar
    50    42    38   ar
    51    42    43    1
    52    11    20    1
@<TRIPOS>MOLECULE
*****
 46 52 0 0 0
SMALL
GASTEIGER

@<TRIPOS>ATOM
      1 C         -30.1098   50.2221  -11.4013 C.3     1  UNL1        0.0817
      2 C         -30.8042   50.4686  -10.0434 C.3     1  UNL1        0.0252
      3 C         -29.7415   51.0672   -9.0998 C.3     1  UNL1        0.0278
      4 C         -28.4735   50.9536   -9.8622 C.ar    1  UNL1       -0.0248
      5 C         -27.2032   51.3352   -9.4263 C.ar    1  UNL1       -0.0045
      6 C         -26.1091   51.2032  -10.3056 C.ar    1  UNL1       -0.0002
      7 C         -26.3246   50.7067  -11.6115 C.ar    1  UNL1       -0.0003
      8 C         -27.6117   50.3374  -12.0279 C.ar    1  UNL1       -0.0033
      9 C         -28.6700   50.4524  -11.1245 C.ar    1  UNL1       -0.0117
     10 C         -30.7288   47.7295  -11.2659 C.3     1  UNL1        0.1158
     11 N         -30.9462   46.6666  -12.0796 N.3     1  UNL1       -0.2851
     12 C         -30.7472   47.1691  -13.3054 C.3     1  UNL1        0.0910
     13 C         -30.8664   46.4921  -14.5081 C.3     1  UNL1        0.1018
     14 C         -30.6449   47.2219  -15.6831 C.3     1  UNL1        0.3136
     15 N         -30.3273   48.5617  -15.6382 N.am    1  UNL1       -0.1293
     16 C         -30.2189   49.2193  -14.4299 C.2     1  UNL1        0.4047
     17 O         -29.9506   50.4490  -14.4000 O.2     1  UNL1       -0.2174
     18 C         -30.4237   48.4903  -13.2434 C.3     1  UNL1        0.2038
     19 N         -30.3867   48.8731  -11.9420 N.3     1  UNL1       -0.2473
     20 H         -31.8994   46.3181  -11.9782 H       1  UNL1        0.1244
     21 C         -29.7224   46.7938   -9.1855 C.3     1  UNL1        0.0029
     22 C         -30.8799   47.5906   -9.7749 C.3     1  UNL1        0.0326
     23 C         -30.1432   49.2906  -16.9056 C.3     1  UNL1        0.3404
     24 C         -28.6969   49.2250  -17.3509 C.ar    1  UNL1        0.0640
     25 C         -27.8303   50.2661  -16.9718 C.ar    1  UNL1        0.0031
     26 C         -26.4835   50.2421  -17.3401 C.ar    1  UNL1       -0.0001
     27 C         -25.9830   49.1802  -18.0929 C.ar    1  UNL1        0.0007
     28 C         -26.8282   48.1399  -18.4830 C.ar    1  UNL1        0.0102
     29 C         -28.1828   48.1513  -18.1202 C.ar    1  UNL1        0.0710
     30 C         -29.0163   47.0579  -18.5595 C.1     1  UNL1        0.1003
     31 N         -29.6852   46.1811  -18.9105 N.1     1  UNL1       -0.1908
     32 C         -24.7592   51.6498   -9.8866 C.ar    1  UNL1        0.0030
     33 C         -24.0329   52.4775  -10.7598 C.ar    1  UNL1       -0.0001
     34 C         -22.7189   52.8440  -10.4689 C.ar    1  UNL1       -0.0018
     35 C         -22.1035   52.3956   -9.2946 C.ar    1  UNL1        0.0074
     36 C         -22.8154   51.5647   -8.4181 C.ar    1  UNL1        0.0012
     37 C         -24.1481   51.2058   -8.6850 C.ar    1  UNL1        0.0369
     38 C         -24.8716   50.4036   -7.6731 C.ar    1  UNL1        0.1805
     39 N         -25.4932   50.9209   -6.5963 N.ar    1  UNL1       -0.1084
     40 N         -26.0598   49.8836   -5.9957 N.ar    1  UNL1       -0.0229
     41 N         -25.8122   48.7757   -6.6777 N.ar    1  UNL1       -0.0464
     42 N         -25.0747   49.0768   -7.7308 N.ar    1  UNL1       -0.2388
     43 H         -24.7673   48.4008   -8.4640 H       1  UNL1        0.1923
     44 C         -20.6722   52.7492   -9.0076 C.3     1  UNL1        0.1687
     45 O         -20.2953   52.1628   -7.7805 O.3     1  UNL1       -0.3463
     46 C         -18.9049   51.9298   -7.7804 C.3     1  UNL1        0.1746
@<TRIPOS>BOND
     1    21    22    1
     2    22    10    1
     3    10    11    1
     4    11    12    1
     5    12    13    1
     6    13    14    1
     7    14    15    1
     8    15    23    1
     9    23    24    1
    10    24    25   ar
    11    25    26   ar
    12    26    27   ar
    13    27    28   ar
    14    28    29   ar
    15    29    30    1
    16    30    31    3
    17    15    16    1
    18    16    17    2
    19    16    18    1
    20    18    19    1
    21    19     1    1
    22     1     2    1
    23     2     3    1
    24     3     4    1
    25     4     5   ar
    26     5     6   ar
    27     6    32    1
    28    32    33   ar
    29    33    34   ar
    30    34    35   ar
    31    35    44    1
    32    44    45    1
    33    45    46    1
    34    35    36   ar
    35    36    37   ar
    36    37    38    1
    37    38    39   ar
    38    39    40   ar
    39    40    41   ar
    40    41    42   ar
    41     6     7   ar
    42     7     8   ar
    43     8     9   ar
    44    19    10    1
    45     9     1    1
    46    18    12    1
    47     9     4   ar
    48    29    24   ar
    49    37    32   ar
    50    42    38   ar
    51    42    43    1
    52    11    20    1
@<TRIPOS>MOLECULE
*****
 46 52 0 0 0
SMALL
GASTEIGER

@<TRIPOS>ATOM
      1 C         -26.2406   51.0189   -7.2515 C.3     1  UNL1        0.0817
      2 C         -26.8893   52.2463   -6.5736 C.3     1  UNL1        0.0252
      3 C         -27.7700   51.7104   -5.4268 C.3     1  UNL1        0.0278
      4 C         -27.7549   50.2384   -5.6145 C.ar    1  UNL1       -0.0248
      5 C         -28.4315   49.2937   -4.8407 C.ar    1  UNL1       -0.0045
      6 C         -28.2631   47.9242   -5.1300 C.ar    1  UNL1       -0.0002
      7 C         -27.4009   47.5381   -6.1815 C.ar    1  UNL1       -0.0003
      8 C         -26.7264   48.5063   -6.9391 C.ar    1  UNL1       -0.0033
      9 C         -26.9364   49.8554   -6.6473 C.ar    1  UNL1       -0.0117
     10 C         -25.3649   51.2216   -9.6612 C.3     1  UNL1        0.1158
     11 N         -25.8172   51.1773  -10.9388 N.3     1  UNL1       -0.2851
     12 C         -27.1323   50.9662  -10.7948 C.3     1  UNL1        0.0910
     13 C         -28.0642   50.8192  -11.8092 C.3     1  UNL1        0.1018
     14 C         -29.3909   50.5706  -11.4344 C.3     1  UNL1        0.3136
     15 N         -29.7477   50.4711  -10.1075 N.am    1  UNL1       -0.1293
     16 C         -28.8031   50.6150   -9.1119 C.2     1  UNL1        0.4047
     17 O         -29.1346   50.4997   -7.9028 O.2     1  UNL1       -0.2174
     18 C         -27.4704   50.8812   -9.4785 C.3     1  UNL1        0.2038
     19 N         -26.3554   51.0601   -8.7259 N.3     1  UNL1       -0.2473
     20 H         -25.3793   50.4143  -11.4549 H       1  UNL1        0.1244
     21 C         -23.2494   52.2681  -10.4649 C.3     1  UNL1        0.0029
     22 C         -23.9001   51.4205   -9.3784 C.3     1  UNL1        0.0326
     23 C         -31.1500   50.1694   -9.7700 C.3     1  UNL1        0.3404
     24 C         -31.3066   48.7069   -9.4084 C.ar    1  UNL1        0.0640
     25 C         -31.2838   47.7538  -10.4428 C.ar    1  UNL1        0.0031
     26 C         -31.4039   46.3917  -10.1596 C.ar    1  UNL1       -0.0001
     27 C         -31.5502   45.9616   -8.8411 C.ar    1  UNL1        0.0007
     28 C         -31.5800   46.8922   -7.8011 C.ar    1  UNL1        0.0102
     29 C         -31.4605   48.2632   -8.0711 C.ar    1  UNL1        0.0710
     30 C         -31.5099   49.1844   -6.9611 C.1     1  UNL1        0.1003
     31 N         -31.5485   49.9237   -6.0716 N.1     1  UNL1       -0.1908
     32 C         -28.9284   46.8989   -4.2911 C.ar    1  UNL1        0.0030
     33 C         -30.3031   46.6764   -4.4800 C.ar    1  UNL1       -0.0001
     34 C         -31.0055   45.8016   -3.6513 C.ar    1  UNL1       -0.0018
     35 C         -30.3471   45.1247   -2.6183 C.ar    1  UNL1        0.0074
     36 C         -28.9771   45.3424   -2.4158 C.ar    1  UNL1        0.0012
     37 C         -28.2501   46.2024   -3.2571 C.ar    1  UNL1        0.0369
     38 C         -26.7892   46.3152   -3.0467 C.ar    1  UNL1        0.1805
     39 N         -25.9083   45.3258   -3.2884 N.ar    1  UNL1       -0.1084
     40 N         -24.7195   45.8545   -3.0336 N.ar    1  UNL1       -0.0229
     41 N         -24.8571   47.1189   -2.6643 N.ar    1  UNL1       -0.0464
     42 N         -26.1405   47.4293   -2.6685 N.ar    1  UNL1       -0.2388
     43 H         -26.5327   48.3732   -2.4579 H       1  UNL1        0.1923
     44 C         -31.1147   44.2222   -1.6950 C.3     1  UNL1        0.1687
     45 O         -31.5649   44.9767   -0.5906 O.3     1  UNL1       -0.3463
     46 C         -31.5825   44.1601    0.5585 C.3     1  UNL1        0.1746
@<TRIPOS>BOND
     1    21    22    1
     2    22    10    1
     3    10    11    1
     4    11    12    1
     5    12    13    1
     6    13    14    1
     7    14    15    1
     8    15    23    1
     9    23    24    1
    10    24    25   ar
    11    25    26   ar
    12    26    27   ar
    13    27    28   ar
    14    28    29   ar
    15    29    30    1
    16    30    31    3
    17    15    16    1
    18    16    17    2
    19    16    18    1
    20    18    19    1
    21    19     1    1
    22     1     2    1
    23     2     3    1
    24     3     4    1
    25     4     5   ar
    26     5     6   ar
    27     6    32    1
    28    32    33   ar
    29    33    34   ar
    30    34    35   ar
    31    35    44    1
    32    44    45    1
    33    45    46    1
    34    35    36   ar
    35    36    37   ar
    36    37    38    1
    37    38    39   ar
    38    39    40   ar
    39    40    41   ar
    40    41    42   ar
    41     6     7   ar
    42     7     8   ar
    43     8     9   ar
    44    19    10    1
    45     9     1    1
    46    18    12    1
    47     9     4   ar
    48    29    24   ar
    49    37    32   ar
    50    42    38   ar
    51    42    43    1
    52    11    20    1
@<TRIPOS>MOLECULE
*****
 46 52 0 0 0
SMALL
GASTEIGER

@<TRIPOS>ATOM
      1 C         -30.6987   48.0550   -9.7487 C.3     1  UNL1        0.0817
      2 C         -31.5135   49.1236   -8.9865 C.3     1  UNL1        0.0252
      3 C         -30.5757   50.3277   -8.7656 C.3     1  UNL1        0.0278
      4 C         -29.2471   49.8399   -9.2117 C.ar    1  UNL1       -0.0248
      5 C         -28.0470   50.5529   -9.1857 C.ar    1  UNL1       -0.0045
      6 C         -26.8809   49.9498   -9.6994 C.ar    1  UNL1       -0.0002
      7 C         -26.9558   48.6478  -10.2449 C.ar    1  UNL1       -0.0003
      8 C         -28.1751   47.9555  -10.2663 C.ar    1  UNL1       -0.0033
      9 C         -29.3063   48.5681   -9.7236 C.ar    1  UNL1       -0.0117
     10 C         -31.1991   45.5323   -9.7506 C.3     1  UNL1        0.1158
     11 N         -31.1838   44.4687   -8.9094 N.3     1  UNL1       -0.2851
     12 C         -30.7772   44.9982   -7.7479 C.3     1  UNL1        0.0910
     13 C         -30.5729   44.3232   -6.5556 C.3     1  UNL1        0.1018
     14 C         -30.1108   45.0692   -5.4637 C.3     1  UNL1        0.3136
     15 N         -29.8651   46.4198   -5.5789 N.am    1  UNL1       -0.1293
     16 C         -30.0696   47.0729   -6.7772 C.2     1  UNL1        0.4047
     17 O         -29.8205   48.3027   -6.8788 O.2     1  UNL1       -0.2174
     18 C         -30.5493   46.3346   -7.8755 C.3     1  UNL1        0.2038
     19 N         -30.8303   46.7088   -9.1493 N.3     1  UNL1       -0.2473
     20 H         -30.5306   43.7558   -9.2341 H       1  UNL1        0.1244
     21 C         -30.4884   45.8794  -12.1151 C.3     1  UNL1        0.0029
     22 C         -31.5840   45.3553  -11.1949 C.3     1  UNL1        0.0326
     23 C         -29.3426   47.1487   -4.4096 C.3     1  UNL1        0.3404
     24 C         -28.0983   46.4713   -3.8738 C.ar    1  UNL1        0.0640
     25 C         -28.1849   45.7771   -2.6534 C.ar    1  UNL1        0.0031
     26 C         -27.0714   45.1191   -2.1272 C.ar    1  UNL1       -0.0001
     27 C         -25.8557   45.1457   -2.8101 C.ar    1  UNL1        0.0007
     28 C         -25.7483   45.8332   -4.0203 C.ar    1  UNL1        0.0102
     29 C         -26.8585   46.4985   -4.5603 C.ar    1  UNL1        0.0710
     30 C         -26.6909   47.2046   -5.8078 C.1     1  UNL1        0.1003
     31 N         -26.5576   47.7714   -6.8079 N.1     1  UNL1       -0.1908
     32 C         -25.6051   50.7040   -9.7319 C.ar    1  UNL1        0.0030
     33 C         -24.9174   50.7927  -10.9543 C.ar    1  UNL1       -0.0001
     34 C         -23.6627   51.3979  -11.0255 C.ar    1  UNL1       -0.0018
     35 C         -23.0702   51.9338   -9.8763 C.ar    1  UNL1        0.0074
     36 C         -23.7435   51.8465   -8.6498 C.ar    1  UNL1        0.0012
     37 C         -25.0188   51.2610   -8.5657 C.ar    1  UNL1        0.0369
     38 C         -25.7137   51.2852   -7.2589 C.ar    1  UNL1        0.1805
     39 N         -26.7151   52.1297   -6.9466 N.ar    1  UNL1       -0.1084
     40 N         -27.0909   51.7796   -5.7244 N.ar    1  UNL1       -0.0229
     41 N         -26.3644   50.7552   -5.3042 N.ar    1  UNL1       -0.0464
     42 N         -25.5002   50.4274   -6.2472 N.ar    1  UNL1       -0.2388
     43 H         -24.8309   49.6281   -6.1995 H       1  UNL1        0.1923
     44 C         -21.6974   52.5396   -9.9448 C.3     1  UNL1        0.1687
     45 O         -20.9837   51.9325  -11.0001 O.3     1  UNL1       -0.3463
     46 C         -19.9531   52.7953  -11.4255 C.3     1  UNL1        0.1746
@<TRIPOS>BOND
     1    21    22    1
     2    22    10    1
     3    10    11    1
     4    11    12    1
     5    12    13    1
     6    13    14    1
     7    14    15    1
     8    15    23    1
     9    23    24    1
    10    24    25   ar
    11    25    26   ar
    12    26    27   ar
    13    27    28   ar
    14    28    29   ar
    15    29    30    1
    16    30    31    3
    17    15    16    1
    18    16    17    2
    19    16    18    1
    20    18    19    1
    21    19     1    1
    22     1     2    1
    23     2     3    1
    24     3     4    1
    25     4     5   ar
    26     5     6   ar
    27     6    32    1
    28    32    33   ar
    29    33    34   ar
    30    34    35   ar
    31    35    44    1
    32    44    45    1
    33    45    46    1
    34    35    36   ar
    35    36    37   ar
    36    37    38    1
    37    38    39   ar
    38    39    40   ar
    39    40    41   ar
    40    41    42   ar
    41     6     7   ar
    42     7     8   ar
    43     8     9   ar
    44    19    10    1
    45     9     1    1
    46    18    12    1
    47     9     4   ar
    48    29    24   ar
    49    37    32   ar
    50    42    38   ar
    51    42    43    1
    52    11    20    1
@<TRIPOS>MOLECULE
*****
 46 52 0 0 0
SMALL
GASTEIGER

@<TRIPOS>ATOM
      1 C         -27.0882   48.1484   -5.3095 C.3     1  UNL1        0.0817
      2 C         -27.1271   46.8462   -6.1400 C.3     1  UNL1        0.0252
      3 C         -26.1918   47.0578   -7.3477 C.3     1  UNL1        0.0278
      4 C         -25.8260   48.4942   -7.2765 C.ar    1  UNL1       -0.0248
      5 C         -25.0114   49.1910   -8.1710 C.ar    1  UNL1       -0.0045
      6 C         -24.7250   50.5486   -7.9216 C.ar    1  UNL1       -0.0002
      7 C         -25.2518   51.1677   -6.7651 C.ar    1  UNL1       -0.0003
      8 C         -26.0613   50.4438   -5.8778 C.ar    1  UNL1       -0.0033
      9 C         -26.3508   49.1090   -6.1675 C.ar    1  UNL1       -0.0117
     10 C         -29.0278   48.6575   -3.6992 C.3     1  UNL1        0.1158
     11 N         -30.2748   49.1904   -3.7094 N.3     1  UNL1       -0.2851
     12 C         -30.4636   49.5126   -4.9959 C.3     1  UNL1        0.0910
     13 C         -31.5840   50.1157   -5.5435 C.3     1  UNL1        0.1018
     14 C         -31.5589   50.3966   -6.9157 C.3     1  UNL1        0.3136
     15 N         -30.4578   50.0883   -7.6841 N.am    1  UNL1       -0.1293
     16 C         -29.3490   49.4927   -7.1183 C.2     1  UNL1        0.4047
     17 O         -28.3387   49.2355   -7.8241 O.2     1  UNL1       -0.2174
     18 C         -29.3715   49.1919   -5.7434 C.3     1  UNL1        0.2038
     19 N         -28.4392   48.6233   -4.9379 N.3     1  UNL1       -0.2473
     20 H         -30.3232   50.0178   -3.1148 H       1  UNL1        0.1244
     21 C         -29.4664   48.0803   -1.3137 C.3     1  UNL1        0.0029
     22 C         -28.4131   48.1826   -2.4101 C.3     1  UNL1        0.0326
     23 C         -30.4690   50.4411   -9.1147 C.3     1  UNL1        0.3404
     24 C         -30.8436   49.2383   -9.9557 C.ar    1  UNL1        0.0640
     25 C         -31.0894   48.0154   -9.3055 C.ar    1  UNL1        0.0031
     26 C         -31.4575   46.8824  -10.0339 C.ar    1  UNL1       -0.0001
     27 C         -31.5840   46.9530  -11.4209 C.ar    1  UNL1        0.0007
     28 C         -31.3396   48.1563  -12.0851 C.ar    1  UNL1        0.0102
     29 C         -30.9691   49.3019  -11.3661 C.ar    1  UNL1        0.0710
     30 C         -30.7159   50.5175  -12.1019 C.1     1  UNL1        0.1003
     31 N         -30.5130   51.4928  -12.6908 N.1     1  UNL1       -0.1908
     32 C         -23.8207   51.2972   -8.8267 C.ar    1  UNL1        0.0030
     33 C         -22.4655   51.4052   -8.4706 C.ar    1  UNL1       -0.0001
     34 C         -21.5885   52.1838   -9.2257 C.ar    1  UNL1       -0.0018
     35 C         -22.0462   52.8673  -10.3581 C.ar    1  UNL1        0.0074
     36 C         -23.3971   52.7722  -10.7206 C.ar    1  UNL1        0.0012
     37 C         -24.2883   51.9728   -9.9839 C.ar    1  UNL1        0.0369
     38 C         -25.6786   51.8421  -10.4748 C.ar    1  UNL1        0.1805
     39 N         -26.7562   52.3535   -9.8498 N.ar    1  UNL1       -0.1084
     40 N         -27.7800   52.0701  -10.6430 N.ar    1  UNL1       -0.0229
     41 N         -27.3537   51.4246  -11.7179 N.ar    1  UNL1       -0.0464
     42 N         -26.0444   51.2739  -11.6361 N.ar    1  UNL1       -0.2388
     43 H         -25.4416   50.8358  -12.3667 H       1  UNL1        0.1923
     44 C         -21.1124   53.7457  -11.1408 C.3     1  UNL1        0.1687
     45 O         -20.0011   54.0644  -10.3314 O.3     1  UNL1       -0.3463
     46 C         -20.2486   55.2747   -9.6519 C.3     1  UNL1        0.1746
@<TRIPOS>BOND
     1    21    22    1
     2    22    10    1
     3    10    11    1
     4    11    12    1
     5    12    13    1
     6    13    14    1
     7    14    15    1
     8    15    23    1
     9    23    24    1
    10    24    25   ar
    11    25    26   ar
    12    26    27   ar
    13    27    28   ar
    14    28    29   ar
    15    29    30    1
    16    30    31    3
    17    15    16    1
    18    16    17    2
    19    16    18    1
    20    18    19    1
    21    19     1    1
    22     1     2    1
    23     2     3    1
    24     3     4    1
    25     4     5   ar
    26     5     6   ar
    27     6    32    1
    28    32    33   ar
    29    33    34   ar
    30    34    35   ar
    31    35    44    1
    32    44    45    1
    33    45    46    1
    34    35    36   ar
    35    36    37   ar
    36    37    38    1
    37    38    39   ar
    38    39    40   ar
    39    40    41   ar
    40    41    42   ar
    41     6     7   ar
    42     7     8   ar
    43     8     9   ar
    44    19    10    1
    45     9     1    1
    46    18    12    1
    47     9     4   ar
    48    29    24   ar
    49    37    32   ar
    50    42    38   ar
    51    42    43    1
    52    11    20    1
@<TRIPOS>MOLECULE
*****
 46 52 0 0 0
SMALL
GASTEIGER

@<TRIPOS>ATOM
      1 C         -27.4711   51.2379   -9.6721 C.3     1  UNL1        0.0817
      2 C         -27.4985   51.7162   -8.2033 C.3     1  UNL1        0.0252
      3 C         -26.0771   52.2110   -7.8675 C.3     1  UNL1        0.0278
      4 C         -25.2680   51.8206   -9.0487 C.ar    1  UNL1       -0.0248
      5 C         -23.8975   52.0226   -9.2225 C.ar    1  UNL1       -0.0045
      6 C         -23.2964   51.6327  -10.4366 C.ar    1  UNL1       -0.0002
      7 C         -24.0951   51.0649  -11.4553 C.ar    1  UNL1       -0.0003
      8 C         -25.4712   50.8796  -11.2591 C.ar    1  UNL1       -0.0033
      9 C         -26.0320   51.2489  -10.0350 C.ar    1  UNL1       -0.0117
     10 C         -28.0682   48.8259   -9.0089 C.3     1  UNL1        0.1158
     11 N         -28.7888   47.7708   -9.4634 N.3     1  UNL1       -0.2851
     12 C         -29.3011   48.2195  -10.6171 C.3     1  UNL1        0.0910
     13 C         -30.1402   47.5284  -11.4758 C.3     1  UNL1        0.1018
     14 C         -30.5891   48.2022  -12.6189 C.3     1  UNL1        0.3136
     15 N         -30.2124   49.5032  -12.8708 N.am    1  UNL1       -0.1293
     16 C         -29.3802   50.1762  -11.9998 C.2     1  UNL1        0.4047
     17 O         -29.0598   51.3724  -12.2268 O.2     1  UNL1       -0.2174
     18 C         -28.9109   49.5018  -10.8569 C.3     1  UNL1        0.2038
     19 N         -28.1020   49.9112   -9.8472 N.3     1  UNL1       -0.2473
     20 H         -29.5291   47.5242   -8.8066 H       1  UNL1        0.1244
     21 C         -25.9875   48.0573   -7.8701 C.3     1  UNL1        0.0029
     22 C         -27.3385   48.7403   -7.6953 C.3     1  UNL1        0.0326
     23 C         -30.7452   50.1775  -14.0678 C.3     1  UNL1        0.3404
     24 C         -30.5398   49.3176  -15.2977 C.ar    1  UNL1        0.0640
     25 C         -31.5831   48.4651  -15.7021 C.ar    1  UNL1        0.0031
     26 C         -31.4508   47.6673  -16.8405 C.ar    1  UNL1       -0.0001
     27 C         -30.2756   47.7076  -17.5903 C.ar    1  UNL1        0.0007
     28 C         -29.2270   48.5436  -17.2026 C.ar    1  UNL1        0.0102
     29 C         -29.3463   49.3500  -16.0614 C.ar    1  UNL1        0.0710
     30 C         -28.2283   50.1870  -15.6972 C.1     1  UNL1        0.1003
     31 N         -27.3321   50.8580  -15.4038 N.1     1  UNL1       -0.1908
     32 C         -21.8537   51.8837  -10.6673 C.ar    1  UNL1        0.0030
     33 C         -21.0233   50.7828  -10.9381 C.ar    1  UNL1       -0.0001
     34 C         -19.6430   50.9422  -11.0599 C.ar    1  UNL1       -0.0018
     35 C         -19.0626   52.2080  -10.9195 C.ar    1  UNL1        0.0074
     36 C         -19.8795   53.3134  -10.6435 C.ar    1  UNL1        0.0012
     37 C         -21.2745   53.1733  -10.5414 C.ar    1  UNL1        0.0369
     38 C         -22.0865   54.3947  -10.3417 C.ar    1  UNL1        0.1805
     39 N         -21.6008   55.5627   -9.8800 N.ar    1  UNL1       -0.1084
     40 N         -22.6288   56.3993   -9.9133 N.ar    1  UNL1       -0.0229
     41 N         -23.6995   55.7809  -10.3878 N.ar    1  UNL1       -0.0464
     42 N         -23.3836   54.5292  -10.6652 N.ar    1  UNL1       -0.2388
     43 H         -24.0264   53.8259  -11.0910 H       1  UNL1        0.1923
     44 C         -17.5715   52.3702  -11.0003 C.3     1  UNL1        0.1687
     45 O         -16.9582   51.2356  -10.4274 O.3     1  UNL1       -0.3463
     46 C         -16.3139   51.6064   -9.2295 C.3     1  UNL1        0.1746
@<TRIPOS>BOND
     1    21    22    1
     2    22    10    1
     3    10    11    1
     4    11    12    1
     5    12    13    1
     6    13    14    1
     7    14    15    1
     8    15    23    1
     9    23    24    1
    10    24    25   ar
    11    25    26   ar
    12    26    27   ar
    13    27    28   ar
    14    28    29   ar
    15    29    30    1
    16    30    31    3
    17    15    16    1
    18    16    17    2
    19    16    18    1
    20    18    19    1
    21    19     1    1
    22     1     2    1
    23     2     3    1
    24     3     4    1
    25     4     5   ar
    26     5     6   ar
    27     6    32    1
    28    32    33   ar
    29    33    34   ar
    30    34    35   ar
    31    35    44    1
    32    44    45    1
    33    45    46    1
    34    35    36   ar
    35    36    37   ar
    36    37    38    1
    37    38    39   ar
    38    39    40   ar
    39    40    41   ar
    40    41    42   ar
    41     6     7   ar
    42     7     8   ar
    43     8     9   ar
    44    19    10    1
    45     9     1    1
    46    18    12    1
    47     9     4   ar
    48    29    24   ar
    49    37    32   ar
    50    42    38   ar
    51    42    43    1
    52    11    20    1
@<TRIPOS>MOLECULE
*****
 46 52 0 0 0
SMALL
GASTEIGER

@<TRIPOS>ATOM
      1 C         -27.9834   50.4563  -10.0846 C.3     1  UNL1        0.0817
      2 C         -28.6510   51.2959   -8.9728 C.3     1  UNL1        0.0252
      3 C         -27.5463   52.1740   -8.3512 C.3     1  UNL1        0.0278
      4 C         -26.2934   51.6730   -8.9688 C.ar    1  UNL1       -0.0248
      5 C         -24.9987   52.1274   -8.7110 C.ar    1  UNL1       -0.0045
      6 C         -23.9216   51.5705   -9.4301 C.ar    1  UNL1       -0.0002
      7 C         -24.1771   50.5809  -10.4066 C.ar    1  UNL1       -0.0003
      8 C         -25.4877   50.1468  -10.6523 C.ar    1  UNL1       -0.0033
      9 C         -26.5300   50.6964   -9.9034 C.ar    1  UNL1       -0.0117
     10 C         -28.0161   48.1033   -9.0470 C.3     1  UNL1        0.1158
     11 N         -28.5487   46.8762   -9.2697 N.3     1  UNL1       -0.2851
     12 C         -29.2478   47.0424  -10.4003 C.3     1  UNL1        0.0910
     13 C         -30.0075   46.0856  -11.0534 C.3     1  UNL1        0.1018
     14 C         -30.6892   46.4837  -12.2106 C.3     1  UNL1        0.3136
     15 N         -30.6082   47.7790  -12.6728 N.am    1  UNL1       -0.1293
     16 C         -29.8504   48.7188  -12.0045 C.2     1  UNL1        0.4047
     17 O         -29.8009   49.9056  -12.4218 O.2     1  UNL1       -0.2174
     18 C         -29.1488   48.3239  -10.8499 C.3     1  UNL1        0.2038
     19 N         -28.3473   49.0243  -10.0082 N.3     1  UNL1       -0.2473
     20 H         -29.1586   46.5979   -8.5009 H       1  UNL1        0.1244
     21 C         -25.8864   47.5244   -7.8868 C.3     1  UNL1        0.0029
     22 C         -27.1633   48.3542   -7.8325 C.3     1  UNL1        0.0326
     23 C         -31.3768   48.1540  -13.8728 C.3     1  UNL1        0.3404
     24 C         -31.0016   47.2678  -15.0425 C.ar    1  UNL1        0.0640
     25 C         -31.5826   45.9896  -15.1293 C.ar    1  UNL1        0.0031
     26 C         -31.2847   45.1425  -16.1987 C.ar    1  UNL1       -0.0001
     27 C         -30.4022   45.5579  -17.1953 C.ar    1  UNL1        0.0007
     28 C         -29.8116   46.8209  -17.1246 C.ar    1  UNL1        0.0102
     29 C         -30.1017   47.6818  -16.0562 C.ar    1  UNL1        0.0710
     30 C         -29.4550   48.9717  -16.0240 C.1     1  UNL1        0.1003
     31 N         -28.9355   50.0055  -15.9977 N.1     1  UNL1       -0.1908
     32 C         -22.5434   52.0718   -9.2135 C.ar    1  UNL1        0.0030
     33 C         -21.8993   51.7435   -8.0084 C.ar    1  UNL1       -0.0001
     34 C         -20.6452   52.2715   -7.7021 C.ar    1  UNL1       -0.0018
     35 C         -20.0041   53.1353   -8.5974 C.ar    1  UNL1        0.0074
     36 C         -20.6387   53.4751   -9.8004 C.ar    1  UNL1        0.0012
     37 C         -21.8918   52.9328  -10.1345 C.ar    1  UNL1        0.0369
     38 C         -22.4630   53.2591  -11.4605 C.ar    1  UNL1        0.1805
     39 N         -21.8351   53.9937  -12.3983 N.ar    1  UNL1       -0.1084
     40 N         -22.6540   53.9923  -13.4409 N.ar    1  UNL1       -0.0229
     41 N         -23.7342   53.2770  -13.1662 N.ar    1  UNL1       -0.0464
     42 N         -23.6353   52.8067  -11.9363 N.ar    1  UNL1       -0.2388
     43 H         -24.3273   52.1764  -11.4749 H       1  UNL1        0.1923
     44 C         -18.6767   53.7431   -8.2437 C.3     1  UNL1        0.1687
     45 O         -18.8047   54.4371   -7.0217 O.3     1  UNL1       -0.3463
     46 C         -18.8631   55.8229   -7.2742 C.3     1  UNL1        0.1746
@<TRIPOS>BOND
     1    21    22    1
     2    22    10    1
     3    10    11    1
     4    11    12    1
     5    12    13    1
     6    13    14    1
     7    14    15    1
     8    15    23    1
     9    23    24    1
    10    24    25   ar
    11    25    26   ar
    12    26    27   ar
    13    27    28   ar
    14    28    29   ar
    15    29    30    1
    16    30    31    3
    17    15    16    1
    18    16    17    2
    19    16    18    1
    20    18    19    1
    21    19     1    1
    22     1     2    1
    23     2     3    1
    24     3     4    1
    25     4     5   ar
    26     5     6   ar
    27     6    32    1
    28    32    33   ar
    29    33    34   ar
    30    34    35   ar
    31    35    44    1
    32    44    45    1
    33    45    46    1
    34    35    36   ar
    35    36    37   ar
    36    37    38    1
    37    38    39   ar
    38    39    40   ar
    39    40    41   ar
    40    41    42   ar
    41     6     7   ar
    42     7     8   ar
    43     8     9   ar
    44    19    10    1
    45     9     1    1
    46    18    12    1
    47     9     4   ar
    48    29    24   ar
    49    37    32   ar
    50    42    38   ar
    51    42    43    1
    52    11    20    1
