@<TRIPOS>MOLECULE
*****
 42 46 0 0 0
SMALL
GASTEIGER

@<TRIPOS>ATOM
      1 C         -61.5713  -43.6616  -29.2905 C.3     1  UNL1        0.2392
      2 O         -60.6625  -43.0052  -28.4000 O.3     1  UNL1       -0.4694
      3 C         -60.8651  -43.0109  -27.0172 C.ar    1  UNL1        0.1723
      4 C         -60.1526  -42.1419  -26.1880 C.ar    1  UNL1        0.0398
      5 C         -60.3929  -42.1395  -24.8101 C.ar    1  UNL1        0.0026
      6 C         -61.3409  -43.0172  -24.2502 C.ar    1  UNL1        0.0233
      7 C         -62.0503  -43.8909  -25.0937 C.ar    1  UNL1        0.0393
      8 C         -61.7967  -43.8991  -26.4680 C.ar    1  UNL1        0.1725
      9 O         -62.4671  -44.7889  -27.3114 O.3     1  UNL1       -0.4679
     10 C         -62.0386  -45.0038  -28.6606 C.3     1  UNL1        0.2305
     11 C         -61.6303  -42.9897  -22.7681 C.3     1  UNL1        0.2223
     12 O         -62.0506  -41.6800  -22.3829 O.3     1  UNL1       -0.4715
     13 C         -62.6614  -41.4237  -21.1497 C.ar    1  UNL1        0.1479
     14 C         -62.7585  -40.1112  -20.7074 C.ar    1  UNL1        0.0772
     15 C         -63.3399  -39.8071  -19.4663 C.ar    1  UNL1        0.1785
     16 C         -63.8438  -40.8587  -18.6536 C.ar    1  UNL1        0.2064
     17 C         -63.7664  -42.2032  -19.1200 C.ar    1  UNL1        0.1811
     18 C         -63.1745  -42.4748  -20.3764 C.ar    1  UNL1        0.1083
     19 C         -63.0977  -43.8469  -20.9498 C.2     1  UNL1        0.2096
     20 O         -63.4117  -44.8575  -20.2638 O.2     1  UNL1       -0.2884
     21 C         -62.7020  -44.0283  -22.3948 C.3     1  UNL1        0.2169
     22 O         -62.1909  -45.3204  -22.6058 O.3     1  UNL1       -0.3739
     23 H         -62.9709  -45.9229  -22.7263 H       1  UNL1        0.2110
     24 O         -63.4244  -38.4756  -19.0280 O.3     1  UNL1       -0.4682
     25 C         -64.5387  -37.6124  -19.2334 C.3     1  UNL1        0.2526
     26 O         -64.4249  -40.6218  -17.3930 O.3     1  UNL1       -0.4654
     27 C         -65.8033  -40.4227  -17.0978 C.3     1  UNL1        0.2528
     28 O         -64.2648  -43.3013  -18.3878 O.3     1  UNL1       -0.4681
     29 C         -65.6219  -43.7095  -18.2529 C.3     1  UNL1        0.2526
     30 C         -63.1609  -45.6410  -29.4468 C.ar    1  UNL1        0.0241
     31 C         -63.9124  -44.8812  -30.3549 C.ar    1  UNL1        0.0026
     32 C         -64.9225  -45.4784  -31.1101 C.ar    1  UNL1        0.0398
     33 C         -65.1916  -46.8537  -30.9799 C.ar    1  UNL1        0.1724
     34 C         -64.4368  -47.6255  -30.0831 C.ar    1  UNL1        0.1722
     35 C         -63.4265  -47.0132  -29.3161 C.ar    1  UNL1        0.0393
     36 O         -66.1960  -47.4902  -31.7264 O.3     1  UNL1       -0.4684
     37 C         -66.0389  -47.9459  -33.0662 C.3     1  UNL1        0.2526
     38 O         -64.7161  -48.9980  -29.9864 O.3     1  UNL1       -0.4684
     39 C         -64.3793  -49.8131  -28.8685 C.3     1  UNL1        0.2526
     40 C         -60.8821  -43.8536  -30.6487 C.3     1  UNL1        0.1897
     41 C         -58.9882  -44.7122  -31.6430 C.3     1  UNL1        0.1743
     42 O         -59.8471  -44.8078  -30.5299 O.3     1  UNL1       -0.3471
@<TRIPOS>BOND
     1    41    42    1
     2    42    40    1
     3    40     1    1
     4     1     2    1
     5     2     3    1
     6     3     4   ar
     7     4     5   ar
     8     5     6   ar
     9     6    11    1
    10    11    12    1
    11    12    13    1
    12    13    14   ar
    13    14    15   ar
    14    15    24    1
    15    24    25    1
    16    15    16   ar
    17    16    26    1
    18    26    27    1
    19    16    17   ar
    20    17    28    1
    21    28    29    1
    22    17    18   ar
    23    18    19    1
    24    19    20    2
    25    19    21    1
    26    21    22    1
    27     6     7   ar
    28     7     8   ar
    29     8     9    1
    30     9    10    1
    31    10    30    1
    32    30    31   ar
    33    31    32   ar
    34    32    33   ar
    35    33    36    1
    36    36    37    1
    37    33    34   ar
    38    34    38    1
    39    38    39    1
    40    34    35   ar
    41    10     1    1
    42    35    30   ar
    43     8     3   ar
    44    21    11    1
    45    18    13   ar
    46    22    23    1
@<TRIPOS>MOLECULE
*****
 42 46 0 0 0
SMALL
GASTEIGER

@<TRIPOS>ATOM
      1 C         -60.8269  -45.4409  -27.0671 C.3     1  UNL1        0.2392
      2 O         -60.1671  -45.5093  -25.7983 O.3     1  UNL1       -0.4694
      3 C         -60.6493  -44.8115  -24.6874 C.ar    1  UNL1        0.1723
      4 C         -59.8580  -44.6489  -23.5483 C.ar    1  UNL1        0.0398
      5 C         -60.3458  -43.9193  -22.4592 C.ar    1  UNL1        0.0026
      6 C         -61.6361  -43.3570  -22.4981 C.ar    1  UNL1        0.0233
      7 C         -62.4263  -43.5299  -23.6487 C.ar    1  UNL1        0.0393
      8 C         -61.9396  -44.2713  -24.7288 C.ar    1  UNL1        0.1725
      9 O         -62.7294  -44.4827  -25.8619 O.3     1  UNL1       -0.4679
     10 C         -62.3667  -45.4495  -26.8538 C.3     1  UNL1        0.2305
     11 C         -62.1503  -42.5362  -21.3393 C.3     1  UNL1        0.2223
     12 O         -62.0774  -41.1467  -21.6624 O.3     1  UNL1       -0.4715
     13 C         -62.7457  -40.1697  -20.9153 C.ar    1  UNL1        0.1479
     14 C         -62.3909  -38.8375  -21.0803 C.ar    1  UNL1        0.0772
     15 C         -63.0151  -37.8248  -20.3350 C.ar    1  UNL1        0.1785
     16 C         -64.0315  -38.1680  -19.4026 C.ar    1  UNL1        0.2064
     17 C         -64.4125  -39.5331  -19.2524 C.ar    1  UNL1        0.1811
     18 C         -63.7631  -40.5291  -20.0199 C.ar    1  UNL1        0.1083
     19 C         -64.1365  -41.9690  -19.9508 C.2     1  UNL1        0.2096
     20 O         -64.9430  -42.3910  -19.0779 O.2     1  UNL1       -0.2884
     21 C         -63.5942  -42.9285  -20.9817 C.3     1  UNL1        0.2169
     22 O         -63.6096  -44.2433  -20.4852 O.3     1  UNL1       -0.3739
     23 H         -64.5295  -44.5918  -20.6203 H       1  UNL1        0.2110
     24 O         -62.6407  -36.4822  -20.5066 O.3     1  UNL1       -0.4682
     25 C         -61.4179  -36.0383  -21.0869 C.3     1  UNL1        0.2526
     26 O         -64.6857  -37.2018  -18.6143 O.3     1  UNL1       -0.4654
     27 C         -65.2329  -35.9595  -19.0432 C.3     1  UNL1        0.2528
     28 O         -65.4280  -39.9556  -18.3689 O.3     1  UNL1       -0.4681
     29 C         -65.2873  -40.3347  -17.0040 C.3     1  UNL1        0.2526
     30 C         -63.1196  -45.1619  -28.1321 C.ar    1  UNL1        0.0241
     31 C         -63.8304  -46.1811  -28.7823 C.ar    1  UNL1        0.0026
     32 C         -64.5582  -45.9068  -29.9409 C.ar    1  UNL1        0.0398
     33 C         -64.5992  -44.6011  -30.4648 C.ar    1  UNL1        0.1724
     34 C         -63.9015  -43.5716  -29.8145 C.ar    1  UNL1        0.1722
     35 C         -63.1600  -43.8585  -28.6520 C.ar    1  UNL1        0.0393
     36 O         -65.3245  -44.2863  -31.6249 O.3     1  UNL1       -0.4684
     37 C         -65.6871  -45.2278  -32.6297 C.3     1  UNL1        0.2526
     38 O         -63.9740  -42.2758  -30.3503 O.3     1  UNL1       -0.4684
     39 C         -64.7859  -41.2302  -29.8258 C.3     1  UNL1        0.2526
     40 C         -60.3438  -46.6075  -27.9400 C.3     1  UNL1        0.1897
     41 C         -59.6610  -44.9959  -29.4397 C.3     1  UNL1        0.1743
     42 O         -59.2850  -46.1778  -28.7707 O.3     1  UNL1       -0.3471
@<TRIPOS>BOND
     1    41    42    1
     2    42    40    1
     3    40     1    1
     4     1     2    1
     5     2     3    1
     6     3     4   ar
     7     4     5   ar
     8     5     6   ar
     9     6    11    1
    10    11    12    1
    11    12    13    1
    12    13    14   ar
    13    14    15   ar
    14    15    24    1
    15    24    25    1
    16    15    16   ar
    17    16    26    1
    18    26    27    1
    19    16    17   ar
    20    17    28    1
    21    28    29    1
    22    17    18   ar
    23    18    19    1
    24    19    20    2
    25    19    21    1
    26    21    22    1
    27     6     7   ar
    28     7     8   ar
    29     8     9    1
    30     9    10    1
    31    10    30    1
    32    30    31   ar
    33    31    32   ar
    34    32    33   ar
    35    33    36    1
    36    36    37    1
    37    33    34   ar
    38    34    38    1
    39    38    39    1
    40    34    35   ar
    41    10     1    1
    42    35    30   ar
    43     8     3   ar
    44    21    11    1
    45    18    13   ar
    46    22    23    1
@<TRIPOS>MOLECULE
*****
 42 46 0 0 0
SMALL
GASTEIGER

@<TRIPOS>ATOM
      1 C         -69.5975  -55.6510  -22.5163 C.3     1  UNL1        0.2392
      2 O         -68.7067  -55.8284  -23.6230 O.3     1  UNL1       -0.4694
      3 C         -67.5583  -55.0449  -23.7671 C.ar    1  UNL1        0.1723
      4 C         -66.8583  -55.0204  -24.9753 C.ar    1  UNL1        0.0398
      5 C         -65.7300  -54.2048  -25.1106 C.ar    1  UNL1        0.0026
      6 C         -65.2866  -53.4164  -24.0315 C.ar    1  UNL1        0.0233
      7 C         -65.9966  -53.4515  -22.8179 C.ar    1  UNL1        0.0393
      8 C         -67.1153  -54.2783  -22.6835 C.ar    1  UNL1        0.1725
      9 O         -67.8064  -54.3510  -21.4712 O.3     1  UNL1       -0.4679
     10 C         -68.7755  -55.3760  -21.2258 C.3     1  UNL1        0.2305
     11 C         -64.0918  -52.5058  -24.1870 C.3     1  UNL1        0.2223
     12 O         -64.5115  -51.2440  -24.7087 O.3     1  UNL1       -0.4715
     13 C         -63.6865  -50.1134  -24.6841 C.ar    1  UNL1        0.1479
     14 C         -64.0195  -49.0208  -25.4735 C.ar    1  UNL1        0.0772
     15 C         -63.2095  -47.8746  -25.5013 C.ar    1  UNL1        0.1785
     16 C         -62.0344  -47.8291  -24.7030 C.ar    1  UNL1        0.2064
     17 C         -61.7071  -48.9412  -23.8739 C.ar    1  UNL1        0.1811
     18 C         -62.5459  -50.0810  -23.8692 C.ar    1  UNL1        0.1083
     19 C         -62.2941  -51.2617  -22.9974 C.2     1  UNL1        0.2096
     20 O         -61.2235  -51.3684  -22.3396 O.2     1  UNL1       -0.2884
     21 C         -63.3634  -52.3158  -22.8454 C.3     1  UNL1        0.2169
     22 O         -62.7951  -53.5381  -22.4474 O.3     1  UNL1       -0.3739
     23 H         -62.6756  -53.4935  -21.4627 H       1  UNL1        0.2110
     24 O         -63.5544  -46.7798  -26.3104 O.3     1  UNL1       -0.4682
     25 C         -63.3371  -46.6964  -27.7157 C.3     1  UNL1        0.2526
     26 O         -61.1724  -46.7156  -24.6971 O.3     1  UNL1       -0.4654
     27 C         -61.4273  -45.4254  -24.1520 C.3     1  UNL1        0.2528
     28 O         -60.5744  -48.9670  -23.0333 O.3     1  UNL1       -0.4681
     29 C         -60.3694  -48.2318  -21.8318 C.3     1  UNL1        0.2526
     30 C         -69.6553  -54.9662  -20.0675 C.ar    1  UNL1        0.0241
     31 C         -70.5644  -53.9075  -20.2059 C.ar    1  UNL1        0.0026
     32 C         -71.4048  -53.5548  -19.1492 C.ar    1  UNL1        0.0398
     33 C         -71.3603  -54.2654  -17.9351 C.ar    1  UNL1        0.1724
     34 C         -70.4628  -55.3347  -17.7908 C.ar    1  UNL1        0.1722
     35 C         -69.6099  -55.6774  -18.8579 C.ar    1  UNL1        0.0393
     36 O         -72.1937  -53.9430  -16.8523 O.3     1  UNL1       -0.4684
     37 C         -73.2251  -52.9622  -16.8924 C.3     1  UNL1        0.2526
     38 O         -70.4522  -56.0361  -16.5745 O.3     1  UNL1       -0.4684
     39 C         -69.3240  -56.1378  -15.7118 C.3     1  UNL1        0.2526
     40 C         -70.4908  -56.8935  -22.3954 C.3     1  UNL1        0.1897
     41 C         -72.3281  -55.9813  -23.4466 C.3     1  UNL1        0.1743
     42 O         -71.8380  -56.5008  -22.2319 O.3     1  UNL1       -0.3471
@<TRIPOS>BOND
     1    41    42    1
     2    42    40    1
     3    40     1    1
     4     1     2    1
     5     2     3    1
     6     3     4   ar
     7     4     5   ar
     8     5     6   ar
     9     6    11    1
    10    11    12    1
    11    12    13    1
    12    13    14   ar
    13    14    15   ar
    14    15    24    1
    15    24    25    1
    16    15    16   ar
    17    16    26    1
    18    26    27    1
    19    16    17   ar
    20    17    28    1
    21    28    29    1
    22    17    18   ar
    23    18    19    1
    24    19    20    2
    25    19    21    1
    26    21    22    1
    27     6     7   ar
    28     7     8   ar
    29     8     9    1
    30     9    10    1
    31    10    30    1
    32    30    31   ar
    33    31    32   ar
    34    32    33   ar
    35    33    36    1
    36    36    37    1
    37    33    34   ar
    38    34    38    1
    39    38    39    1
    40    34    35   ar
    41    10     1    1
    42    35    30   ar
    43     8     3   ar
    44    21    11    1
    45    18    13   ar
    46    22    23    1
@<TRIPOS>MOLECULE
*****
 42 46 0 0 0
SMALL
GASTEIGER

@<TRIPOS>ATOM
      1 C         -63.1503  -41.6687  -19.9087 C.3     1  UNL1        0.2392
      2 O         -62.6347  -42.9007  -20.4245 O.3     1  UNL1       -0.4694
      3 C         -62.5481  -43.1359  -21.7995 C.ar    1  UNL1        0.1723
      4 C         -62.3219  -44.4236  -22.2904 C.ar    1  UNL1        0.0398
      5 C         -62.2711  -44.6444  -23.6706 C.ar    1  UNL1        0.0026
      6 C         -62.4342  -43.5738  -24.5704 C.ar    1  UNL1        0.0233
      7 C         -62.6577  -42.2802  -24.0655 C.ar    1  UNL1        0.0393
      8 C         -62.6940  -42.0625  -22.6855 C.ar    1  UNL1        0.1725
      9 O         -62.8770  -40.7763  -22.1712 O.3     1  UNL1       -0.4679
     10 C         -62.6508  -40.4874  -20.7873 C.3     1  UNL1        0.2305
     11 C         -62.4185  -43.8155  -26.0612 C.3     1  UNL1        0.2223
     12 O         -62.9668  -45.1032  -26.3469 O.3     1  UNL1       -0.4715
     13 C         -63.3500  -45.4822  -27.6388 C.ar    1  UNL1        0.1479
     14 C         -63.5754  -46.8259  -27.9061 C.ar    1  UNL1        0.0772
     15 C         -63.9367  -47.2570  -29.1923 C.ar    1  UNL1        0.1785
     16 C         -64.0815  -46.3021  -30.2351 C.ar    1  UNL1        0.2064
     17 C         -63.8745  -44.9204  -29.9534 C.ar    1  UNL1        0.1811
     18 C         -63.5116  -44.5198  -28.6456 C.ar    1  UNL1        0.1083
     19 C         -63.3223  -43.0927  -28.2646 C.2     1  UNL1        0.2096
     20 O         -63.3162  -42.1817  -29.1366 O.2     1  UNL1       -0.2884
     21 C         -63.2020  -42.7215  -26.8068 C.3     1  UNL1        0.2169
     22 O         -62.5338  -41.4931  -26.6662 O.3     1  UNL1       -0.3739
     23 H         -63.2091  -40.7794  -26.8095 H       1  UNL1        0.2110
     24 O         -64.1540  -48.6203  -29.4502 O.3     1  UNL1       -0.4682
     25 C         -64.1089  -49.6581  -28.4755 C.3     1  UNL1        0.2526
     26 O         -64.4272  -46.6710  -31.5493 O.3     1  UNL1       -0.4654
     27 C         -65.6881  -47.1408  -32.0142 C.3     1  UNL1        0.2528
     28 O         -64.0223  -43.9070  -30.9238 O.3     1  UNL1       -0.4681
     29 C         -63.1090  -43.5572  -31.9582 C.3     1  UNL1        0.2526
     30 C         -63.3303  -39.1858  -20.4299 C.ar    1  UNL1        0.0241
     31 C         -64.6546  -39.1791  -19.9687 C.ar    1  UNL1        0.0026
     32 C         -65.2690  -37.9814  -19.6009 C.ar    1  UNL1        0.0398
     33 C         -64.5633  -36.7659  -19.6756 C.ar    1  UNL1        0.1724
     34 C         -63.2334  -36.7634  -20.1240 C.ar    1  UNL1        0.1722
     35 C         -62.6239  -37.9749  -20.5041 C.ar    1  UNL1        0.0393
     36 O         -65.1463  -35.5423  -19.3095 O.3     1  UNL1       -0.4684
     37 C         -64.9385  -34.8918  -18.0600 C.3     1  UNL1        0.2526
     38 O         -62.5489  -35.5385  -20.1723 O.3     1  UNL1       -0.4684
     39 C         -61.3385  -35.3184  -20.8893 C.3     1  UNL1        0.2526
     40 C         -62.7293  -41.5324  -18.4388 C.3     1  UNL1        0.1897
     41 C         -64.8665  -42.2090  -17.9027 C.3     1  UNL1        0.1743
     42 O         -63.8615  -41.2568  -17.6399 O.3     1  UNL1       -0.3471
@<TRIPOS>BOND
     1    41    42    1
     2    42    40    1
     3    40     1    1
     4     1     2    1
     5     2     3    1
     6     3     4   ar
     7     4     5   ar
     8     5     6   ar
     9     6    11    1
    10    11    12    1
    11    12    13    1
    12    13    14   ar
    13    14    15   ar
    14    15    24    1
    15    24    25    1
    16    15    16   ar
    17    16    26    1
    18    26    27    1
    19    16    17   ar
    20    17    28    1
    21    28    29    1
    22    17    18   ar
    23    18    19    1
    24    19    20    2
    25    19    21    1
    26    21    22    1
    27     6     7   ar
    28     7     8   ar
    29     8     9    1
    30     9    10    1
    31    10    30    1
    32    30    31   ar
    33    31    32   ar
    34    32    33   ar
    35    33    36    1
    36    36    37    1
    37    33    34   ar
    38    34    38    1
    39    38    39    1
    40    34    35   ar
    41    10     1    1
    42    35    30   ar
    43     8     3   ar
    44    21    11    1
    45    18    13   ar
    46    22    23    1
@<TRIPOS>MOLECULE
*****
 42 46 0 0 0
SMALL
GASTEIGER

@<TRIPOS>ATOM
      1 C         -60.5352  -45.3459  -27.0880 C.3     1  UNL1        0.2392
      2 O         -60.2829  -45.7576  -25.7402 O.3     1  UNL1       -0.4694
      3 C         -60.7709  -45.0289  -24.6519 C.ar    1  UNL1        0.1723
      4 C         -60.2890  -45.2634  -23.3623 C.ar    1  UNL1        0.0398
      5 C         -60.7659  -44.5013  -22.2908 C.ar    1  UNL1        0.0026
      6 C         -61.7392  -43.5059  -22.5013 C.ar    1  UNL1        0.0233
      7 C         -62.2206  -43.2803  -23.8034 C.ar    1  UNL1        0.0393
      8 C         -61.7509  -44.0537  -24.8686 C.ar    1  UNL1        0.1725
      9 O         -62.2492  -43.8654  -26.1604 O.3     1  UNL1       -0.4679
     10 C         -61.9898  -44.8101  -27.2046 C.3     1  UNL1        0.2305
     11 C         -62.2274  -42.6554  -21.3527 C.3     1  UNL1        0.2223
     12 O         -62.1246  -41.2731  -21.6980 O.3     1  UNL1       -0.4715
     13 C         -62.7657  -40.2694  -20.9626 C.ar    1  UNL1        0.1479
     14 C         -62.3813  -38.9485  -21.1506 C.ar    1  UNL1        0.0772
     15 C         -62.9776  -37.9102  -20.4177 C.ar    1  UNL1        0.1785
     16 C         -63.9959  -38.2153  -19.4742 C.ar    1  UNL1        0.2064
     17 C         -64.4073  -39.5687  -19.3004 C.ar    1  UNL1        0.1811
     18 C         -63.7856  -40.5913  -20.0559 C.ar    1  UNL1        0.1083
     19 C         -64.1916  -42.0209  -19.9619 C.2     1  UNL1        0.2096
     20 O         -65.0022  -42.4106  -19.0779 O.2     1  UNL1       -0.2884
     21 C         -63.6778  -43.0086  -20.9807 C.3     1  UNL1        0.2169
     22 O         -63.7203  -44.3148  -20.4635 O.3     1  UNL1       -0.3739
     23 H         -64.6488  -44.6441  -20.5879 H       1  UNL1        0.2110
     24 O         -62.5734  -36.5795  -20.6127 O.3     1  UNL1       -0.4682
     25 C         -61.3149  -36.1723  -21.1412 C.3     1  UNL1        0.2526
     26 O         -64.6229  -37.2220  -18.6976 O.3     1  UNL1       -0.4654
     27 C         -64.9824  -35.9050  -19.1011 C.3     1  UNL1        0.2528
     28 O         -65.4268  -39.9538  -18.4046 O.3     1  UNL1       -0.4681
     29 C         -65.2855  -40.3234  -17.0371 C.3     1  UNL1        0.2526
     30 C         -62.2511  -44.1604  -28.5437 C.ar    1  UNL1        0.0241
     31 C         -61.2554  -43.3955  -29.1683 C.ar    1  UNL1        0.0026
     32 C         -61.4826  -42.8285  -30.4230 C.ar    1  UNL1        0.0398
     33 C         -62.7092  -43.0279  -31.0839 C.ar    1  UNL1        0.1724
     34 C         -63.7075  -43.8022  -30.4729 C.ar    1  UNL1        0.1722
     35 C         -63.4749  -44.3618  -29.2014 C.ar    1  UNL1        0.0393
     36 O         -62.9719  -42.4779  -32.3486 O.3     1  UNL1       -0.4684
     37 C         -62.5366  -43.0440  -33.5805 C.3     1  UNL1        0.2526
     38 O         -64.9146  -43.9980  -31.1628 O.3     1  UNL1       -0.4684
     39 C         -65.2792  -45.2052  -31.8239 C.3     1  UNL1        0.2526
     40 C         -60.2636  -46.5299  -28.0266 C.3     1  UNL1        0.1897
     41 C         -61.6839  -48.1432  -27.1943 C.3     1  UNL1        0.1743
     42 O         -61.4610  -47.2437  -28.2559 O.3     1  UNL1       -0.3471
@<TRIPOS>BOND
     1    41    42    1
     2    42    40    1
     3    40     1    1
     4     1     2    1
     5     2     3    1
     6     3     4   ar
     7     4     5   ar
     8     5     6   ar
     9     6    11    1
    10    11    12    1
    11    12    13    1
    12    13    14   ar
    13    14    15   ar
    14    15    24    1
    15    24    25    1
    16    15    16   ar
    17    16    26    1
    18    26    27    1
    19    16    17   ar
    20    17    28    1
    21    28    29    1
    22    17    18   ar
    23    18    19    1
    24    19    20    2
    25    19    21    1
    26    21    22    1
    27     6     7   ar
    28     7     8   ar
    29     8     9    1
    30     9    10    1
    31    10    30    1
    32    30    31   ar
    33    31    32   ar
    34    32    33   ar
    35    33    36    1
    36    36    37    1
    37    33    34   ar
    38    34    38    1
    39    38    39    1
    40    34    35   ar
    41    10     1    1
    42    35    30   ar
    43     8     3   ar
    44    21    11    1
    45    18    13   ar
    46    22    23    1
@<TRIPOS>MOLECULE
*****
 42 46 0 0 0
SMALL
GASTEIGER

@<TRIPOS>ATOM
      1 C         -68.4099  -56.4115  -23.0286 C.3     1  UNL1        0.2392
      2 O         -67.1989  -56.2772  -22.2768 O.3     1  UNL1       -0.4694
      3 C         -66.2467  -55.3052  -22.5961 C.ar    1  UNL1        0.1723
      4 C         -64.9599  -55.3624  -22.0566 C.ar    1  UNL1        0.0398
      5 C         -64.0109  -54.3990  -22.4138 C.ar    1  UNL1        0.0026
      6 C         -64.3478  -53.3626  -23.3053 C.ar    1  UNL1        0.0233
      7 C         -65.6477  -53.3120  -23.8400 C.ar    1  UNL1        0.0393
      8 C         -66.5963  -54.2691  -23.4695 C.ar    1  UNL1        0.1725
      9 O         -67.9018  -54.2076  -23.9638 O.3     1  UNL1       -0.4679
     10 C         -68.9508  -55.0021  -23.3997 C.3     1  UNL1        0.2305
     11 C         -63.3141  -52.3436  -23.7227 C.3     1  UNL1        0.2223
     12 O         -63.9453  -51.2825  -24.4412 O.3     1  UNL1       -0.4715
     13 C         -63.3016  -50.0659  -24.6958 C.ar    1  UNL1        0.1479
     14 C         -63.8343  -49.2103  -25.6507 C.ar    1  UNL1        0.0772
     15 C         -63.2102  -47.9911  -25.9584 C.ar    1  UNL1        0.1785
     16 C         -62.0186  -47.6235  -25.2762 C.ar    1  UNL1        0.2064
     17 C         -61.4867  -48.4909  -24.2782 C.ar    1  UNL1        0.1811
     18 C         -62.1413  -49.7126  -23.9922 C.ar    1  UNL1        0.1083
     19 C         -61.6714  -50.6485  -22.9336 C.2     1  UNL1        0.2096
     20 O         -60.5666  -50.4713  -22.3518 O.2     1  UNL1       -0.2884
     21 C         -62.5595  -51.7898  -22.5019 C.3     1  UNL1        0.2169
     22 O         -61.7936  -52.8166  -21.9235 O.3     1  UNL1       -0.3739
     23 H         -61.6350  -52.5601  -20.9774 H       1  UNL1        0.2110
     24 O         -63.7560  -47.1389  -26.9321 O.3     1  UNL1       -0.4682
     25 C         -63.3759  -47.1101  -28.3047 C.3     1  UNL1        0.2526
     26 O         -61.3367  -46.4220  -25.5487 O.3     1  UNL1       -0.4654
     27 C         -61.7610  -45.0971  -25.2466 C.3     1  UNL1        0.2528
     28 O         -60.3242  -48.1901  -23.5378 O.3     1  UNL1       -0.4681
     29 C         -60.1697  -47.1933  -22.5334 C.3     1  UNL1        0.2526
     30 C         -70.1038  -55.0737  -24.3739 C.ar    1  UNL1        0.0241
     31 C         -71.4049  -55.3286  -23.9170 C.ar    1  UNL1        0.0026
     32 C         -72.4756  -55.3553  -24.8116 C.ar    1  UNL1        0.0398
     33 C         -72.2656  -55.1138  -26.1822 C.ar    1  UNL1        0.1724
     34 C         -70.9691  -54.8454  -26.6477 C.ar    1  UNL1        0.1722
     35 C         -69.8920  -54.8313  -25.7404 C.ar    1  UNL1        0.0393
     36 O         -73.3185  -55.1273  -27.1109 O.3     1  UNL1       -0.4684
     37 C         -74.1728  -54.0199  -27.3776 C.3     1  UNL1        0.2526
     38 O         -70.7921  -54.5918  -28.0173 O.3     1  UNL1       -0.4684
     39 C         -69.8079  -55.2187  -28.8332 C.3     1  UNL1        0.2526
     40 C         -69.4136  -57.2335  -22.2081 C.3     1  UNL1        0.1897
     41 C         -70.3046  -56.5913  -20.1816 C.3     1  UNL1        0.1743
     42 O         -69.1499  -57.0738  -20.8294 O.3     1  UNL1       -0.3471
@<TRIPOS>BOND
     1    41    42    1
     2    42    40    1
     3    40     1    1
     4     1     2    1
     5     2     3    1
     6     3     4   ar
     7     4     5   ar
     8     5     6   ar
     9     6    11    1
    10    11    12    1
    11    12    13    1
    12    13    14   ar
    13    14    15   ar
    14    15    24    1
    15    24    25    1
    16    15    16   ar
    17    16    26    1
    18    26    27    1
    19    16    17   ar
    20    17    28    1
    21    28    29    1
    22    17    18   ar
    23    18    19    1
    24    19    20    2
    25    19    21    1
    26    21    22    1
    27     6     7   ar
    28     7     8   ar
    29     8     9    1
    30     9    10    1
    31    10    30    1
    32    30    31   ar
    33    31    32   ar
    34    32    33   ar
    35    33    36    1
    36    36    37    1
    37    33    34   ar
    38    34    38    1
    39    38    39    1
    40    34    35   ar
    41    10     1    1
    42    35    30   ar
    43     8     3   ar
    44    21    11    1
    45    18    13   ar
    46    22    23    1
@<TRIPOS>MOLECULE
*****
 42 46 0 0 0
SMALL
GASTEIGER

@<TRIPOS>ATOM
      1 C         -63.4608  -41.9126  -19.6175 C.3     1  UNL1        0.2392
      2 O         -62.9709  -43.1941  -20.0269 O.3     1  UNL1       -0.4694
      3 C         -62.7703  -43.5010  -21.3757 C.ar    1  UNL1        0.1723
      4 C         -62.5737  -44.8214  -21.7855 C.ar    1  UNL1        0.0398
      5 C         -62.4074  -45.1122  -23.1435 C.ar    1  UNL1        0.0026
      6 C         -62.4242  -44.0801  -24.1010 C.ar    1  UNL1        0.0233
      7 C         -62.6192  -42.7532  -23.6772 C.ar    1  UNL1        0.0393
      8 C         -62.7713  -42.4663  -22.3179 C.ar    1  UNL1        0.1725
      9 O         -62.9272  -41.1483  -21.8806 O.3     1  UNL1       -0.4679
     10 C         -62.8147  -40.8041  -20.4953 C.3     1  UNL1        0.2305
     11 C         -62.2837  -44.3954  -25.5713 C.3     1  UNL1        0.2223
     12 O         -62.6327  -43.2474  -26.3464 O.3     1  UNL1       -0.4715
     13 C         -62.3225  -43.1422  -27.7073 C.ar    1  UNL1        0.1479
     14 C         -62.9516  -42.1647  -28.4666 C.ar    1  UNL1        0.0772
     15 C         -62.6919  -42.0369  -29.8403 C.ar    1  UNL1        0.1785
     16 C         -61.7648  -42.9170  -30.4617 C.ar    1  UNL1        0.2064
     17 C         -61.1008  -43.9035  -29.6761 C.ar    1  UNL1        0.1811
     18 C         -61.3854  -44.0048  -28.2936 C.ar    1  UNL1        0.1083
     19 C         -60.6999  -44.9793  -27.4003 C.2     1  UNL1        0.2096
     20 O         -59.9480  -45.8759  -27.8705 O.2     1  UNL1       -0.2884
     21 C         -60.8530  -44.8524  -25.9043 C.3     1  UNL1        0.2169
     22 O         -60.6011  -46.0854  -25.2784 O.3     1  UNL1       -0.3739
     23 H         -59.6157  -46.1667  -25.1875 H       1  UNL1        0.2110
     24 O         -63.3414  -41.0485  -30.5976 O.3     1  UNL1       -0.4682
     25 C         -64.6913  -40.6306  -30.4177 C.3     1  UNL1        0.2526
     26 O         -61.4715  -42.8506  -31.8373 O.3     1  UNL1       -0.4654
     27 C         -62.2922  -43.2765  -32.9198 C.3     1  UNL1        0.2528
     28 O         -60.1492  -44.7985  -30.2088 O.3     1  UNL1       -0.4681
     29 C         -59.0806  -44.4985  -31.1002 C.3     1  UNL1        0.2526
     30 C         -63.4486  -39.4523  -20.2622 C.ar    1  UNL1        0.0241
     31 C         -64.8237  -39.3470  -20.0082 C.ar    1  UNL1        0.0026
     32 C         -65.4022  -38.1029  -19.7536 C.ar    1  UNL1        0.0398
     33 C         -64.6109  -36.9391  -19.7354 C.ar    1  UNL1        0.1724
     34 C         -63.2316  -37.0353  -19.9760 C.ar    1  UNL1        0.1722
     35 C         -62.6570  -38.2931  -20.2433 C.ar    1  UNL1        0.0393
     36 O         -65.1564  -35.6713  -19.4779 O.3     1  UNL1       -0.4684
     37 C         -65.1470  -35.0325  -18.2054 C.3     1  UNL1        0.2526
     38 O         -62.4645  -35.8600  -19.9350 O.3     1  UNL1       -0.4684
     39 C         -61.5613  -35.4501  -20.9566 C.3     1  UNL1        0.2526
     40 C         -63.1713  -41.7266  -18.1215 C.3     1  UNL1        0.1897
     41 C         -65.3394  -42.4120  -17.7441 C.3     1  UNL1        0.1743
     42 O         -64.3709  -41.4365  -17.4341 O.3     1  UNL1       -0.3471
@<TRIPOS>BOND
     1    41    42    1
     2    42    40    1
     3    40     1    1
     4     1     2    1
     5     2     3    1
     6     3     4   ar
     7     4     5   ar
     8     5     6   ar
     9     6    11    1
    10    11    12    1
    11    12    13    1
    12    13    14   ar
    13    14    15   ar
    14    15    24    1
    15    24    25    1
    16    15    16   ar
    17    16    26    1
    18    26    27    1
    19    16    17   ar
    20    17    28    1
    21    28    29    1
    22    17    18   ar
    23    18    19    1
    24    19    20    2
    25    19    21    1
    26    21    22    1
    27     6     7   ar
    28     7     8   ar
    29     8     9    1
    30     9    10    1
    31    10    30    1
    32    30    31   ar
    33    31    32   ar
    34    32    33   ar
    35    33    36    1
    36    36    37    1
    37    33    34   ar
    38    34    38    1
    39    38    39    1
    40    34    35   ar
    41    10     1    1
    42    35    30   ar
    43     8     3   ar
    44    21    11    1
    45    18    13   ar
    46    22    23    1
@<TRIPOS>MOLECULE
*****
 42 46 0 0 0
SMALL
GASTEIGER

@<TRIPOS>ATOM
      1 C         -65.1019  -55.0071  -22.8148 C.3     1  UNL1        0.2392
      2 O         -63.8586  -54.4544  -22.3693 O.3     1  UNL1       -0.4694
      3 C         -63.3675  -53.2528  -22.8875 C.ar    1  UNL1        0.1723
      4 C         -62.0422  -52.8704  -22.6696 C.ar    1  UNL1        0.0398
      5 C         -61.5602  -51.6802  -23.2240 C.ar    1  UNL1        0.0026
      6 C         -62.4064  -50.8569  -23.9912 C.ar    1  UNL1        0.0233
      7 C         -63.7405  -51.2495  -24.2015 C.ar    1  UNL1        0.0393
      8 C         -64.2211  -52.4328  -23.6341 C.ar    1  UNL1        0.1725
      9 O         -65.5546  -52.8145  -23.8036 O.3     1  UNL1       -0.4679
     10 C         -66.1349  -53.8639  -23.0214 C.3     1  UNL1        0.2305
     11 C         -61.8781  -49.5910  -24.6232 C.3     1  UNL1        0.2223
     12 O         -62.8837  -49.0115  -25.4559 O.3     1  UNL1       -0.4715
     13 C         -62.7931  -47.6988  -25.9336 C.ar    1  UNL1        0.1479
     14 C         -63.6232  -47.3032  -26.9739 C.ar    1  UNL1        0.0772
     15 C         -63.5512  -46.0050  -27.5032 C.ar    1  UNL1        0.1785
     16 C         -62.6195  -45.0790  -26.9604 C.ar    1  UNL1        0.2064
     17 C         -61.7857  -45.4784  -25.8757 C.ar    1  UNL1        0.1811
     18 C         -61.8842  -46.7947  -25.3656 C.ar    1  UNL1        0.1083
     19 C         -61.0793  -47.2709  -24.2067 C.2     1  UNL1        0.2096
     20 O         -60.1481  -46.5677  -23.7284 O.2     1  UNL1       -0.2884
     21 C         -61.4248  -48.5854  -23.5509 C.3     1  UNL1        0.2169
     22 O         -60.3094  -49.1028  -22.8699 O.3     1  UNL1       -0.3739
     23 H         -60.2762  -48.6514  -21.9861 H       1  UNL1        0.2110
     24 O         -64.3916  -45.6209  -28.5608 O.3     1  UNL1       -0.4682
     25 C         -64.2750  -46.0704  -29.9074 C.3     1  UNL1        0.2526
     26 O         -62.4878  -43.7675  -27.4558 O.3     1  UNL1       -0.4654
     27 C         -61.6247  -43.3159  -28.4940 C.3     1  UNL1        0.2528
     28 O         -60.8535  -44.6145  -25.2635 O.3     1  UNL1       -0.4681
     29 C         -61.1243  -43.4173  -24.5424 C.3     1  UNL1        0.2526
     30 C         -67.3962  -54.3520  -23.6956 C.ar    1  UNL1        0.0241
     31 C         -68.6495  -54.1204  -23.1106 C.ar    1  UNL1        0.0026
     32 C         -69.8168  -54.5360  -23.7526 C.ar    1  UNL1        0.0398
     33 C         -69.7523  -55.1814  -25.0017 C.ar    1  UNL1        0.1724
     34 C         -68.5037  -55.4067  -25.6015 C.ar    1  UNL1        0.1722
     35 C         -67.3294  -54.9944  -24.9421 C.ar    1  UNL1        0.0393
     36 O         -70.9050  -55.6088  -25.6797 O.3     1  UNL1       -0.4684
     37 C         -71.9923  -54.7612  -26.0357 C.3     1  UNL1        0.2526
     38 O         -68.4709  -56.0376  -26.8553 O.3     1  UNL1       -0.4684
     39 C         -68.5669  -55.3582  -28.1030 C.3     1  UNL1        0.2526
     40 C         -65.5728  -56.0531  -21.7948 C.3     1  UNL1        0.1897
     41 C         -67.1643  -56.1196  -20.1289 C.3     1  UNL1        0.1743
     42 O         -66.0594  -55.4073  -20.6364 O.3     1  UNL1       -0.3471
@<TRIPOS>BOND
     1    41    42    1
     2    42    40    1
     3    40     1    1
     4     1     2    1
     5     2     3    1
     6     3     4   ar
     7     4     5   ar
     8     5     6   ar
     9     6    11    1
    10    11    12    1
    11    12    13    1
    12    13    14   ar
    13    14    15   ar
    14    15    24    1
    15    24    25    1
    16    15    16   ar
    17    16    26    1
    18    26    27    1
    19    16    17   ar
    20    17    28    1
    21    28    29    1
    22    17    18   ar
    23    18    19    1
    24    19    20    2
    25    19    21    1
    26    21    22    1
    27     6     7   ar
    28     7     8   ar
    29     8     9    1
    30     9    10    1
    31    10    30    1
    32    30    31   ar
    33    31    32   ar
    34    32    33   ar
    35    33    36    1
    36    36    37    1
    37    33    34   ar
    38    34    38    1
    39    38    39    1
    40    34    35   ar
    41    10     1    1
    42    35    30   ar
    43     8     3   ar
    44    21    11    1
    45    18    13   ar
    46    22    23    1
@<TRIPOS>MOLECULE
*****
 42 46 0 0 0
SMALL
GASTEIGER

@<TRIPOS>ATOM
      1 C         -62.0853  -46.9532  -26.0040 C.3     1  UNL1        0.2392
      2 O         -61.6440  -45.5925  -26.0617 O.3     1  UNL1       -0.4694
      3 C         -61.7111  -44.7564  -24.9437 C.ar    1  UNL1        0.1723
      4 C         -61.5554  -43.3748  -25.0755 C.ar    1  UNL1        0.0398
      5 C         -61.6585  -42.5513  -23.9497 C.ar    1  UNL1        0.0026
      6 C         -61.9063  -43.1072  -22.6800 C.ar    1  UNL1        0.0233
      7 C         -62.0578  -44.5001  -22.5577 C.ar    1  UNL1        0.0393
      8 C         -61.9403  -45.3199  -23.6835 C.ar    1  UNL1        0.1725
      9 O         -62.0505  -46.7081  -23.5691 O.3     1  UNL1       -0.4679
     10 C         -61.6709  -47.5771  -24.6418 C.3     1  UNL1        0.2305
     11 C         -62.0566  -42.2172  -21.4690 C.3     1  UNL1        0.2223
     12 O         -62.1752  -40.8552  -21.8830 O.3     1  UNL1       -0.4715
     13 C         -62.6155  -39.8468  -21.0178 C.ar    1  UNL1        0.1479
     14 C         -62.4130  -38.5200  -21.3734 C.ar    1  UNL1        0.0772
     15 C         -62.8144  -37.4747  -20.5267 C.ar    1  UNL1        0.1785
     16 C         -63.4449  -37.7794  -19.2897 C.ar    1  UNL1        0.2064
     17 C         -63.6750  -39.1411  -18.9374 C.ar    1  UNL1        0.1811
     18 C         -63.2582  -40.1706  -19.8144 C.ar    1  UNL1        0.1083
     19 C         -63.5035  -41.6128  -19.5362 C.2     1  UNL1        0.2096
     20 O         -63.9512  -41.9934  -18.4204 O.2     1  UNL1       -0.2884
     21 C         -63.2766  -42.6300  -20.6277 C.3     1  UNL1        0.2169
     22 O         -63.0510  -43.9022  -20.0743 O.3     1  UNL1       -0.3739
     23 H         -63.9421  -44.2915  -19.8737 H       1  UNL1        0.2110
     24 O         -62.5962  -36.1374  -20.8956 O.3     1  UNL1       -0.4682
     25 C         -61.3447  -35.4603  -20.8279 C.3     1  UNL1        0.2526
     26 O         -63.8576  -36.7781  -18.3899 O.3     1  UNL1       -0.4654
     27 C         -64.7397  -35.6909  -18.6482 C.3     1  UNL1        0.2528
     28 O         -64.3161  -39.5285  -17.7420 O.3     1  UNL1       -0.4681
     29 C         -65.6772  -39.9092  -17.5720 C.3     1  UNL1        0.2526
     30 C         -62.2916  -48.9382  -24.4271 C.ar    1  UNL1        0.0241
     31 C         -63.6123  -49.1875  -24.8272 C.ar    1  UNL1        0.0026
     32 C         -64.1724  -50.4554  -24.6654 C.ar    1  UNL1        0.0398
     33 C         -63.4149  -51.5039  -24.1106 C.ar    1  UNL1        0.1724
     34 C         -62.0882  -51.2679  -23.7185 C.ar    1  UNL1        0.1722
     35 C         -61.5336  -49.9827  -23.8747 C.ar    1  UNL1        0.0393
     36 O         -63.9426  -52.7933  -23.9372 O.3     1  UNL1       -0.4684
     37 C         -65.3226  -53.0795  -23.7347 C.3     1  UNL1        0.2526
     38 O         -61.3513  -52.3366  -23.1837 O.3     1  UNL1       -0.4684
     39 C         -60.5074  -53.1951  -23.9441 C.3     1  UNL1        0.2526
     40 C         -61.5045  -47.7136  -27.2043 C.3     1  UNL1        0.1897
     41 C         -63.4887  -47.4270  -28.3415 C.3     1  UNL1        0.1743
     42 O         -62.5416  -48.3729  -27.9011 O.3     1  UNL1       -0.3471
@<TRIPOS>BOND
     1    41    42    1
     2    42    40    1
     3    40     1    1
     4     1     2    1
     5     2     3    1
     6     3     4   ar
     7     4     5   ar
     8     5     6   ar
     9     6    11    1
    10    11    12    1
    11    12    13    1
    12    13    14   ar
    13    14    15   ar
    14    15    24    1
    15    24    25    1
    16    15    16   ar
    17    16    26    1
    18    26    27    1
    19    16    17   ar
    20    17    28    1
    21    28    29    1
    22    17    18   ar
    23    18    19    1
    24    19    20    2
    25    19    21    1
    26    21    22    1
    27     6     7   ar
    28     7     8   ar
    29     8     9    1
    30     9    10    1
    31    10    30    1
    32    30    31   ar
    33    31    32   ar
    34    32    33   ar
    35    33    36    1
    36    36    37    1
    37    33    34   ar
    38    34    38    1
    39    38    39    1
    40    34    35   ar
    41    10     1    1
    42    35    30   ar
    43     8     3   ar
    44    21    11    1
    45    18    13   ar
    46    22    23    1
