@<TRIPOS>MOLECULE
*****
 45 50 0 0 0
SMALL
GASTEIGER

@<TRIPOS>ATOM
      1 C         -64.1122  -51.8896  -24.0331 C.ar    1  UNL1        0.0702
      2 C         -63.0561  -52.4074  -23.2753 C.ar    1  UNL1        0.0191
      3 C         -61.9984  -51.5846  -22.8854 C.ar    1  UNL1        0.0356
      4 C         -61.9880  -50.2321  -23.2726 C.ar    1  UNL1        0.1318
      5 N         -63.0160  -49.7608  -24.0335 N.ar    1  UNL1       -0.2279
      6 C         -64.0580  -50.5422  -24.4214 C.ar    1  UNL1        0.1149
      7 N         -60.9154  -49.3426  -22.8805 N.pl3   1  UNL1       -0.2932
      8 C         -60.7765  -48.9037  -21.4800 C.3     1  UNL1        0.0923
      9 C         -59.8132  -47.7149  -21.3453 C.3     1  UNL1        0.0252
     10 C         -60.0718  -46.6974  -22.4701 C.3     1  UNL1        0.0472
     11 C         -59.8583  -47.3299  -23.8721 C.3     1  UNL1        0.0252
     12 C         -59.9360  -48.8660  -23.8703 C.3     1  UNL1        0.0923
     13 C         -59.1953  -45.4450  -22.2781 C.3     1  UNL1        0.2054
     14 O         -59.5048  -44.4469  -23.2526 O.3     1  UNL1       -0.4755
     15 C         -60.5618  -43.5251  -23.1724 C.ar    1  UNL1        0.1388
     16 C         -61.5666  -43.4338  -24.1494 C.ar    1  UNL1        0.0374
     17 C         -62.5929  -42.4993  -24.0150 C.ar    1  UNL1        0.0100
     18 C         -62.6390  -41.6399  -22.9118 C.ar    1  UNL1        0.0410
     19 BR        -64.1417  -40.4468  -22.8132 Br      1  UNL1       -0.0488
     20 C         -61.6306  -41.7155  -21.9182 C.ar    1  UNL1        0.0847
     21 C         -60.6081  -42.6723  -22.0650 C.ar    1  UNL1        0.0438
     22 C         -61.6021  -40.8300  -20.7267 C.2     1  UNL1        0.3386
     23 O         -61.2013  -39.6390  -20.8093 O.2     1  UNL1       -0.2451
     24 O         -61.9935  -41.3250  -19.4849 O.3     1  UNL1       -0.4771
     25 H         -61.9698  -40.7382  -18.6593 H       1  UNL1        0.2954
     26 C         -65.7488  -53.7858  -23.6195 C.2     1  UNL1        0.2839
     27 O         -65.1567  -54.1529  -22.5691 O.2     1  UNL1       -0.2665
     28 N         -65.1838  -52.7551  -24.4460 N.am    1  UNL1       -0.2766
     29 H         -65.5130  -52.6846  -25.4355 H       1  UNL1        0.1553
     30 C         -68.6194  -53.4784  -22.2274 C.3     1  UNL1        0.0345
     31 C         -68.2607  -54.3115  -23.4209 C.ar    1  UNL1        0.0202
     32 C         -67.0054  -54.4436  -24.0253 C.ar    1  UNL1        0.1946
     33 O         -67.0844  -55.2661  -25.0562 O.2     1  UNL1       -0.4492
     34 C         -68.3261  -55.6747  -25.1514 C.ar    1  UNL1        0.1452
     35 C         -68.8571  -56.5484  -26.0938 C.ar    1  UNL1        0.0375
     36 C         -70.2269  -56.8530  -26.0136 C.ar    1  UNL1        0.0031
     37 C         -71.0417  -56.2831  -24.9982 C.ar    1  UNL1        0.0002
     38 C         -70.4613  -55.3984  -24.0578 C.ar    1  UNL1        0.0028
     39 C         -69.0982  -55.1186  -24.1670 C.ar    1  UNL1        0.0337
     40 C         -72.4879  -56.6121  -24.9235 C.ar    1  UNL1        0.0000
     41 C         -73.2299  -56.8478  -26.0967 C.ar    1  UNL1        0.0000
     42 C         -74.5917  -57.1564  -26.0233 C.ar    1  UNL1        0.0000
     43 C         -75.2272  -57.2340  -24.7821 C.ar    1  UNL1        0.0000
     44 C         -74.5021  -57.0026  -23.6111 C.ar    1  UNL1        0.0000
     45 C         -73.1403  -56.6928  -23.6784 C.ar    1  UNL1        0.0000
@<TRIPOS>BOND
     1    30    31    1
     2    31    32   ar
     3    32    26    1
     4    26    27    2
     5    26    28   am
     6    28     1    1
     7     1     2   ar
     8     2     3   ar
     9     3     4   ar
    10     4     7    1
    11     7     8    1
    12     8     9    1
    13     9    10    1
    14    10    13    1
    15    13    14    1
    16    14    15    1
    17    15    16   ar
    18    16    17   ar
    19    17    18   ar
    20    18    19    1
    21    18    20   ar
    22    20    22    1
    23    22    23    2
    24    22    24    1
    25    20    21   ar
    26    10    11    1
    27    11    12    1
    28     4     5   ar
    29     5     6   ar
    30    32    33   ar
    31    33    34   ar
    32    34    35   ar
    33    35    36   ar
    34    36    37   ar
    35    37    40    1
    36    40    41   ar
    37    41    42   ar
    38    42    43   ar
    39    43    44   ar
    40    44    45   ar
    41    37    38   ar
    42    38    39   ar
    43    39    31   ar
    44     6     1   ar
    45    39    34   ar
    46    12     7    1
    47    45    40   ar
    48    21    15   ar
    49    28    29    1
    50    24    25    1
@<TRIPOS>MOLECULE
*****
 45 50 0 0 0
SMALL
GASTEIGER

@<TRIPOS>ATOM
      1 C         -66.3586  -53.8818  -23.3983 C.ar    1  UNL1        0.0702
      2 C         -67.4909  -53.5294  -22.6559 C.ar    1  UNL1        0.0191
      3 C         -68.6908  -54.2208  -22.8290 C.ar    1  UNL1        0.0356
      4 C         -68.7640  -55.2657  -23.7683 C.ar    1  UNL1        0.1318
      5 N         -67.6532  -55.5701  -24.4972 N.ar    1  UNL1       -0.2279
      6 C         -66.4735  -54.9133  -24.3428 C.ar    1  UNL1        0.1149
      7 N         -69.9860  -56.0146  -23.9710 N.pl3   1  UNL1       -0.2932
      8 C         -70.9644  -55.5955  -24.9911 C.3     1  UNL1        0.0923
      9 C         -72.3182  -56.2979  -24.8088 C.3     1  UNL1        0.0252
     10 C         -72.6970  -56.3325  -23.3181 C.3     1  UNL1        0.0472
     11 C         -71.6416  -57.1024  -22.4786 C.3     1  UNL1        0.0252
     12 C         -70.2721  -57.2153  -23.1695 C.3     1  UNL1        0.0923
     13 C         -74.1064  -56.9264  -23.1321 C.3     1  UNL1        0.2054
     14 O         -74.8513  -56.1881  -22.1618 O.3     1  UNL1       -0.4755
     15 C         -74.6774  -56.2588  -20.7696 C.ar    1  UNL1        0.1388
     16 C         -75.3296  -57.2110  -19.9694 C.ar    1  UNL1        0.0374
     17 C         -75.1164  -57.2338  -18.5915 C.ar    1  UNL1        0.0100
     18 C         -74.2550  -56.3131  -17.9847 C.ar    1  UNL1        0.0410
     19 BR        -73.9971  -56.4963  -16.0897 Br      1  UNL1       -0.0488
     20 C         -73.5916  -55.3424  -18.7768 C.ar    1  UNL1        0.0847
     21 C         -73.8107  -55.3410  -20.1676 C.ar    1  UNL1        0.0438
     22 C         -72.6741  -54.3238  -18.2064 C.2     1  UNL1        0.3386
     23 O         -73.1183  -53.2800  -17.6595 O.2     1  UNL1       -0.2451
     24 O         -71.2958  -54.5012  -18.3006 O.3     1  UNL1       -0.4771
     25 H         -70.6551  -53.8111  -17.9269 H       1  UNL1        0.2954
     26 C         -64.3679  -52.5950  -24.3075 C.2     1  UNL1        0.2839
     27 O         -64.5991  -52.9504  -25.4944 O.2     1  UNL1       -0.2665
     28 N         -65.1356  -53.1456  -23.2247 N.am    1  UNL1       -0.2766
     29 H         -64.7391  -53.0804  -22.2598 H       1  UNL1        0.1553
     30 C         -64.4651  -49.4079  -24.6323 C.3     1  UNL1        0.0345
     31 C         -63.3172  -50.2498  -24.1622 C.ar    1  UNL1        0.0202
     32 C         -63.2787  -51.6417  -24.0225 C.ar    1  UNL1        0.1946
     33 O         -62.0924  -52.0188  -23.5797 O.2     1  UNL1       -0.4492
     34 C         -61.3594  -50.9433  -23.4255 C.ar    1  UNL1        0.1452
     35 C         -60.0447  -50.8752  -22.9777 C.ar    1  UNL1        0.0375
     36 C         -59.4439  -49.6080  -22.8846 C.ar    1  UNL1        0.0031
     37 C         -60.1617  -48.4336  -23.2386 C.ar    1  UNL1        0.0002
     38 C         -61.4984  -48.5471  -23.6905 C.ar    1  UNL1        0.0028
     39 C         -62.0632  -49.8210  -23.7709 C.ar    1  UNL1        0.0337
     40 C         -59.5165  -47.1000  -23.1359 C.ar    1  UNL1        0.0000
     41 C         -58.1885  -46.9801  -22.6836 C.ar    1  UNL1        0.0000
     42 C         -57.5841  -45.7230  -22.5870 C.ar    1  UNL1        0.0000
     43 C         -58.2950  -44.5742  -22.9403 C.ar    1  UNL1        0.0000
     44 C         -59.6127  -44.6797  -23.3907 C.ar    1  UNL1        0.0000
     45 C         -60.2227  -45.9341  -23.4885 C.ar    1  UNL1        0.0000
@<TRIPOS>BOND
     1    30    31    1
     2    31    32   ar
     3    32    26    1
     4    26    27    2
     5    26    28   am
     6    28     1    1
     7     1     2   ar
     8     2     3   ar
     9     3     4   ar
    10     4     7    1
    11     7     8    1
    12     8     9    1
    13     9    10    1
    14    10    13    1
    15    13    14    1
    16    14    15    1
    17    15    16   ar
    18    16    17   ar
    19    17    18   ar
    20    18    19    1
    21    18    20   ar
    22    20    22    1
    23    22    23    2
    24    22    24    1
    25    20    21   ar
    26    10    11    1
    27    11    12    1
    28     4     5   ar
    29     5     6   ar
    30    32    33   ar
    31    33    34   ar
    32    34    35   ar
    33    35    36   ar
    34    36    37   ar
    35    37    40    1
    36    40    41   ar
    37    41    42   ar
    38    42    43   ar
    39    43    44   ar
    40    44    45   ar
    41    37    38   ar
    42    38    39   ar
    43    39    31   ar
    44     6     1   ar
    45    39    34   ar
    46    12     7    1
    47    45    40   ar
    48    21    15   ar
    49    28    29    1
    50    24    25    1
@<TRIPOS>MOLECULE
*****
 45 50 0 0 0
SMALL
GASTEIGER

@<TRIPOS>ATOM
      1 C         -64.3555  -52.1995  -24.6456 C.ar    1  UNL1        0.0702
      2 C         -63.6639  -52.5548  -23.4823 C.ar    1  UNL1        0.0191
      3 C         -64.1724  -53.5379  -22.6322 C.ar    1  UNL1        0.0356
      4 C         -65.3958  -54.1609  -22.9400 C.ar    1  UNL1        0.1318
      5 N         -66.0616  -53.7762  -24.0654 N.ar    1  UNL1       -0.2279
      6 C         -65.5839  -52.8244  -24.9096 C.ar    1  UNL1        0.1149
      7 N         -65.9527  -55.1923  -22.0906 N.pl3   1  UNL1       -0.2932
      8 C         -66.4721  -56.4444  -22.6702 C.3     1  UNL1        0.0923
      9 C         -67.3188  -57.2344  -21.6611 C.3     1  UNL1        0.0252
     10 C         -68.2436  -56.2788  -20.8872 C.3     1  UNL1        0.0472
     11 C         -67.4336  -55.2124  -20.1011 C.3     1  UNL1        0.0252
     12 C         -66.0028  -55.0159  -20.6304 C.3     1  UNL1        0.0923
     13 C         -69.1829  -57.0704  -19.9574 C.3     1  UNL1        0.2054
     14 O         -69.0115  -56.6741  -18.5953 O.3     1  UNL1       -0.4755
     15 C         -69.9389  -55.9451  -17.8325 C.ar    1  UNL1        0.1388
     16 C         -70.0431  -56.0721  -16.4377 C.ar    1  UNL1        0.0374
     17 C         -70.9827  -55.3204  -15.7330 C.ar    1  UNL1        0.0100
     18 C         -71.8345  -54.4323  -16.3990 C.ar    1  UNL1        0.0410
     19 BR        -73.0357  -53.4081  -15.3038 Br      1  UNL1       -0.0488
     20 C         -71.7459  -54.2945  -17.8071 C.ar    1  UNL1        0.0847
     21 C         -70.7842  -55.0536  -18.5009 C.ar    1  UNL1        0.0438
     22 C         -72.6227  -53.3847  -18.5869 C.2     1  UNL1        0.3386
     23 O         -73.8576  -53.6059  -18.6974 O.2     1  UNL1       -0.2451
     24 O         -72.0746  -52.2819  -19.2376 O.3     1  UNL1       -0.4771
     25 H         -72.6561  -51.6569  -19.7832 H       1  UNL1        0.2954
     26 C         -64.0275  -49.7631  -25.2790 C.2     1  UNL1        0.2839
     27 O         -64.8939  -49.3657  -24.4544 O.2     1  UNL1       -0.2665
     28 N         -63.8299  -51.1691  -25.4999 N.am    1  UNL1       -0.2766
     29 H         -63.3475  -51.4643  -26.3789 H       1  UNL1        0.1553
     30 C         -64.1194  -49.2882  -28.4475 C.3     1  UNL1        0.0345
     31 C         -63.2784  -48.5716  -27.4342 C.ar    1  UNL1        0.0202
     32 C         -63.2408  -48.7826  -26.0513 C.ar    1  UNL1        0.1946
     33 O         -62.3759  -47.9557  -25.4913 O.2     1  UNL1       -0.4492
     34 C         -61.8503  -47.2195  -26.4397 C.ar    1  UNL1        0.1452
     35 C         -60.8958  -46.2181  -26.2995 C.ar    1  UNL1        0.0375
     36 C         -60.4685  -45.5467  -27.4581 C.ar    1  UNL1        0.0031
     37 C         -60.9982  -45.8840  -28.7329 C.ar    1  UNL1        0.0002
     38 C         -61.9682  -46.9103  -28.8318 C.ar    1  UNL1        0.0028
     39 C         -62.3692  -47.5560  -27.6611 C.ar    1  UNL1        0.0337
     40 C         -60.5393  -45.1675  -29.9500 C.ar    1  UNL1        0.0000
     41 C         -59.2115  -45.2982  -30.3997 C.ar    1  UNL1        0.0000
     42 C         -58.7820  -44.6216  -31.5454 C.ar    1  UNL1        0.0000
     43 C         -59.6698  -43.8095  -32.2543 C.ar    1  UNL1        0.0000
     44 C         -60.9896  -43.6718  -31.8187 C.ar    1  UNL1        0.0000
     45 C         -61.4245  -44.3453  -30.6731 C.ar    1  UNL1        0.0000
@<TRIPOS>BOND
     1    30    31    1
     2    31    32   ar
     3    32    26    1
     4    26    27    2
     5    26    28   am
     6    28     1    1
     7     1     2   ar
     8     2     3   ar
     9     3     4   ar
    10     4     7    1
    11     7     8    1
    12     8     9    1
    13     9    10    1
    14    10    13    1
    15    13    14    1
    16    14    15    1
    17    15    16   ar
    18    16    17   ar
    19    17    18   ar
    20    18    19    1
    21    18    20   ar
    22    20    22    1
    23    22    23    2
    24    22    24    1
    25    20    21   ar
    26    10    11    1
    27    11    12    1
    28     4     5   ar
    29     5     6   ar
    30    32    33   ar
    31    33    34   ar
    32    34    35   ar
    33    35    36   ar
    34    36    37   ar
    35    37    40    1
    36    40    41   ar
    37    41    42   ar
    38    42    43   ar
    39    43    44   ar
    40    44    45   ar
    41    37    38   ar
    42    38    39   ar
    43    39    31   ar
    44     6     1   ar
    45    39    34   ar
    46    12     7    1
    47    45    40   ar
    48    21    15   ar
    49    28    29    1
    50    24    25    1
@<TRIPOS>MOLECULE
*****
 45 50 0 0 0
SMALL
GASTEIGER

@<TRIPOS>ATOM
      1 C         -64.0595  -51.5481  -24.0158 C.ar    1  UNL1        0.0702
      2 C         -63.0649  -52.0008  -23.1420 C.ar    1  UNL1        0.0191
      3 C         -62.0058  -51.1648  -22.7854 C.ar    1  UNL1        0.0356
      4 C         -61.9311  -49.8665  -23.3226 C.ar    1  UNL1        0.1318
      5 N         -62.8990  -49.4611  -24.1925 N.ar    1  UNL1       -0.2279
      6 C         -63.9412  -50.2563  -24.5509 C.ar    1  UNL1        0.1149
      7 N         -60.8553  -48.9644  -22.9705 N.pl3   1  UNL1       -0.2932
      8 C         -60.6280  -48.5769  -21.5664 C.3     1  UNL1        0.0923
      9 C         -59.6867  -47.3686  -21.4509 C.3     1  UNL1        0.0252
     10 C         -60.0490  -46.3154  -22.5123 C.3     1  UNL1        0.0472
     11 C         -59.9204  -46.8865  -23.9506 C.3     1  UNL1        0.0252
     12 C         -59.9605  -48.4231  -24.0061 C.3     1  UNL1        0.0923
     13 C         -59.1918  -45.0482  -22.3312 C.3     1  UNL1        0.2054
     14 O         -59.8403  -43.9046  -22.8909 O.3     1  UNL1       -0.4755
     15 C         -60.6217  -42.9780  -22.1808 C.ar    1  UNL1        0.1388
     16 C         -60.2640  -42.4970  -20.9107 C.ar    1  UNL1        0.0374
     17 C         -61.0794  -41.5758  -20.2542 C.ar    1  UNL1        0.0100
     18 C         -62.2624  -41.1178  -20.8448 C.ar    1  UNL1        0.0410
     19 BR        -63.2586  -39.7994  -19.8647 Br      1  UNL1       -0.0488
     20 C         -62.6408  -41.5959  -22.1246 C.ar    1  UNL1        0.0847
     21 C         -61.8000  -42.5177  -22.7772 C.ar    1  UNL1        0.0438
     22 C         -63.8865  -41.1691  -22.8108 C.2     1  UNL1        0.3386
     23 O         -65.0103  -41.6147  -22.4581 O.2     1  UNL1       -0.2451
     24 O         -63.8188  -40.2851  -23.8851 O.3     1  UNL1       -0.4771
     25 H         -64.6574  -39.9919  -24.3721 H       1  UNL1        0.2954
     26 C         -65.5584  -53.5563  -23.6087 C.2     1  UNL1        0.2839
     27 O         -64.8389  -53.9826  -22.6657 O.2     1  UNL1       -0.2665
     28 N         -65.1324  -52.4289  -24.3912 N.am    1  UNL1       -0.2766
     29 H         -65.5715  -52.2893  -25.3294 H       1  UNL1        0.1553
     30 C         -68.3384  -53.3292  -22.0298 C.3     1  UNL1        0.0345
     31 C         -68.0389  -54.1437  -23.2521 C.ar    1  UNL1        0.0202
     32 C         -66.8231  -54.2407  -23.9382 C.ar    1  UNL1        0.1946
     33 O         -66.9500  -55.0565  -24.9697 O.2     1  UNL1       -0.4492
     34 C         -68.1853  -55.4940  -24.9877 C.ar    1  UNL1        0.1452
     35 C         -68.7561  -56.3726  -25.9019 C.ar    1  UNL1        0.0375
     36 C         -70.1102  -56.7105  -25.7356 C.ar    1  UNL1        0.0031
     37 C         -70.8701  -56.1687  -24.6639 C.ar    1  UNL1        0.0002
     38 C         -70.2504  -55.2780  -23.7548 C.ar    1  UNL1        0.0028
     39 C         -68.9043  -54.9646  -23.9499 C.ar    1  UNL1        0.0337
     40 C         -72.3002  -56.5329  -24.4984 C.ar    1  UNL1        0.0000
     41 C         -73.1619  -56.5737  -25.6111 C.ar    1  UNL1        0.0000
     42 C         -74.5082  -56.9160  -25.4521 C.ar    1  UNL1        0.0000
     43 C         -75.0090  -57.2216  -24.1848 C.ar    1  UNL1        0.0000
     44 C         -74.1644  -57.1851  -23.0731 C.ar    1  UNL1        0.0000
     45 C         -72.8174  -56.8425  -23.2260 C.ar    1  UNL1        0.0000
@<TRIPOS>BOND
     1    30    31    1
     2    31    32   ar
     3    32    26    1
     4    26    27    2
     5    26    28   am
     6    28     1    1
     7     1     2   ar
     8     2     3   ar
     9     3     4   ar
    10     4     7    1
    11     7     8    1
    12     8     9    1
    13     9    10    1
    14    10    13    1
    15    13    14    1
    16    14    15    1
    17    15    16   ar
    18    16    17   ar
    19    17    18   ar
    20    18    19    1
    21    18    20   ar
    22    20    22    1
    23    22    23    2
    24    22    24    1
    25    20    21   ar
    26    10    11    1
    27    11    12    1
    28     4     5   ar
    29     5     6   ar
    30    32    33   ar
    31    33    34   ar
    32    34    35   ar
    33    35    36   ar
    34    36    37   ar
    35    37    40    1
    36    40    41   ar
    37    41    42   ar
    38    42    43   ar
    39    43    44   ar
    40    44    45   ar
    41    37    38   ar
    42    38    39   ar
    43    39    31   ar
    44     6     1   ar
    45    39    34   ar
    46    12     7    1
    47    45    40   ar
    48    21    15   ar
    49    28    29    1
    50    24    25    1
@<TRIPOS>MOLECULE
*****
 45 50 0 0 0
SMALL
GASTEIGER

@<TRIPOS>ATOM
      1 C         -64.3589  -52.1902  -24.7065 C.ar    1  UNL1        0.0702
      2 C         -63.7153  -52.4878  -23.5004 C.ar    1  UNL1        0.0191
      3 C         -64.2254  -53.4728  -22.6534 C.ar    1  UNL1        0.0356
      4 C         -65.4029  -54.1561  -23.0085 C.ar    1  UNL1        0.1318
      5 N         -66.0241  -53.8271  -24.1763 N.ar    1  UNL1       -0.2279
      6 C         -65.5436  -52.8746  -25.0182 C.ar    1  UNL1        0.1149
      7 N         -65.9593  -55.1914  -22.1636 N.pl3   1  UNL1       -0.2932
      8 C         -66.4822  -56.4394  -22.7488 C.3     1  UNL1        0.0923
      9 C         -67.3275  -57.2338  -21.7421 C.3     1  UNL1        0.0252
     10 C         -68.2488  -56.2812  -20.9604 C.3     1  UNL1        0.0472
     11 C         -67.4351  -55.2205  -20.1704 C.3     1  UNL1        0.0252
     12 C         -66.0054  -55.0232  -20.7022 C.3     1  UNL1        0.0923
     13 C         -69.1869  -57.0765  -20.0327 C.3     1  UNL1        0.2054
     14 O         -68.9073  -56.7997  -18.6591 O.3     1  UNL1       -0.4755
     15 C         -69.7670  -56.1387  -17.7662 C.ar    1  UNL1        0.1388
     16 C         -70.7935  -55.2806  -18.1936 C.ar    1  UNL1        0.0374
     17 C         -71.6174  -54.6529  -17.2600 C.ar    1  UNL1        0.0100
     18 C         -71.4366  -54.8641  -15.8886 C.ar    1  UNL1        0.0410
     19 BR        -72.6816  -53.9933  -14.7128 Br      1  UNL1       -0.0488
     20 C         -70.4027  -55.7238  -15.4394 C.ar    1  UNL1        0.0847
     21 C         -69.5873  -56.3574  -16.3965 C.ar    1  UNL1        0.0438
     22 C         -70.1386  -55.9878  -14.0023 C.2     1  UNL1        0.3386
     23 O         -70.7014  -56.9402  -13.4004 O.2     1  UNL1       -0.2451
     24 O         -69.2792  -55.1544  -13.2903 O.3     1  UNL1       -0.4771
     25 H         -69.0961  -55.3130  -12.3066 H       1  UNL1        0.2954
     26 C         -64.0114  -49.7514  -25.3204 C.2     1  UNL1        0.2839
     27 O         -64.8611  -49.3524  -24.4794 O.2     1  UNL1       -0.2665
     28 N         -63.8335  -51.1573  -25.5581 N.am    1  UNL1       -0.2766
     29 H         -63.3672  -51.4492  -26.4468 H       1  UNL1        0.1553
     30 C         -64.0841  -49.2989  -28.4926 C.3     1  UNL1        0.0345
     31 C         -63.2536  -48.5712  -27.4787 C.ar    1  UNL1        0.0202
     32 C         -63.2243  -48.7724  -26.0941 C.ar    1  UNL1        0.1946
     33 O         -62.3674  -47.9373  -25.5340 O.2     1  UNL1       -0.4492
     34 C         -61.8389  -47.2050  -26.4839 C.ar    1  UNL1        0.1452
     35 C         -60.8904  -46.1980  -26.3443 C.ar    1  UNL1        0.0375
     36 C         -60.4586  -45.5324  -27.5046 C.ar    1  UNL1        0.0031
     37 C         -60.9780  -45.8812  -28.7806 C.ar    1  UNL1        0.0002
     38 C         -61.9422  -46.9131  -28.8788 C.ar    1  UNL1        0.0028
     39 C         -62.3479  -47.5527  -27.7065 C.ar    1  UNL1        0.0337
     40 C         -60.5144  -45.1708  -29.9994 C.ar    1  UNL1        0.0000
     41 C         -59.1887  -45.3152  -30.4515 C.ar    1  UNL1        0.0000
     42 C         -58.7548  -44.6443  -31.5989 C.ar    1  UNL1        0.0000
     43 C         -59.6360  -43.8245  -32.3073 C.ar    1  UNL1        0.0000
     44 C         -60.9535  -43.6733  -31.8694 C.ar    1  UNL1        0.0000
     45 C         -61.3928  -44.3410  -30.7220 C.ar    1  UNL1        0.0000
@<TRIPOS>BOND
     1    30    31    1
     2    31    32   ar
     3    32    26    1
     4    26    27    2
     5    26    28   am
     6    28     1    1
     7     1     2   ar
     8     2     3   ar
     9     3     4   ar
    10     4     7    1
    11     7     8    1
    12     8     9    1
    13     9    10    1
    14    10    13    1
    15    13    14    1
    16    14    15    1
    17    15    16   ar
    18    16    17   ar
    19    17    18   ar
    20    18    19    1
    21    18    20   ar
    22    20    22    1
    23    22    23    2
    24    22    24    1
    25    20    21   ar
    26    10    11    1
    27    11    12    1
    28     4     5   ar
    29     5     6   ar
    30    32    33   ar
    31    33    34   ar
    32    34    35   ar
    33    35    36   ar
    34    36    37   ar
    35    37    40    1
    36    40    41   ar
    37    41    42   ar
    38    42    43   ar
    39    43    44   ar
    40    44    45   ar
    41    37    38   ar
    42    38    39   ar
    43    39    31   ar
    44     6     1   ar
    45    39    34   ar
    46    12     7    1
    47    45    40   ar
    48    21    15   ar
    49    28    29    1
    50    24    25    1
@<TRIPOS>MOLECULE
*****
 45 50 0 0 0
SMALL
GASTEIGER

@<TRIPOS>ATOM
      1 C         -64.3254  -52.0870  -24.6811 C.ar    1  UNL1        0.0702
      2 C         -63.6244  -52.4545  -23.5273 C.ar    1  UNL1        0.0191
      3 C         -64.1418  -53.4236  -22.6666 C.ar    1  UNL1        0.0356
      4 C         -65.3833  -54.0199  -22.9539 C.ar    1  UNL1        0.1318
      5 N         -66.0574  -53.6235  -24.0704 N.ar    1  UNL1       -0.2279
      6 C         -65.5713  -52.6849  -24.9246 C.ar    1  UNL1        0.1149
      7 N         -65.9503  -55.0361  -22.0931 N.pl3   1  UNL1       -0.2932
      8 C         -66.1267  -56.4178  -22.5760 C.3     1  UNL1        0.0923
      9 C         -67.0456  -57.2336  -21.6544 C.3     1  UNL1        0.0252
     10 C         -68.2566  -56.3838  -21.2318 C.3     1  UNL1        0.0472
     11 C         -67.8181  -55.1079  -20.4628 C.3     1  UNL1        0.0252
     12 C         -66.3531  -54.7129  -20.7150 C.3     1  UNL1        0.0923
     13 C         -69.2466  -57.2267  -20.4054 C.3     1  UNL1        0.2054
     14 O         -70.5942  -56.8146  -20.6414 O.3     1  UNL1       -0.4755
     15 C         -71.1212  -56.4101  -21.8791 C.ar    1  UNL1        0.1388
     16 C         -72.4106  -56.7643  -22.3087 C.ar    1  UNL1        0.0374
     17 C         -72.8807  -56.3315  -23.5481 C.ar    1  UNL1        0.0100
     18 C         -72.0806  -55.5425  -24.3819 C.ar    1  UNL1        0.0410
     19 BR        -72.8726  -54.9574  -26.0316 Br      1  UNL1       -0.0488
     20 C         -70.7750  -55.1791  -23.9659 C.ar    1  UNL1        0.0847
     21 C         -70.3209  -55.6162  -22.7068 C.ar    1  UNL1        0.0438
     22 C         -69.8610  -54.3569  -24.7986 C.2     1  UNL1        0.3386
     23 O         -70.3085  -53.5002  -25.6060 O.2     1  UNL1       -0.2451
     24 O         -68.4842  -54.5507  -24.7160 O.3     1  UNL1       -0.4771
     25 H         -67.8465  -54.0065  -25.2848 H       1  UNL1        0.2954
     26 C         -63.9983  -49.6619  -25.3572 C.2     1  UNL1        0.2839
     27 O         -64.8811  -49.2529  -24.5560 O.2     1  UNL1       -0.2665
     28 N         -63.7899  -51.0710  -25.5464 N.am    1  UNL1       -0.2766
     29 H         -63.2905  -51.3811  -26.4108 H       1  UNL1        0.1553
     30 C         -64.0627  -49.2260  -28.5319 C.3     1  UNL1        0.0345
     31 C         -63.2285  -48.4989  -27.5206 C.ar    1  UNL1        0.0202
     32 C         -63.2029  -48.6929  -26.1349 C.ar    1  UNL1        0.1946
     33 O         -62.3407  -47.8610  -25.5779 O.2     1  UNL1       -0.4492
     34 C         -61.8055  -47.1378  -26.5309 C.ar    1  UNL1        0.1452
     35 C         -60.8499  -46.1369  -26.3952 C.ar    1  UNL1        0.0375
     36 C         -60.4114  -45.4808  -27.5583 C.ar    1  UNL1        0.0031
     37 C         -60.9313  -45.8327  -28.8333 C.ar    1  UNL1        0.0002
     38 C         -61.9028  -46.8580  -28.9275 C.ar    1  UNL1        0.0028
     39 C         -62.3151  -47.4883  -27.7524 C.ar    1  UNL1        0.0337
     40 C         -60.4606  -45.1323  -30.0552 C.ar    1  UNL1        0.0000
     41 C         -61.3307  -44.2970  -30.7816 C.ar    1  UNL1        0.0000
     42 C         -60.8849  -43.6396  -31.9323 C.ar    1  UNL1        0.0000
     43 C         -59.5694  -43.8067  -32.3701 C.ar    1  UNL1        0.0000
     44 C         -58.6964  -44.6323  -31.6582 C.ar    1  UNL1        0.0000
     45 C         -59.1369  -45.2930  -30.5073 C.ar    1  UNL1        0.0000
@<TRIPOS>BOND
     1    30    31    1
     2    31    32   ar
     3    32    26    1
     4    26    27    2
     5    26    28   am
     6    28     1    1
     7     1     2   ar
     8     2     3   ar
     9     3     4   ar
    10     4     7    1
    11     7     8    1
    12     8     9    1
    13     9    10    1
    14    10    13    1
    15    13    14    1
    16    14    15    1
    17    15    16   ar
    18    16    17   ar
    19    17    18   ar
    20    18    19    1
    21    18    20   ar
    22    20    22    1
    23    22    23    2
    24    22    24    1
    25    20    21   ar
    26    10    11    1
    27    11    12    1
    28     4     5   ar
    29     5     6   ar
    30    32    33   ar
    31    33    34   ar
    32    34    35   ar
    33    35    36   ar
    34    36    37   ar
    35    37    40    1
    36    40    41   ar
    37    41    42   ar
    38    42    43   ar
    39    43    44   ar
    40    44    45   ar
    41    37    38   ar
    42    38    39   ar
    43    39    31   ar
    44     6     1   ar
    45    39    34   ar
    46    12     7    1
    47    45    40   ar
    48    21    15   ar
    49    28    29    1
    50    24    25    1
@<TRIPOS>MOLECULE
*****
 45 50 0 0 0
SMALL
GASTEIGER

@<TRIPOS>ATOM
      1 C         -63.8835  -51.0845  -24.2925 C.ar    1  UNL1        0.0702
      2 C         -63.1012  -51.9644  -23.5366 C.ar    1  UNL1        0.0191
      3 C         -63.6278  -53.1825  -23.1045 C.ar    1  UNL1        0.0356
      4 C         -64.9581  -53.5170  -23.4173 C.ar    1  UNL1        0.1318
      5 N         -65.7059  -52.6293  -24.1319 N.ar    1  UNL1       -0.2279
      6 C         -65.2131  -51.4396  -24.5663 C.ar    1  UNL1        0.1149
      7 N         -65.5392  -54.7745  -22.9974 N.pl3   1  UNL1       -0.2932
      8 C         -66.5861  -55.4261  -23.8055 C.3     1  UNL1        0.0923
      9 C         -67.3008  -56.5401  -23.0260 C.3     1  UNL1        0.0252
     10 C         -67.5877  -56.0756  -21.5875 C.3     1  UNL1        0.0472
     11 C         -66.2789  -55.7248  -20.8291 C.3     1  UNL1        0.0252
     12 C         -65.0900  -55.4329  -21.7602 C.3     1  UNL1        0.0923
     13 C         -68.4098  -57.1364  -20.8308 C.3     1  UNL1        0.2054
     14 O         -68.6838  -56.7160  -19.4930 O.3     1  UNL1       -0.4755
     15 C         -69.6662  -55.7866  -19.1124 C.ar    1  UNL1        0.1388
     16 C         -70.1415  -54.7863  -19.9760 C.ar    1  UNL1        0.0374
     17 C         -71.1198  -53.8920  -19.5425 C.ar    1  UNL1        0.0100
     18 C         -71.6413  -53.9738  -18.2467 C.ar    1  UNL1        0.0410
     19 BR        -73.0314  -52.7256  -17.7986 Br      1  UNL1       -0.0488
     20 C         -71.1699  -54.9748  -17.3603 C.ar    1  UNL1        0.0847
     21 C         -70.1896  -55.8757  -17.8186 C.ar    1  UNL1        0.0438
     22 C         -71.6628  -55.1178  -15.9670 C.2     1  UNL1        0.3386
     23 O         -72.3407  -56.1191  -15.6151 O.2     1  UNL1       -0.2451
     24 O         -71.4033  -54.1174  -15.0332 O.3     1  UNL1       -0.4771
     25 H         -71.7414  -54.1932  -14.0812 H       1  UNL1        0.2954
     26 C         -63.6061  -49.2101  -25.9821 C.2     1  UNL1        0.2839
     27 O         -64.1479  -49.8757  -26.9051 O.2     1  UNL1       -0.2665
     28 N         -63.3339  -49.8234  -24.7115 N.am    1  UNL1       -0.2766
     29 H         -62.6289  -49.3682  -24.0883 H       1  UNL1        0.1553
     30 C         -63.6342  -47.6474  -28.7804 C.3     1  UNL1        0.0345
     31 C         -63.2233  -47.1220  -27.4378 C.ar    1  UNL1        0.0202
     32 C         -63.2118  -47.8081  -26.2182 C.ar    1  UNL1        0.1946
     33 O         -62.7878  -47.0099  -25.2545 O.2     1  UNL1       -0.4492
     34 C         -62.5231  -45.8416  -25.7863 C.ar    1  UNL1        0.1452
     35 C         -62.0534  -44.7056  -25.1365 C.ar    1  UNL1        0.0375
     36 C         -61.8373  -43.5481  -25.9040 C.ar    1  UNL1        0.0031
     37 C         -62.0922  -43.5427  -27.3021 C.ar    1  UNL1        0.0002
     38 C         -62.5695  -44.7210  -27.9249 C.ar    1  UNL1        0.0028
     39 C         -62.7725  -45.8519  -27.1325 C.ar    1  UNL1        0.0337
     40 C         -61.8603  -42.3137  -28.1027 C.ar    1  UNL1        0.0000
     41 C         -62.8357  -41.8547  -29.0084 C.ar    1  UNL1        0.0000
     42 C         -62.6142  -40.6977  -29.7615 C.ar    1  UNL1        0.0000
     43 C         -61.4207  -39.9866  -29.6197 C.ar    1  UNL1        0.0000
     44 C         -60.4454  -40.4313  -28.7244 C.ar    1  UNL1        0.0000
     45 C         -60.6611  -41.5882  -27.9693 C.ar    1  UNL1        0.0000
@<TRIPOS>BOND
     1    30    31    1
     2    31    32   ar
     3    32    26    1
     4    26    27    2
     5    26    28   am
     6    28     1    1
     7     1     2   ar
     8     2     3   ar
     9     3     4   ar
    10     4     7    1
    11     7     8    1
    12     8     9    1
    13     9    10    1
    14    10    13    1
    15    13    14    1
    16    14    15    1
    17    15    16   ar
    18    16    17   ar
    19    17    18   ar
    20    18    19    1
    21    18    20   ar
    22    20    22    1
    23    22    23    2
    24    22    24    1
    25    20    21   ar
    26    10    11    1
    27    11    12    1
    28     4     5   ar
    29     5     6   ar
    30    32    33   ar
    31    33    34   ar
    32    34    35   ar
    33    35    36   ar
    34    36    37   ar
    35    37    40    1
    36    40    41   ar
    37    41    42   ar
    38    42    43   ar
    39    43    44   ar
    40    44    45   ar
    41    37    38   ar
    42    38    39   ar
    43    39    31   ar
    44     6     1   ar
    45    39    34   ar
    46    12     7    1
    47    45    40   ar
    48    21    15   ar
    49    28    29    1
    50    24    25    1
@<TRIPOS>MOLECULE
*****
 45 50 0 0 0
SMALL
GASTEIGER

@<TRIPOS>ATOM
      1 C         -63.1327  -41.3135  -21.0037 C.ar    1  UNL1        0.0702
      2 C         -62.0488  -41.9493  -20.3885 C.ar    1  UNL1        0.0191
      3 C         -61.4303  -43.0398  -21.0017 C.ar    1  UNL1        0.0356
      4 C         -61.9125  -43.5110  -22.2366 C.ar    1  UNL1        0.1318
      5 N         -62.9867  -42.8896  -22.8004 N.ar    1  UNL1       -0.2279
      6 C         -63.6022  -41.8241  -22.2235 C.ar    1  UNL1        0.1149
      7 N         -61.2932  -44.6322  -22.9109 N.pl3   1  UNL1       -0.2932
      8 C         -59.9170  -44.5309  -23.4298 C.3     1  UNL1        0.0923
      9 C         -59.5836  -45.6772  -24.3964 C.3     1  UNL1        0.0252
     10 C         -60.7690  -45.9280  -25.3446 C.3     1  UNL1        0.0472
     11 C         -62.0525  -46.3191  -24.5631 C.3     1  UNL1        0.0252
     12 C         -62.0216  -45.8994  -23.0837 C.3     1  UNL1        0.0923
     13 C         -60.4039  -46.9930  -26.3964 C.3     1  UNL1        0.2054
     14 O         -59.6135  -46.4298  -27.4451 O.3     1  UNL1       -0.4755
     15 C         -60.1095  -45.7317  -28.5587 C.ar    1  UNL1        0.1388
     16 C         -61.4151  -45.2172  -28.6138 C.ar    1  UNL1        0.0374
     17 C         -61.8515  -44.5308  -29.7465 C.ar    1  UNL1        0.0100
     18 C         -61.0020  -44.3445  -30.8426 C.ar    1  UNL1        0.0410
     19 BR        -61.7038  -43.3235  -32.3109 Br      1  UNL1       -0.0488
     20 C         -59.6822  -44.8608  -30.8057 C.ar    1  UNL1        0.0847
     21 C         -59.2553  -45.5420  -29.6498 C.ar    1  UNL1        0.0438
     22 C         -58.7263  -44.7167  -31.9327 C.2     1  UNL1        0.3386
     23 O         -59.1289  -44.6473  -33.1240 O.2     1  UNL1       -0.2451
     24 O         -57.3565  -44.6887  -31.6814 O.3     1  UNL1       -0.4771
     25 H         -56.6896  -44.6021  -32.4392 H       1  UNL1        0.2954
     26 C         -63.3833  -38.8332  -20.5235 C.2     1  UNL1        0.2839
     27 O         -62.2843  -38.5508  -21.0721 O.2     1  UNL1       -0.2665
     28 N         -63.7735  -40.2051  -20.3489 N.am    1  UNL1       -0.2766
     29 H         -64.5114  -40.4186  -19.6401 H       1  UNL1        0.1553
     30 C         -66.5772  -38.6790  -20.7432 C.3     1  UNL1        0.0345
     31 C         -65.6496  -37.6834  -20.1143 C.ar    1  UNL1        0.0202
     32 C         -64.2550  -37.7542  -20.0212 C.ar    1  UNL1        0.1946
     33 O         -63.7891  -36.6878  -19.3956 O.2     1  UNL1       -0.4492
     34 C         -64.8095  -35.9287  -19.0786 C.ar    1  UNL1        0.1452
     35 C         -64.7790  -34.7101  -18.4098 C.ar    1  UNL1        0.0375
     36 C         -66.0010  -34.0588  -18.1686 C.ar    1  UNL1        0.0031
     37 C         -67.2290  -34.6316  -18.5972 C.ar    1  UNL1        0.0002
     38 C         -67.2157  -35.8741  -19.2755 C.ar    1  UNL1        0.0028
     39 C         -65.9844  -36.4926  -19.4982 C.ar    1  UNL1        0.0337
     40 C         -68.5139  -33.9344  -18.3365 C.ar    1  UNL1        0.0000
     41 C         -69.7134  -34.4093  -18.9007 C.ar    1  UNL1        0.0000
     42 C         -70.9216  -33.7501  -18.6543 C.ar    1  UNL1        0.0000
     43 C         -70.9474  -32.6131  -17.8438 C.ar    1  UNL1        0.0000
     44 C         -69.7645  -32.1323  -17.2780 C.ar    1  UNL1        0.0000
     45 C         -68.5532  -32.7868  -17.5217 C.ar    1  UNL1        0.0000
@<TRIPOS>BOND
     1    30    31    1
     2    31    32   ar
     3    32    26    1
     4    26    27    2
     5    26    28   am
     6    28     1    1
     7     1     2   ar
     8     2     3   ar
     9     3     4   ar
    10     4     7    1
    11     7     8    1
    12     8     9    1
    13     9    10    1
    14    10    13    1
    15    13    14    1
    16    14    15    1
    17    15    16   ar
    18    16    17   ar
    19    17    18   ar
    20    18    19    1
    21    18    20   ar
    22    20    22    1
    23    22    23    2
    24    22    24    1
    25    20    21   ar
    26    10    11    1
    27    11    12    1
    28     4     5   ar
    29     5     6   ar
    30    32    33   ar
    31    33    34   ar
    32    34    35   ar
    33    35    36   ar
    34    36    37   ar
    35    37    40    1
    36    40    41   ar
    37    41    42   ar
    38    42    43   ar
    39    43    44   ar
    40    44    45   ar
    41    37    38   ar
    42    38    39   ar
    43    39    31   ar
    44     6     1   ar
    45    39    34   ar
    46    12     7    1
    47    45    40   ar
    48    21    15   ar
    49    28    29    1
    50    24    25    1
