@<TRIPOS>MOLECULE
*****
 31 33 0 0 0
SMALL
GASTEIGER

@<TRIPOS>ATOM
      1 C         -21.6876  -10.0497  -12.3948 C.2     1  UNL1       -0.0222
      2 C         -22.0796  -10.3749  -13.6595 C.2     1  UNL1       -0.0040
      3 C         -22.4035   -9.3352  -14.6711 C.ar    1  UNL1       -0.0001
      4 C         -21.4660   -9.0013  -15.6604 C.ar    1  UNL1        0.0031
      5 C         -21.7529   -8.0093  -16.6020 C.ar    1  UNL1        0.0369
      6 C         -22.9824   -7.3232  -16.5596 C.ar    1  UNL1        0.1386
      7 C         -23.9106   -7.6514  -15.5650 C.ar    1  UNL1        0.0369
      8 C         -23.6238   -8.6419  -14.6226 C.ar    1  UNL1        0.0031
      9 O         -23.3253   -6.3172  -17.4785 O.3     1  UNL1       -0.4740
     10 C         -24.6275   -6.0975  -18.0221 C.3     1  UNL1        0.2226
     11 C         -25.1466   -4.7054  -17.6405 C.3     1  UNL1        0.1201
     12 N         -26.5127   -4.7900  -17.0794 N.3     1  UNL1       -0.2672
     13 C         -27.3327   -3.6703  -17.5702 C.3     1  UNL1        0.0898
     14 C         -26.4836   -4.7644  -15.6061 C.3     1  UNL1        0.0898
     15 C         -22.1612  -11.7817  -14.1166 C.ar    1  UNL1       -0.0006
     16 C         -20.9962  -12.5051  -14.4093 C.ar    1  UNL1       -0.0000
     17 C         -21.0799  -13.8426  -14.7995 C.ar    1  UNL1       -0.0003
     18 C         -22.3235  -14.4734  -14.8843 C.ar    1  UNL1       -0.0043
     19 C         -23.5010  -13.7723  -14.5708 C.ar    1  UNL1       -0.0225
     20 C         -23.4073  -12.4237  -14.1779 C.ar    1  UNL1       -0.0043
     21 C         -24.8454  -14.4696  -14.6549 C.3     1  UNL1        0.0224
     22 C         -25.1293  -14.9495  -16.0832 C.3     1  UNL1        0.0047
     23 C         -25.9707  -13.5622  -14.1432 C.3     1  UNL1        0.0047
     24 C         -21.8056   -8.6533  -11.8929 C.ar    1  UNL1       -0.0040
     25 C         -20.8895   -7.6673  -12.2983 C.ar    1  UNL1       -0.0003
     26 C         -21.0061   -6.3574  -11.8233 C.ar    1  UNL1       -0.0000
     27 C         -22.0308   -6.0225  -10.9346 C.ar    1  UNL1       -0.0000
     28 C         -22.9384   -6.9980  -10.5151 C.ar    1  UNL1       -0.0000
     29 C         -22.8251   -8.3091  -10.9865 C.ar    1  UNL1       -0.0003
     30 C         -19.9078  -10.5655  -10.6784 C.3     1  UNL1        0.0050
     31 C         -21.1303  -11.0860  -11.4339 C.3     1  UNL1        0.0264
@<TRIPOS>BOND
     1    30    31    1
     2    31     1    1
     3     1     2    2
     4     2     3    1
     5     3     4   ar
     6     4     5   ar
     7     5     6   ar
     8     6     9    1
     9     9    10    1
    10    10    11    1
    11    11    12    1
    12    12    13    1
    13    12    14    1
    14     6     7   ar
    15     7     8   ar
    16     2    15    1
    17    15    16   ar
    18    16    17   ar
    19    17    18   ar
    20    18    19   ar
    21    19    21    1
    22    21    22    1
    23    21    23    1
    24    19    20   ar
    25     1    24    1
    26    24    25   ar
    27    25    26   ar
    28    26    27   ar
    29    27    28   ar
    30    28    29   ar
    31     8     3   ar
    32    20    15   ar
    33    29    24   ar
@<TRIPOS>MOLECULE
*****
 31 33 0 0 0
SMALL
GASTEIGER

@<TRIPOS>ATOM
      1 C         -22.0951   -8.7302  -12.6006 C.2     1  UNL1       -0.0222
      2 C         -21.5195   -9.6366  -11.7603 C.2     1  UNL1       -0.0040
      3 C         -21.2697   -9.3286  -10.3279 C.ar    1  UNL1       -0.0001
      4 C         -22.3421   -9.2682   -9.4249 C.ar    1  UNL1        0.0031
      5 C         -22.1194   -8.9573   -8.0807 C.ar    1  UNL1        0.0369
      6 C         -20.8159   -8.6871   -7.6201 C.ar    1  UNL1        0.1386
      7 C         -19.7503   -8.7377   -8.5257 C.ar    1  UNL1        0.0369
      8 C         -19.9724   -9.0469   -9.8698 C.ar    1  UNL1        0.0031
      9 O         -20.5320   -8.3686   -6.2815 O.3     1  UNL1       -0.4740
     10 C         -19.2335   -8.3596   -5.6872 C.3     1  UNL1        0.2226
     11 C         -19.2890   -8.9048   -4.2544 C.3     1  UNL1        0.1201
     12 N         -20.4914   -8.4085   -3.5499 N.3     1  UNL1       -0.2672
     13 C         -20.0986   -7.5645   -2.4095 C.3     1  UNL1        0.0898
     14 C         -21.3222   -9.5258   -3.0669 C.3     1  UNL1        0.0898
     15 C         -21.1513  -10.9987  -12.2115 C.ar    1  UNL1       -0.0006
     16 C         -20.4206  -11.8540  -11.3742 C.ar    1  UNL1       -0.0000
     17 C         -20.1135  -13.1503  -11.7908 C.ar    1  UNL1       -0.0003
     18 C         -20.5469  -13.6091  -13.0371 C.ar    1  UNL1       -0.0043
     19 C         -21.3018  -12.7752  -13.8803 C.ar    1  UNL1       -0.0225
     20 C         -21.6072  -11.4695  -13.4521 C.ar    1  UNL1       -0.0043
     21 C         -21.7775  -13.2868  -15.2267 C.3     1  UNL1        0.0224
     22 C         -22.5385  -12.1981  -15.9927 C.3     1  UNL1        0.0047
     23 C         -22.6324  -14.5497  -15.0666 C.3     1  UNL1        0.0047
     24 C         -22.2709   -7.3104  -12.1895 C.ar    1  UNL1       -0.0040
     25 C         -23.5567   -6.7607  -12.0461 C.ar    1  UNL1       -0.0003
     26 C         -23.7148   -5.4264  -11.6593 C.ar    1  UNL1       -0.0000
     27 C         -22.5934   -4.6279  -11.4211 C.ar    1  UNL1       -0.0000
     28 C         -21.3111   -5.1607  -11.5736 C.ar    1  UNL1       -0.0000
     29 C         -21.1481   -6.4938  -11.9611 C.ar    1  UNL1       -0.0003
     30 C         -21.8453   -8.3170  -15.0799 C.3     1  UNL1        0.0050
     31 C         -22.5686   -9.1115  -13.9928 C.3     1  UNL1        0.0264
@<TRIPOS>BOND
     1    30    31    1
     2    31     1    1
     3     1     2    2
     4     2     3    1
     5     3     4   ar
     6     4     5   ar
     7     5     6   ar
     8     6     9    1
     9     9    10    1
    10    10    11    1
    11    11    12    1
    12    12    13    1
    13    12    14    1
    14     6     7   ar
    15     7     8   ar
    16     2    15    1
    17    15    16   ar
    18    16    17   ar
    19    17    18   ar
    20    18    19   ar
    21    19    21    1
    22    21    22    1
    23    21    23    1
    24    19    20   ar
    25     1    24    1
    26    24    25   ar
    27    25    26   ar
    28    26    27   ar
    29    27    28   ar
    30    28    29   ar
    31     8     3   ar
    32    20    15   ar
    33    29    24   ar
@<TRIPOS>MOLECULE
*****
 31 33 0 0 0
SMALL
GASTEIGER

@<TRIPOS>ATOM
      1 C         -22.8477   -8.4095  -12.5848 C.2     1  UNL1       -0.0222
      2 C         -22.0704   -9.5209  -12.7247 C.2     1  UNL1       -0.0040
      3 C         -20.9569   -9.8214  -11.7872 C.ar    1  UNL1       -0.0001
      4 C         -20.8496  -11.0954  -11.2090 C.ar    1  UNL1        0.0031
      5 C         -19.8189  -11.3803  -10.3092 C.ar    1  UNL1        0.0369
      6 C         -18.8836  -10.3860   -9.9617 C.ar    1  UNL1        0.1386
      7 C         -19.0000   -9.1134  -10.5321 C.ar    1  UNL1        0.0369
      8 C         -20.0309   -8.8276  -11.4305 C.ar    1  UNL1        0.0031
      9 O         -17.8279  -10.6142   -9.0632 O.3     1  UNL1       -0.4740
     10 C         -17.4035  -11.8922   -8.5877 C.3     1  UNL1        0.2226
     11 C         -16.1729  -12.3782   -9.3639 C.3     1  UNL1        0.1201
     12 N         -14.9347  -11.7917   -8.8060 N.3     1  UNL1       -0.2672
     13 C         -13.8544  -11.8433   -9.8047 C.3     1  UNL1        0.0898
     14 C         -14.5097  -12.5076   -7.5899 C.3     1  UNL1        0.0898
     15 C         -22.3175  -10.5201  -13.7902 C.ar    1  UNL1       -0.0006
     16 C         -21.6339  -10.4432  -15.0121 C.ar    1  UNL1       -0.0000
     17 C         -21.8419  -11.4124  -15.9949 C.ar    1  UNL1       -0.0003
     18 C         -22.7193  -12.4739  -15.7605 C.ar    1  UNL1       -0.0043
     19 C         -23.3950  -12.5820  -14.5325 C.ar    1  UNL1       -0.0225
     20 C         -23.1790  -11.6004  -13.5469 C.ar    1  UNL1       -0.0043
     21 C         -24.3368  -13.7447  -14.2835 C.3     1  UNL1        0.0224
     22 C         -24.2105  -14.8025  -15.3863 C.3     1  UNL1        0.0047
     23 C         -25.7855  -13.2616  -14.1450 C.3     1  UNL1        0.0047
     24 C         -22.4643   -7.3217  -11.6438 C.ar    1  UNL1       -0.0040
     25 C         -22.6952   -7.4548  -10.2636 C.ar    1  UNL1       -0.0003
     26 C         -22.3324   -6.4293   -9.3852 C.ar    1  UNL1       -0.0000
     27 C         -21.7449   -5.2607   -9.8761 C.ar    1  UNL1       -0.0000
     28 C         -21.5232   -5.1129  -11.2474 C.ar    1  UNL1       -0.0000
     29 C         -21.8852   -6.1350  -12.1295 C.ar    1  UNL1       -0.0003
     30 C         -25.3595   -8.6742  -12.6089 C.3     1  UNL1        0.0050
     31 C         -24.1248   -8.2152  -13.3842 C.3     1  UNL1        0.0264
@<TRIPOS>BOND
     1    30    31    1
     2    31     1    1
     3     1     2    2
     4     2     3    1
     5     3     4   ar
     6     4     5   ar
     7     5     6   ar
     8     6     9    1
     9     9    10    1
    10    10    11    1
    11    11    12    1
    12    12    13    1
    13    12    14    1
    14     6     7   ar
    15     7     8   ar
    16     2    15    1
    17    15    16   ar
    18    16    17   ar
    19    17    18   ar
    20    18    19   ar
    21    19    21    1
    22    21    22    1
    23    21    23    1
    24    19    20   ar
    25     1    24    1
    26    24    25   ar
    27    25    26   ar
    28    26    27   ar
    29    27    28   ar
    30    28    29   ar
    31     8     3   ar
    32    20    15   ar
    33    29    24   ar
@<TRIPOS>MOLECULE
*****
 31 33 0 0 0
SMALL
GASTEIGER

@<TRIPOS>ATOM
      1 C         -22.1009   -8.7483  -12.6007 C.2     1  UNL1       -0.0222
      2 C         -21.5019   -9.6495  -11.7713 C.2     1  UNL1       -0.0040
      3 C         -21.2154   -9.3340  -10.3474 C.ar    1  UNL1       -0.0001
      4 C         -22.2642   -9.2682   -9.4175 C.ar    1  UNL1        0.0031
      5 C         -22.0071   -8.9503   -8.0812 C.ar    1  UNL1        0.0369
      6 C         -20.6921   -8.6783   -7.6556 C.ar    1  UNL1        0.1386
      7 C         -19.6501   -8.7343   -8.5879 C.ar    1  UNL1        0.0369
      8 C         -19.9067   -9.0506   -9.9241 C.ar    1  UNL1        0.0031
      9 O         -20.3739   -8.3528   -6.3264 O.3     1  UNL1       -0.4740
     10 C         -19.0642   -8.0733   -5.8304 C.3     1  UNL1        0.2226
     11 C         -18.9022   -8.6013   -4.3993 C.3     1  UNL1        0.1201
     12 N         -17.6196   -9.3227   -4.2477 N.3     1  UNL1       -0.2672
     13 C         -16.4939   -8.3774   -4.3263 C.3     1  UNL1        0.0898
     14 C         -17.4647  -10.3538   -5.2892 C.3     1  UNL1        0.0898
     15 C         -21.1432  -11.0133  -12.2252 C.ar    1  UNL1       -0.0006
     16 C         -20.4109  -11.8722  -11.3930 C.ar    1  UNL1       -0.0000
     17 C         -20.1127  -13.1698  -11.8120 C.ar    1  UNL1       -0.0003
     18 C         -20.5566  -13.6263  -13.0554 C.ar    1  UNL1       -0.0043
     19 C         -21.3133  -12.7887  -13.8933 C.ar    1  UNL1       -0.0225
     20 C         -21.6096  -11.4816  -13.4628 C.ar    1  UNL1       -0.0043
     21 C         -21.8003  -13.2977  -15.2367 C.3     1  UNL1        0.0224
     22 C         -22.5317  -12.1953  -16.0118 C.3     1  UNL1        0.0047
     23 C         -22.6881  -14.5366  -15.0684 C.3     1  UNL1        0.0047
     24 C         -22.2685   -7.3267  -12.1921 C.ar    1  UNL1       -0.0040
     25 C         -21.1469   -6.5108  -11.9636 C.ar    1  UNL1       -0.0003
     26 C         -21.3113   -5.1763  -11.5803 C.ar    1  UNL1       -0.0000
     27 C         -22.5937   -4.6475  -11.4135 C.ar    1  UNL1       -0.0000
     28 C         -23.7147   -5.4537  -11.6252 C.ar    1  UNL1       -0.0000
     29 C         -23.5553   -6.7887  -12.0075 C.ar    1  UNL1       -0.0003
     30 C         -21.9591   -8.3061  -15.0835 C.3     1  UNL1        0.0050
     31 C         -22.6099   -9.1373  -13.9781 C.3     1  UNL1        0.0264
@<TRIPOS>BOND
     1    30    31    1
     2    31     1    1
     3     1     2    2
     4     2     3    1
     5     3     4   ar
     6     4     5   ar
     7     5     6   ar
     8     6     9    1
     9     9    10    1
    10    10    11    1
    11    11    12    1
    12    12    13    1
    13    12    14    1
    14     6     7   ar
    15     7     8   ar
    16     2    15    1
    17    15    16   ar
    18    16    17   ar
    19    17    18   ar
    20    18    19   ar
    21    19    21    1
    22    21    22    1
    23    21    23    1
    24    19    20   ar
    25     1    24    1
    26    24    25   ar
    27    25    26   ar
    28    26    27   ar
    29    27    28   ar
    30    28    29   ar
    31     8     3   ar
    32    20    15   ar
    33    29    24   ar
@<TRIPOS>MOLECULE
*****
 31 33 0 0 0
SMALL
GASTEIGER

@<TRIPOS>ATOM
      1 C         -22.9695   -8.4754  -13.0338 C.2     1  UNL1       -0.0222
      2 C         -22.3464   -9.5779  -12.5284 C.2     1  UNL1       -0.0040
      3 C         -21.5918   -9.5336  -11.2486 C.ar    1  UNL1       -0.0001
      4 C         -22.2771   -9.3809  -10.0338 C.ar    1  UNL1        0.0031
      5 C         -21.5745   -9.3158   -8.8275 C.ar    1  UNL1        0.0369
      6 C         -20.1677   -9.3889   -8.8195 C.ar    1  UNL1        0.1386
      7 C         -19.4870   -9.5304  -10.0339 C.ar    1  UNL1        0.0369
      8 C         -20.1888   -9.5940  -11.2401 C.ar    1  UNL1        0.0031
      9 O         -19.4088   -9.3283   -7.6387 O.3     1  UNL1       -0.4740
     10 C         -19.3191   -8.2016   -6.7658 C.3     1  UNL1        0.2226
     11 C         -18.5112   -8.5517   -5.5097 C.3     1  UNL1        0.1201
     12 N         -17.9714   -7.3294   -4.8749 N.3     1  UNL1       -0.2672
     13 C         -16.5003   -7.3780   -4.8507 C.3     1  UNL1        0.0898
     14 C         -18.4775   -7.1785   -3.4989 C.3     1  UNL1        0.0898
     15 C         -22.4228  -10.8967  -13.1987 C.ar    1  UNL1       -0.0006
     16 C         -21.2542  -11.6032  -13.5175 C.ar    1  UNL1       -0.0000
     17 C         -21.3362  -12.8637  -14.1116 C.ar    1  UNL1       -0.0003
     18 C         -22.5827  -13.4361  -14.3764 C.ar    1  UNL1       -0.0043
     19 C         -23.7656  -12.7543  -14.0413 C.ar    1  UNL1       -0.0225
     20 C         -23.6737  -11.4837  -13.4422 C.ar    1  UNL1       -0.0043
     21 C         -25.1140  -13.3895  -14.3224 C.3     1  UNL1        0.0224
     22 C         -25.7514  -13.9233  -13.0341 C.3     1  UNL1        0.0047
     23 C         -24.9940  -14.4949  -15.3784 C.3     1  UNL1        0.0047
     24 C         -22.7164   -7.1245  -12.4621 C.ar    1  UNL1       -0.0040
     25 C         -21.4040   -6.6406  -12.3230 C.ar    1  UNL1       -0.0003
     26 C         -21.1733   -5.3706  -11.7854 C.ar    1  UNL1       -0.0000
     27 C         -22.2476   -4.5773  -11.3748 C.ar    1  UNL1       -0.0000
     28 C         -23.5549   -5.0543  -11.4964 C.ar    1  UNL1       -0.0000
     29 C         -23.7904   -6.3237  -12.0323 C.ar    1  UNL1       -0.0003
     30 C         -23.3071   -8.0418  -15.4992 C.3     1  UNL1        0.0050
     31 C         -23.9328   -8.5621  -14.2053 C.3     1  UNL1        0.0264
@<TRIPOS>BOND
     1    30    31    1
     2    31     1    1
     3     1     2    2
     4     2     3    1
     5     3     4   ar
     6     4     5   ar
     7     5     6   ar
     8     6     9    1
     9     9    10    1
    10    10    11    1
    11    11    12    1
    12    12    13    1
    13    12    14    1
    14     6     7   ar
    15     7     8   ar
    16     2    15    1
    17    15    16   ar
    18    16    17   ar
    19    17    18   ar
    20    18    19   ar
    21    19    21    1
    22    21    22    1
    23    21    23    1
    24    19    20   ar
    25     1    24    1
    26    24    25   ar
    27    25    26   ar
    28    26    27   ar
    29    27    28   ar
    30    28    29   ar
    31     8     3   ar
    32    20    15   ar
    33    29    24   ar
@<TRIPOS>MOLECULE
*****
 31 33 0 0 0
SMALL
GASTEIGER

@<TRIPOS>ATOM
      1 C         -21.5103  -10.7104  -11.6135 C.2     1  UNL1       -0.0222
      2 C         -22.2511  -10.8113  -12.7537 C.2     1  UNL1       -0.0040
      3 C         -23.0477   -9.6695  -13.2741 C.ar    1  UNL1       -0.0001
      4 C         -22.4852   -8.7895  -14.2113 C.ar    1  UNL1        0.0031
      5 C         -23.2187   -7.7003  -14.6893 C.ar    1  UNL1        0.0369
      6 C         -24.5275   -7.4657  -14.2243 C.ar    1  UNL1        0.1386
      7 C         -25.0813   -8.3391  -13.2817 C.ar    1  UNL1        0.0369
      8 C         -24.3481   -9.4272  -12.8023 C.ar    1  UNL1        0.0031
      9 O         -25.3115   -6.3875  -14.6681 O.3     1  UNL1       -0.4740
     10 C         -26.2567   -5.6666  -13.8767 C.3     1  UNL1        0.2226
     11 C         -27.4042   -5.1403  -14.7481 C.3     1  UNL1        0.1201
     12 N         -28.7078   -5.6369  -14.2557 N.3     1  UNL1       -0.2672
     13 C         -28.6621   -7.0983  -14.0850 C.3     1  UNL1        0.0898
     14 C         -29.7947   -5.2882  -15.1879 C.3     1  UNL1        0.0898
     15 C         -22.2701  -12.0486  -13.5682 C.ar    1  UNL1       -0.0006
     16 C         -21.0781  -12.5900  -14.0704 C.ar    1  UNL1       -0.0000
     17 C         -21.1006  -13.7786  -14.8019 C.ar    1  UNL1       -0.0003
     18 C         -22.3084  -14.4448  -15.0234 C.ar    1  UNL1       -0.0043
     19 C         -23.5106  -13.9311  -14.5069 C.ar    1  UNL1       -0.0225
     20 C         -23.4788  -12.7320  -13.7700 C.ar    1  UNL1       -0.0043
     21 C         -24.8152  -14.6681  -14.7431 C.3     1  UNL1        0.0224
     22 C         -25.0017  -14.9964  -16.2292 C.3     1  UNL1        0.0047
     23 C         -26.0063  -13.8695  -14.2002 C.3     1  UNL1        0.0047
     24 C         -21.6602   -9.5408  -10.7052 C.ar    1  UNL1       -0.0040
     25 C         -22.5248   -9.6003   -9.5984 C.ar    1  UNL1       -0.0003
     26 C         -22.6608   -8.4981   -8.7489 C.ar    1  UNL1       -0.0000
     27 C         -21.9433   -7.3261   -9.0007 C.ar    1  UNL1       -0.0000
     28 C         -21.0915   -7.2520  -10.1054 C.ar    1  UNL1       -0.0000
     29 C         -20.9531   -8.3510  -10.9580 C.ar    1  UNL1       -0.0003
     30 C         -19.3673  -11.2078  -10.3724 C.3     1  UNL1        0.0050
     31 C         -20.5141  -11.7818  -11.2041 C.3     1  UNL1        0.0264
@<TRIPOS>BOND
     1    30    31    1
     2    31     1    1
     3     1     2    2
     4     2     3    1
     5     3     4   ar
     6     4     5   ar
     7     5     6   ar
     8     6     9    1
     9     9    10    1
    10    10    11    1
    11    11    12    1
    12    12    13    1
    13    12    14    1
    14     6     7   ar
    15     7     8   ar
    16     2    15    1
    17    15    16   ar
    18    16    17   ar
    19    17    18   ar
    20    18    19   ar
    21    19    21    1
    22    21    22    1
    23    21    23    1
    24    19    20   ar
    25     1    24    1
    26    24    25   ar
    27    25    26   ar
    28    26    27   ar
    29    27    28   ar
    30    28    29   ar
    31     8     3   ar
    32    20    15   ar
    33    29    24   ar
@<TRIPOS>MOLECULE
*****
 31 33 0 0 0
SMALL
GASTEIGER

@<TRIPOS>ATOM
      1 C         -22.4489  -10.4232  -12.1325 C.2     1  UNL1       -0.0222
      2 C         -23.1684  -10.1418  -13.2559 C.2     1  UNL1       -0.0040
      3 C         -24.1143   -8.9968  -13.3141 C.ar    1  UNL1       -0.0001
      4 C         -23.6282   -7.6920  -13.4872 C.ar    1  UNL1        0.0031
      5 C         -24.5083   -6.6069  -13.5208 C.ar    1  UNL1        0.0369
      6 C         -25.8937   -6.8103  -13.3669 C.ar    1  UNL1        0.1386
      7 C         -26.3739   -8.1119  -13.1838 C.ar    1  UNL1        0.0369
      8 C         -25.4945   -9.1967  -13.1487 C.ar    1  UNL1        0.0031
      9 O         -26.8251   -5.7587  -13.3914 O.3     1  UNL1       -0.4740
     10 C         -27.7371   -5.4815  -14.4548 C.3     1  UNL1        0.2226
     11 C         -27.0741   -4.6022  -15.5226 C.3     1  UNL1        0.1201
     12 N         -28.0427   -3.6332  -16.0804 N.3     1  UNL1       -0.2672
     13 C         -29.4176   -4.1234  -15.8894 C.3     1  UNL1        0.0898
     14 C         -27.8001   -3.4076  -17.5165 C.3     1  UNL1        0.0898
     15 C         -23.0168  -10.9304  -14.5008 C.ar    1  UNL1       -0.0006
     16 C         -22.2236  -10.4540  -15.5545 C.ar    1  UNL1       -0.0000
     17 C         -22.0527  -11.2223  -16.7072 C.ar    1  UNL1       -0.0003
     18 C         -22.6570  -12.4776  -16.8112 C.ar    1  UNL1       -0.0043
     19 C         -23.4356  -12.9832  -15.7555 C.ar    1  UNL1       -0.0225
     20 C         -23.6023  -12.2019  -14.5965 C.ar    1  UNL1       -0.0043
     21 C         -24.0780  -14.3522  -15.8736 C.3     1  UNL1        0.0224
     22 C         -25.3507  -14.4393  -15.0228 C.3     1  UNL1        0.0047
     23 C         -23.0868  -15.4609  -15.4998 C.3     1  UNL1        0.0047
     24 C         -22.7586   -9.7554  -10.8387 C.ar    1  UNL1       -0.0040
     25 C         -23.7659  -10.2581   -9.9969 C.ar    1  UNL1       -0.0003
     26 C         -24.0516   -9.6261   -8.7829 C.ar    1  UNL1       -0.0000
     27 C         -23.3420   -8.4841   -8.4028 C.ar    1  UNL1       -0.0000
     28 C         -22.3482   -7.9688   -9.2383 C.ar    1  UNL1       -0.0000
     29 C         -22.0598   -8.5967  -10.4535 C.ar    1  UNL1       -0.0003
     30 C         -20.3451  -11.2086  -10.9761 C.3     1  UNL1        0.0050
     31 C         -21.3150  -11.4342  -12.1357 C.3     1  UNL1        0.0264
@<TRIPOS>BOND
     1    30    31    1
     2    31     1    1
     3     1     2    2
     4     2     3    1
     5     3     4   ar
     6     4     5   ar
     7     5     6   ar
     8     6     9    1
     9     9    10    1
    10    10    11    1
    11    11    12    1
    12    12    13    1
    13    12    14    1
    14     6     7   ar
    15     7     8   ar
    16     2    15    1
    17    15    16   ar
    18    16    17   ar
    19    17    18   ar
    20    18    19   ar
    21    19    21    1
    22    21    22    1
    23    21    23    1
    24    19    20   ar
    25     1    24    1
    26    24    25   ar
    27    25    26   ar
    28    26    27   ar
    29    27    28   ar
    30    28    29   ar
    31     8     3   ar
    32    20    15   ar
    33    29    24   ar
@<TRIPOS>MOLECULE
*****
 31 33 0 0 0
SMALL
GASTEIGER

@<TRIPOS>ATOM
      1 C         -22.5554   -9.1377  -13.0560 C.2     1  UNL1       -0.0222
      2 C         -23.6572   -9.2678  -13.8485 C.2     1  UNL1       -0.0040
      3 C         -24.7578   -8.2691  -13.8302 C.ar    1  UNL1       -0.0001
      4 C         -25.9560   -8.5562  -13.1587 C.ar    1  UNL1        0.0031
      5 C         -27.0047   -7.6325  -13.1550 C.ar    1  UNL1        0.0369
      6 C         -26.8752   -6.4074  -13.8381 C.ar    1  UNL1        0.1386
      7 C         -25.6829   -6.1290  -14.5156 C.ar    1  UNL1        0.0369
      8 C         -24.6348   -7.0526  -14.5209 C.ar    1  UNL1        0.0031
      9 O         -27.8951   -5.4416  -13.8695 O.3     1  UNL1       -0.4740
     10 C         -28.4174   -4.8231  -15.0460 C.3     1  UNL1        0.2226
     11 C         -29.9449   -4.9550  -15.0956 C.3     1  UNL1        0.1201
     12 N         -30.5878   -3.6228  -15.0805 N.3     1  UNL1       -0.2672
     13 C         -31.9816   -3.7376  -14.6208 C.3     1  UNL1        0.0898
     14 C         -30.5647   -3.0075  -16.4195 C.3     1  UNL1        0.0898
     15 C         -23.8030  -10.3860  -14.8092 C.ar    1  UNL1       -0.0006
     16 C         -23.3969  -10.2375  -16.1432 C.ar    1  UNL1       -0.0000
     17 C         -23.4995  -11.3093  -17.0315 C.ar    1  UNL1       -0.0003
     18 C         -23.9912  -12.5411  -16.5928 C.ar    1  UNL1       -0.0043
     19 C         -24.3800  -12.7170  -15.2534 C.ar    1  UNL1       -0.0225
     20 C         -24.2730  -11.6309  -14.3642 C.ar    1  UNL1       -0.0043
     21 C         -24.9019  -14.0618  -14.7843 C.3     1  UNL1        0.0224
     22 C         -25.1257  -15.0099  -15.9683 C.3     1  UNL1        0.0047
     23 C         -26.1830  -13.8987  -13.9575 C.3     1  UNL1        0.0047
     24 C         -22.5161   -8.1309  -11.9603 C.ar    1  UNL1       -0.0040
     25 C         -23.0722   -8.4202  -10.7021 C.ar    1  UNL1       -0.0003
     26 C         -23.0316   -7.4701   -9.6772 C.ar    1  UNL1       -0.0000
     27 C         -22.4447   -6.2221   -9.9007 C.ar    1  UNL1       -0.0000
     28 C         -21.9011   -5.9198  -11.1515 C.ar    1  UNL1       -0.0000
     29 C         -21.9402   -6.8661  -12.1795 C.ar    1  UNL1       -0.0003
     30 C         -21.2818  -11.1496  -12.2131 C.3     1  UNL1        0.0050
     31 C         -21.3275  -10.0141  -13.2352 C.3     1  UNL1        0.0264
@<TRIPOS>BOND
     1    30    31    1
     2    31     1    1
     3     1     2    2
     4     2     3    1
     5     3     4   ar
     6     4     5   ar
     7     5     6   ar
     8     6     9    1
     9     9    10    1
    10    10    11    1
    11    11    12    1
    12    12    13    1
    13    12    14    1
    14     6     7   ar
    15     7     8   ar
    16     2    15    1
    17    15    16   ar
    18    16    17   ar
    19    17    18   ar
    20    18    19   ar
    21    19    21    1
    22    21    22    1
    23    21    23    1
    24    19    20   ar
    25     1    24    1
    26    24    25   ar
    27    25    26   ar
    28    26    27   ar
    29    27    28   ar
    30    28    29   ar
    31     8     3   ar
    32    20    15   ar
    33    29    24   ar
@<TRIPOS>MOLECULE
*****
 31 33 0 0 0
SMALL
GASTEIGER

@<TRIPOS>ATOM
      1 C         -23.4053   -9.9470  -12.1398 C.2     1  UNL1       -0.0222
      2 C         -22.4466  -10.7485  -12.6851 C.2     1  UNL1       -0.0040
      3 C         -21.2673  -11.2029  -11.9029 C.ar    1  UNL1       -0.0001
      4 C         -20.5140  -10.2768  -11.1654 C.ar    1  UNL1        0.0031
      5 C         -19.3906  -10.6911  -10.4449 C.ar    1  UNL1        0.0369
      6 C         -18.9935  -12.0425  -10.4625 C.ar    1  UNL1        0.1386
      7 C         -19.7408  -12.9614  -11.2077 C.ar    1  UNL1        0.0369
      8 C         -20.8631  -12.5476  -11.9293 C.ar    1  UNL1        0.0031
      9 O         -17.8736  -12.5164   -9.7588 O.3     1  UNL1       -0.4740
     10 C         -16.9279  -11.7061   -9.0599 C.3     1  UNL1        0.2226
     11 C         -16.2604  -12.5026   -7.9315 C.3     1  UNL1        0.1201
     12 N         -14.8618  -12.8357   -8.2800 N.3     1  UNL1       -0.2672
     13 C         -13.9529  -12.3889   -7.2117 C.3     1  UNL1        0.0898
     14 C         -14.4674  -12.2046   -9.5520 C.3     1  UNL1        0.0898
     15 C         -22.5453  -11.2532  -14.0744 C.ar    1  UNL1       -0.0006
     16 C         -21.8729  -10.6026  -15.1189 C.ar    1  UNL1       -0.0000
     17 C         -21.9377  -11.1087  -16.4181 C.ar    1  UNL1       -0.0003
     18 C         -22.6584  -12.2759  -16.6826 C.ar    1  UNL1       -0.0043
     19 C         -23.3185  -12.9563  -15.6445 C.ar    1  UNL1       -0.0225
     20 C         -23.2477  -12.4390  -14.3372 C.ar    1  UNL1       -0.0043
     21 C         -24.0889  -14.2291  -15.9401 C.3     1  UNL1        0.0224
     22 C         -25.2975  -14.3714  -15.0072 C.3     1  UNL1        0.0047
     23 C         -23.1769  -15.4588  -15.8540 C.3     1  UNL1        0.0047
     24 C         -23.1924   -9.2880  -10.8221 C.ar    1  UNL1       -0.0040
     25 C         -22.6018   -8.0147  -10.7459 C.ar    1  UNL1       -0.0003
     26 C         -22.4050   -7.4012   -9.5050 C.ar    1  UNL1       -0.0000
     27 C         -22.7871   -8.0551   -8.3310 C.ar    1  UNL1       -0.0000
     28 C         -23.3627   -9.3263   -8.3950 C.ar    1  UNL1       -0.0000
     29 C         -23.5605   -9.9441   -9.6332 C.ar    1  UNL1       -0.0003
     30 C         -24.7019   -8.3403  -13.5949 C.3     1  UNL1        0.0050
     31 C         -24.7219   -9.6728  -12.8463 C.3     1  UNL1        0.0264
@<TRIPOS>BOND
     1    30    31    1
     2    31     1    1
     3     1     2    2
     4     2     3    1
     5     3     4   ar
     6     4     5   ar
     7     5     6   ar
     8     6     9    1
     9     9    10    1
    10    10    11    1
    11    11    12    1
    12    12    13    1
    13    12    14    1
    14     6     7   ar
    15     7     8   ar
    16     2    15    1
    17    15    16   ar
    18    16    17   ar
    19    17    18   ar
    20    18    19   ar
    21    19    21    1
    22    21    22    1
    23    21    23    1
    24    19    20   ar
    25     1    24    1
    26    24    25   ar
    27    25    26   ar
    28    26    27   ar
    29    27    28   ar
    30    28    29   ar
    31     8     3   ar
    32    20    15   ar
    33    29    24   ar
