@<TRIPOS>MOLECULE
*****
 52 57 0 0 0
SMALL
GASTEIGER

@<TRIPOS>ATOM
      1 N          13.5802   84.7899   24.0733 N.am    1  UNL1       -0.2945
      2 C          13.4924   83.8124   25.1241 C.2     1  UNL1        0.2483
      3 O          13.9897   84.0665   26.2554 O.2     1  UNL1       -0.2701
      4 H          13.3820   84.4766   23.0973 H       1  UNL1        0.1501
      5 C          12.8662   82.4878   24.8914 C.ar    1  UNL1        0.0808
      6 C          11.5019   82.4209   24.5581 C.ar    1  UNL1        0.0080
      7 C          10.8823   81.1891   24.3336 C.ar    1  UNL1        0.0148
      8 C          11.6168   79.9976   24.4259 C.ar    1  UNL1        0.0502
      9 C          12.9807   80.0591   24.7453 C.ar    1  UNL1        0.0443
     10 C          13.6055   81.2894   24.9729 C.ar    1  UNL1        0.1457
     11 F          14.9371   81.2978   25.2302 F       1  UNL1       -0.2040
     12 N          10.9840   78.7246   24.1962 N.pl3   1  UNL1       -0.3040
     13 C          11.7725   77.4867   24.2188 C.3     1  UNL1        0.1122
     14 C          11.2672   76.5260   23.1420 C.3     1  UNL1        0.1122
     15 N           9.8057   76.4094   23.2147 N.pl3   1  UNL1       -0.3041
     16 C           9.0170   77.6471   23.1924 C.3     1  UNL1        0.1122
     17 C           9.5226   78.6080   24.2690 C.3     1  UNL1        0.1122
     18 C           9.1736   75.1352   22.9891 C.ar    1  UNL1        0.0479
     19 C           7.7755   75.0119   23.0344 C.ar    1  UNL1        0.0145
     20 C           7.1711   73.7699   22.8315 C.ar    1  UNL1        0.0012
     21 C           7.9529   72.6413   22.5750 C.ar    1  UNL1        0.0039
     22 C           9.3523   72.7476   22.5013 C.ar    1  UNL1        0.0726
     23 C           9.9555   73.9967   22.7336 C.ar    1  UNL1        0.0184
     24 C          10.2015   71.5215   22.2784 C.3     1  UNL1        0.4186
     25 F           9.4183   70.4454   21.8975 F       1  UNL1       -0.1659
     26 F          11.1356   71.7497   21.2828 F       1  UNL1       -0.1659
     27 F          10.8611   71.2056   23.4514 F       1  UNL1       -0.1659
     28 C          14.0857   86.1516   24.3105 C.3     1  UNL1        0.1535
     29 C          15.3884   86.3994   23.5799 C.2     1  UNL1        0.2443
     30 O          15.8489   85.5226   22.7986 O.2     1  UNL1       -0.2730
     31 N          16.0796   87.6471   23.7630 N.am    1  UNL1       -0.2825
     32 H          15.7557   88.2686   24.5385 H       1  UNL1        0.1549
     33 C          17.2616   88.0442   23.0437 C.ar    1  UNL1        0.0535
     34 C          18.4781   88.1507   23.7327 C.ar    1  UNL1        0.0353
     35 C          19.6269   88.5617   23.0527 C.ar    1  UNL1        0.1002
     36 N          19.5625   88.8734   21.7317 N.ar    1  UNL1       -0.2422
     37 C          18.3953   88.7989   21.0397 C.ar    1  UNL1        0.1002
     38 C          17.2234   88.3902   21.6810 C.ar    1  UNL1        0.0353
     39 C          13.0329   87.2150   23.9349 C.3     1  UNL1        0.0569
     40 C          13.5102   88.1446   19.0773 C.ar    1  UNL1        0.0228
     41 C          13.1272   86.8574   18.6300 C.ar    1  UNL1       -0.0004
     42 C          12.8319   85.8298   19.5497 C.ar    1  UNL1       -0.0002
     43 C          12.8889   86.0708   20.9305 C.ar    1  UNL1        0.0011
     44 C          13.2304   87.3532   21.3549 C.ar    1  UNL1        0.0129
     45 C          13.3251   87.8903   22.6239 C.ar    1  UNL1       -0.0017
     46 C          13.6800   89.2210   22.4429 C.ar    1  UNL1        0.0681
     47 N          13.8000   89.5035   21.1267 N.ar    1  UNL1       -0.3524
     48 C          13.5280   88.3592   20.4670 C.ar    1  UNL1        0.0546
     49 H          14.0406   90.4352   20.7233 H       1  UNL1        0.1660
     50 C          13.7866   89.2573   18.0971 C.3     1  UNL1        0.1701
     51 C          13.8236   89.3198   15.7934 C.3     1  UNL1        0.1746
     52 O          13.0180   89.0773   16.9249 O.3     1  UNL1       -0.3463
@<TRIPOS>BOND
     1    51    52    1
     2    52    50    1
     3    50    40    1
     4    40    41   ar
     5    41    42   ar
     6    42    43   ar
     7    43    44   ar
     8    44    45   ar
     9    45    39    1
    10    39    28    1
    11    28     1    1
    12     1     2   am
    13     2     3    2
    14     2     5    1
    15     5     6   ar
    16     6     7   ar
    17     7     8   ar
    18     8    12    1
    19    12    13    1
    20    13    14    1
    21    14    15    1
    22    15    18    1
    23    18    19   ar
    24    19    20   ar
    25    20    21   ar
    26    21    22   ar
    27    22    24    1
    28    24    25    1
    29    24    26    1
    30    24    27    1
    31    22    23   ar
    32    15    16    1
    33    16    17    1
    34     8     9   ar
    35     9    10   ar
    36    10    11    1
    37    28    29    1
    38    29    30    2
    39    29    31   am
    40    31    33    1
    41    33    34   ar
    42    34    35   ar
    43    35    36   ar
    44    36    37   ar
    45    37    38   ar
    46    45    46   ar
    47    46    47   ar
    48    47    48   ar
    49    48    40   ar
    50    48    44   ar
    51    10     5   ar
    52    38    33   ar
    53    17    12    1
    54    23    18   ar
    55     1     4    1
    56    31    32    1
    57    47    49    1
@<TRIPOS>MOLECULE
*****
 52 57 0 0 0
SMALL
GASTEIGER

@<TRIPOS>ATOM
      1 N          10.4930   77.3327   25.6134 N.am    1  UNL1       -0.2945
      2 C          10.1845   78.5045   24.8396 C.2     1  UNL1        0.2483
      3 O           9.2048   78.4870   24.0449 O.2     1  UNL1       -0.2701
      4 H          11.4281   77.2849   26.0753 H       1  UNL1        0.1501
      5 C          11.0248   79.7243   24.9235 C.ar    1  UNL1        0.0808
      6 C          10.4045   80.9798   25.0481 C.ar    1  UNL1        0.0080
      7 C          11.1674   82.1473   25.1286 C.ar    1  UNL1        0.0148
      8 C          12.5684   82.0834   25.0982 C.ar    1  UNL1        0.0502
      9 C          13.1928   80.8330   24.9870 C.ar    1  UNL1        0.0443
     10 C          12.4338   79.6612   24.9041 C.ar    1  UNL1        0.1457
     11 F          13.0863   78.4736   24.8473 F       1  UNL1       -0.2040
     12 N          13.3607   83.2831   25.1801 N.pl3   1  UNL1       -0.3040
     13 C          14.0832   83.6150   26.4140 C.3     1  UNL1        0.1122
     14 C          14.0330   85.1234   26.6589 C.3     1  UNL1        0.1122
     15 N          14.3988   85.8462   25.4348 N.pl3   1  UNL1       -0.3041
     16 C          13.6765   85.5144   24.2007 C.3     1  UNL1        0.1122
     17 C          13.7263   84.0059   23.9560 C.3     1  UNL1        0.1122
     18 C          15.1946   87.0437   25.5169 C.ar    1  UNL1        0.0479
     19 C          14.8917   88.0412   26.4578 C.ar    1  UNL1        0.0145
     20 C          15.6576   89.2067   26.5198 C.ar    1  UNL1        0.0012
     21 C          16.7358   89.3864   25.6503 C.ar    1  UNL1        0.0039
     22 C          17.0708   88.3897   24.7178 C.ar    1  UNL1        0.0726
     23 C          16.2782   87.2303   24.6429 C.ar    1  UNL1        0.0184
     24 C          18.2003   88.6044   23.7419 C.3     1  UNL1        0.4186
     25 F          18.8572   87.4138   23.4826 F       1  UNL1       -0.1659
     26 F          17.7206   89.1030   22.5430 F       1  UNL1       -0.1659
     27 F          19.0992   89.5073   24.2780 F       1  UNL1       -0.1659
     28 C           9.6089   76.1563   25.6399 C.3     1  UNL1        0.1535
     29 C           9.8042   75.2827   24.4189 C.2     1  UNL1        0.2443
     30 O           9.1819   75.5422   23.3528 O.2     1  UNL1       -0.2730
     31 N          10.7204   74.1757   24.4763 N.am    1  UNL1       -0.2825
     32 H          11.0826   73.8978   25.4166 H       1  UNL1        0.1549
     33 C          11.0742   73.3437   23.3562 C.ar    1  UNL1        0.0535
     34 C          10.1346   72.4289   22.8600 C.ar    1  UNL1        0.0353
     35 C          10.4744   71.5962   21.7912 C.ar    1  UNL1        0.1002
     36 N          11.7169   71.6606   21.2450 N.ar    1  UNL1       -0.2422
     37 C          12.6564   72.5227   21.7151 C.ar    1  UNL1        0.1002
     38 C          12.3573   73.3746   22.7811 C.ar    1  UNL1        0.0353
     39 C           9.7973   75.3411   26.9361 C.3     1  UNL1        0.0569
     40 C           5.8076   75.2906   29.8970 C.ar    1  UNL1        0.0228
     41 C           5.1629   74.1933   29.2776 C.ar    1  UNL1       -0.0004
     42 C           5.7209   73.5741   28.1399 C.ar    1  UNL1       -0.0002
     43 C           6.9422   74.0196   27.6127 C.ar    1  UNL1        0.0011
     44 C           7.5835   75.0759   28.2563 C.ar    1  UNL1        0.0129
     45 C           8.7931   75.6909   27.9988 C.ar    1  UNL1       -0.0017
     46 C           8.9341   76.6666   28.9772 C.ar    1  UNL1        0.0681
     47 N           7.8672   76.6620   29.8068 N.ar    1  UNL1       -0.3524
     48 C           7.0440   75.6916   29.3603 C.ar    1  UNL1        0.0546
     49 H           7.7358   77.2849   30.6335 H       1  UNL1        0.1660
     50 C           5.2348   75.9288   31.1380 C.3     1  UNL1        0.1701
     51 C           4.3804   77.9944   30.5757 C.3     1  UNL1        0.1746
     52 O           5.4864   77.3195   31.1321 O.3     1  UNL1       -0.3463
@<TRIPOS>BOND
     1    51    52    1
     2    52    50    1
     3    50    40    1
     4    40    41   ar
     5    41    42   ar
     6    42    43   ar
     7    43    44   ar
     8    44    45   ar
     9    45    39    1
    10    39    28    1
    11    28     1    1
    12     1     2   am
    13     2     3    2
    14     2     5    1
    15     5     6   ar
    16     6     7   ar
    17     7     8   ar
    18     8    12    1
    19    12    13    1
    20    13    14    1
    21    14    15    1
    22    15    18    1
    23    18    19   ar
    24    19    20   ar
    25    20    21   ar
    26    21    22   ar
    27    22    24    1
    28    24    25    1
    29    24    26    1
    30    24    27    1
    31    22    23   ar
    32    15    16    1
    33    16    17    1
    34     8     9   ar
    35     9    10   ar
    36    10    11    1
    37    28    29    1
    38    29    30    2
    39    29    31   am
    40    31    33    1
    41    33    34   ar
    42    34    35   ar
    43    35    36   ar
    44    36    37   ar
    45    37    38   ar
    46    45    46   ar
    47    46    47   ar
    48    47    48   ar
    49    48    40   ar
    50    48    44   ar
    51    10     5   ar
    52    38    33   ar
    53    17    12    1
    54    23    18   ar
    55     1     4    1
    56    31    32    1
    57    47    49    1
@<TRIPOS>MOLECULE
*****
 52 57 0 0 0
SMALL
GASTEIGER

@<TRIPOS>ATOM
      1 N           9.7517   77.2444   26.0986 N.am    1  UNL1       -0.2945
      2 C           9.7284   76.4193   24.9214 C.2     1  UNL1        0.2483
      3 O          10.8128   75.9955   24.4353 O.2     1  UNL1       -0.2701
      4 H           8.8845   77.7725   26.3418 H       1  UNL1        0.1501
      5 C           8.4533   76.0913   24.2376 C.ar    1  UNL1        0.0808
      6 C           8.2949   76.4242   22.8808 C.ar    1  UNL1        0.0080
      7 C           7.1064   76.1297   22.2084 C.ar    1  UNL1        0.0148
      8 C           6.0543   75.4848   22.8755 C.ar    1  UNL1        0.0502
      9 C           6.2115   75.1388   24.2251 C.ar    1  UNL1        0.0443
     10 C           7.3985   75.4331   24.9036 C.ar    1  UNL1        0.1457
     11 F           7.5189   75.0337   26.1941 F       1  UNL1       -0.2040
     12 N           4.8263   75.1789   22.1883 N.pl3   1  UNL1       -0.3040
     13 C           4.7388   74.0093   21.3058 C.3     1  UNL1        0.1122
     14 C           3.8829   74.3406   20.0829 C.3     1  UNL1        0.1122
     15 N           2.6290   74.9786   20.5020 N.pl3   1  UNL1       -0.3041
     16 C           2.7162   76.1481   21.3847 C.3     1  UNL1        0.1122
     17 C           3.5725   75.8169   22.6074 C.3     1  UNL1        0.1122
     18 C           1.4005   74.6691   19.8172 C.ar    1  UNL1        0.0479
     19 C           0.5890   75.6943   19.3047 C.ar    1  UNL1        0.0145
     20 C          -0.6090   75.3869   18.6571 C.ar    1  UNL1        0.0012
     21 C          -1.0061   74.0563   18.5079 C.ar    1  UNL1        0.0039
     22 C          -0.1966   73.0143   18.9919 C.ar    1  UNL1        0.0726
     23 C           0.9954   73.3327   19.6671 C.ar    1  UNL1        0.0184
     24 C          -0.6489   71.5800   18.8803 C.3     1  UNL1        0.4186
     25 F           0.1805   70.8691   18.0300 F       1  UNL1       -0.1659
     26 F          -0.6270   70.9641   20.1198 F       1  UNL1       -0.1659
     27 F          -1.9384   71.5470   18.3834 F       1  UNL1       -0.1659
     28 C          10.9863   77.4839   26.8631 C.3     1  UNL1        0.1535
     29 C          12.0079   78.2496   26.0494 C.2     1  UNL1        0.2443
     30 O          11.9020   79.5000   25.9211 O.2     1  UNL1       -0.2730
     31 N          13.1094   77.5466   25.4487 N.am    1  UNL1       -0.2825
     32 H          13.0667   76.5023   25.4380 H       1  UNL1        0.1549
     33 C          14.2001   78.1735   24.7490 C.ar    1  UNL1        0.0535
     34 C          14.6285   79.4468   25.1506 C.ar    1  UNL1        0.0353
     35 C          15.6675   80.0781   24.4628 C.ar    1  UNL1        0.1002
     36 N          16.2499   79.4677   23.3976 N.ar    1  UNL1       -0.2422
     37 C          15.8452   78.2423   22.9715 C.ar    1  UNL1        0.1002
     38 C          14.8110   77.5751   23.6324 C.ar    1  UNL1        0.0353
     39 C          10.6914   78.2042   28.1951 C.3     1  UNL1        0.0569
     40 C           6.9040   75.6537   30.1543 C.ar    1  UNL1        0.0228
     41 C           7.5185   74.3803   30.0895 C.ar    1  UNL1       -0.0004
     42 C           8.7981   74.2224   29.5179 C.ar    1  UNL1       -0.0002
     43 C           9.4995   75.3319   29.0225 C.ar    1  UNL1        0.0011
     44 C           8.8974   76.5839   29.1280 C.ar    1  UNL1        0.0129
     45 C           9.3531   77.8389   28.7743 C.ar    1  UNL1       -0.0017
     46 C           8.3411   78.7204   29.1322 C.ar    1  UNL1        0.0681
     47 N           7.3043   78.0514   29.6837 N.ar    1  UNL1       -0.3524
     48 C           7.6474   76.7473   29.6756 C.ar    1  UNL1        0.0546
     49 H           6.4281   78.4823   30.0514 H       1  UNL1        0.1660
     50 C           5.5534   75.8326   30.8018 C.3     1  UNL1        0.1701
     51 C           3.5019   76.8208   30.4449 C.3     1  UNL1        0.1746
     52 O           4.8921   76.9530   30.2498 O.3     1  UNL1       -0.3463
@<TRIPOS>BOND
     1    51    52    1
     2    52    50    1
     3    50    40    1
     4    40    41   ar
     5    41    42   ar
     6    42    43   ar
     7    43    44   ar
     8    44    45   ar
     9    45    39    1
    10    39    28    1
    11    28     1    1
    12     1     2   am
    13     2     3    2
    14     2     5    1
    15     5     6   ar
    16     6     7   ar
    17     7     8   ar
    18     8    12    1
    19    12    13    1
    20    13    14    1
    21    14    15    1
    22    15    18    1
    23    18    19   ar
    24    19    20   ar
    25    20    21   ar
    26    21    22   ar
    27    22    24    1
    28    24    25    1
    29    24    26    1
    30    24    27    1
    31    22    23   ar
    32    15    16    1
    33    16    17    1
    34     8     9   ar
    35     9    10   ar
    36    10    11    1
    37    28    29    1
    38    29    30    2
    39    29    31   am
    40    31    33    1
    41    33    34   ar
    42    34    35   ar
    43    35    36   ar
    44    36    37   ar
    45    37    38   ar
    46    45    46   ar
    47    46    47   ar
    48    47    48   ar
    49    48    40   ar
    50    48    44   ar
    51    10     5   ar
    52    38    33   ar
    53    17    12    1
    54    23    18   ar
    55     1     4    1
    56    31    32    1
    57    47    49    1
@<TRIPOS>MOLECULE
*****
 52 57 0 0 0
SMALL
GASTEIGER

@<TRIPOS>ATOM
      1 N          10.1106   77.5260   25.1152 N.am    1  UNL1       -0.2945
      2 C          10.0189   78.6903   24.2766 C.2     1  UNL1        0.2483
      3 O           9.2050   78.7022   23.3127 O.2     1  UNL1       -0.2701
      4 H          10.9390   77.4419   25.7450 H       1  UNL1        0.1501
      5 C          10.8971   79.8659   24.4950 C.ar    1  UNL1        0.0808
      6 C          10.3209   81.1434   24.6085 C.ar    1  UNL1        0.0080
      7 C          11.1203   82.2705   24.8136 C.ar    1  UNL1        0.0148
      8 C          12.5131   82.1430   24.9215 C.ar    1  UNL1        0.0502
      9 C          13.0922   80.8700   24.8219 C.ar    1  UNL1        0.0443
     10 C          12.2967   79.7385   24.6147 C.ar    1  UNL1        0.1457
     11 F          12.9008   78.5249   24.5747 F       1  UNL1       -0.2040
     12 N          13.3429   83.3009   25.1323 N.pl3   1  UNL1       -0.3040
     13 C          13.9761   83.5355   26.4356 C.3     1  UNL1        0.1122
     14 C          13.9658   85.0296   26.7599 C.3     1  UNL1        0.1122
     15 N          14.4573   85.7992   25.6105 N.pl3   1  UNL1       -0.3041
     16 C          13.8245   85.5647   24.3070 C.3     1  UNL1        0.1122
     17 C          13.8343   84.0704   23.9829 C.3     1  UNL1        0.1122
     18 C          15.2906   86.9547   25.8217 C.ar    1  UNL1        0.0479
     19 C          15.0917   87.7866   26.9354 C.ar    1  UNL1        0.0145
     20 C          15.8926   88.9144   27.1240 C.ar    1  UNL1        0.0012
     21 C          16.9027   89.2201   26.2092 C.ar    1  UNL1        0.0039
     22 C          17.1343   88.3871   25.1011 C.ar    1  UNL1        0.0726
     23 C          16.3060   87.2679   24.9031 C.ar    1  UNL1        0.0184
     24 C          18.1881   88.7443   24.0833 C.3     1  UNL1        0.4186
     25 F          18.7657   87.6028   23.5544 F       1  UNL1       -0.1659
     26 F          17.6346   89.4702   23.0427 F       1  UNL1       -0.1659
     27 F          19.1689   89.5050   24.6916 F       1  UNL1       -0.1659
     28 C           9.1714   76.3991   24.9962 C.3     1  UNL1        0.1535
     29 C           9.5647   75.4595   23.8761 C.2     1  UNL1        0.2443
     30 O           9.1275   75.6532   22.7088 O.2     1  UNL1       -0.2730
     31 N          10.4573   74.3650   24.1472 N.am    1  UNL1       -0.2825
     32 H          10.6586   74.1436   25.1487 H       1  UNL1        0.1549
     33 C          10.9903   73.4739   23.1502 C.ar    1  UNL1        0.0535
     34 C          10.1728   72.4590   22.6327 C.ar    1  UNL1        0.0353
     35 C          10.6860   71.5704   21.6851 C.ar    1  UNL1        0.1002
     36 N          11.9780   71.6784   21.2784 N.ar    1  UNL1       -0.2422
     37 C          12.8016   72.6388   21.7746 C.ar    1  UNL1        0.1002
     38 C          12.3280   73.5492   22.7224 C.ar    1  UNL1        0.0353
     39 C           9.0353   75.6379   26.3312 C.3     1  UNL1        0.0569
     40 C           8.4701   78.6469   30.2445 C.ar    1  UNL1        0.0228
     41 C           7.0741   78.8328   30.1028 C.ar    1  UNL1       -0.0004
     42 C           6.3728   78.2544   29.0246 C.ar    1  UNL1       -0.0002
     43 C           7.0432   77.4608   28.0817 C.ar    1  UNL1        0.0011
     44 C           8.4102   77.2559   28.2562 C.ar    1  UNL1        0.0129
     45 C           9.3116   76.5032   27.5292 C.ar    1  UNL1       -0.0017
     46 C          10.5314   76.6488   28.1774 C.ar    1  UNL1        0.0681
     47 N          10.4003   77.4512   29.2570 N.ar    1  UNL1       -0.3524
     48 C           9.1044   77.8220   29.2987 C.ar    1  UNL1        0.0546
     49 H          11.1625   77.7062   29.9224 H       1  UNL1        0.1660
     50 C           9.2163   79.2298   31.4188 C.3     1  UNL1        0.1701
     51 C           9.3513   81.5043   31.0708 C.3     1  UNL1        0.1746
     52 O           8.6707   80.4857   31.7689 O.3     1  UNL1       -0.3463
@<TRIPOS>BOND
     1    51    52    1
     2    52    50    1
     3    50    40    1
     4    40    41   ar
     5    41    42   ar
     6    42    43   ar
     7    43    44   ar
     8    44    45   ar
     9    45    39    1
    10    39    28    1
    11    28     1    1
    12     1     2   am
    13     2     3    2
    14     2     5    1
    15     5     6   ar
    16     6     7   ar
    17     7     8   ar
    18     8    12    1
    19    12    13    1
    20    13    14    1
    21    14    15    1
    22    15    18    1
    23    18    19   ar
    24    19    20   ar
    25    20    21   ar
    26    21    22   ar
    27    22    24    1
    28    24    25    1
    29    24    26    1
    30    24    27    1
    31    22    23   ar
    32    15    16    1
    33    16    17    1
    34     8     9   ar
    35     9    10   ar
    36    10    11    1
    37    28    29    1
    38    29    30    2
    39    29    31   am
    40    31    33    1
    41    33    34   ar
    42    34    35   ar
    43    35    36   ar
    44    36    37   ar
    45    37    38   ar
    46    45    46   ar
    47    46    47   ar
    48    47    48   ar
    49    48    40   ar
    50    48    44   ar
    51    10     5   ar
    52    38    33   ar
    53    17    12    1
    54    23    18   ar
    55     1     4    1
    56    31    32    1
    57    47    49    1
@<TRIPOS>MOLECULE
*****
 52 57 0 0 0
SMALL
GASTEIGER

@<TRIPOS>ATOM
      1 N          10.2011   77.4987   23.6554 N.am    1  UNL1       -0.2945
      2 C          11.0478   77.8490   24.7633 C.2     1  UNL1        0.2483
      3 O          11.2400   77.0144   25.6897 O.2     1  UNL1       -0.2701
      4 H           9.8673   78.2681   23.0336 H       1  UNL1        0.1501
      5 C          11.6668   79.1936   24.8626 C.ar    1  UNL1        0.0808
      6 C          13.0674   79.3037   24.9195 C.ar    1  UNL1        0.0080
      7 C          13.6811   80.5551   25.0140 C.ar    1  UNL1        0.0148
      8 C          12.9074   81.7249   25.0418 C.ar    1  UNL1        0.0502
      9 C          11.5109   81.6220   24.9725 C.ar    1  UNL1        0.0443
     10 C          10.8912   80.3716   24.8797 C.ar    1  UNL1        0.1457
     11 F           9.5405   80.3289   24.7657 F       1  UNL1       -0.2040
     12 N          13.5338   83.0179   25.1398 N.pl3   1  UNL1       -0.3040
     13 C          14.2013   83.4294   26.3806 C.3     1  UNL1        0.1122
     14 C          13.9511   84.9153   26.6402 C.3     1  UNL1        0.1122
     15 N          14.2229   85.6929   25.4251 N.pl3   1  UNL1       -0.3041
     16 C          13.5557   85.2815   24.1841 C.3     1  UNL1        0.1122
     17 C          13.8055   83.7954   23.9248 C.3     1  UNL1        0.1122
     18 C          14.8531   86.9841   25.5233 C.ar    1  UNL1        0.0479
     19 C          14.2619   88.0139   26.2730 C.ar    1  UNL1        0.0145
     20 C          14.8705   89.2680   26.3493 C.ar    1  UNL1        0.0012
     21 C          16.0762   89.5058   25.6856 C.ar    1  UNL1        0.0039
     22 C          16.6968   88.4816   24.9501 C.ar    1  UNL1        0.0726
     23 C          16.0643   87.2291   24.8554 C.ar    1  UNL1        0.0184
     24 C          17.9701   88.7513   24.1884 C.3     1  UNL1        0.4186
     25 F          18.5628   87.5657   23.7888 F       1  UNL1       -0.1659
     26 F          17.7114   89.5072   23.0581 F       1  UNL1       -0.1659
     27 F          18.8488   89.4424   25.0013 F       1  UNL1       -0.1659
     28 C           9.6747   76.1366   23.4719 C.3     1  UNL1        0.1535
     29 C           8.3767   75.9329   24.2242 C.2     1  UNL1        0.2443
     30 O           8.1690   74.8523   24.8408 O.2     1  UNL1       -0.2730
     31 N           7.3985   76.9867   24.2517 N.am    1  UNL1       -0.2825
     32 H           7.5356   77.7893   23.5962 H       1  UNL1        0.1549
     33 C           6.1810   76.9572   25.0192 C.ar    1  UNL1        0.0535
     34 C           6.2463   77.1107   26.4114 C.ar    1  UNL1        0.0353
     35 C           5.0753   77.0564   27.1710 C.ar    1  UNL1        0.1002
     36 N           3.8788   76.8388   26.5649 N.ar    1  UNL1       -0.2422
     37 C           3.7839   76.6672   25.2201 C.ar    1  UNL1        0.1002
     38 C           4.9301   76.7163   24.4231 C.ar    1  UNL1        0.0353
     39 C           9.5036   75.7971   21.9767 C.3     1  UNL1        0.0569
     40 C           4.9713   76.6504   20.1278 C.ar    1  UNL1        0.0228
     41 C           4.4969   75.3223   20.2486 C.ar    1  UNL1       -0.0004
     42 C           5.3376   74.2937   20.7222 C.ar    1  UNL1       -0.0002
     43 C           6.6577   74.5723   21.1070 C.ar    1  UNL1        0.0011
     44 C           7.0980   75.8912   21.0183 C.ar    1  UNL1        0.0129
     45 C           8.3074   76.4653   21.3579 C.ar    1  UNL1       -0.0017
     46 C           8.1726   77.8189   21.0769 C.ar    1  UNL1        0.0681
     47 N           6.9402   78.0797   20.5873 N.ar    1  UNL1       -0.3524
     48 C           6.2894   76.8992   20.5501 C.ar    1  UNL1        0.0546
     49 H           6.5799   79.0200   20.3141 H       1  UNL1        0.1660
     50 C           4.0630   77.7603   19.6606 C.3     1  UNL1        0.1701
     51 C           3.1959   78.6926   21.5820 C.3     1  UNL1        0.1746
     52 O           4.1388   78.8586   20.5469 O.3     1  UNL1       -0.3463
@<TRIPOS>BOND
     1    51    52    1
     2    52    50    1
     3    50    40    1
     4    40    41   ar
     5    41    42   ar
     6    42    43   ar
     7    43    44   ar
     8    44    45   ar
     9    45    39    1
    10    39    28    1
    11    28     1    1
    12     1     2   am
    13     2     3    2
    14     2     5    1
    15     5     6   ar
    16     6     7   ar
    17     7     8   ar
    18     8    12    1
    19    12    13    1
    20    13    14    1
    21    14    15    1
    22    15    18    1
    23    18    19   ar
    24    19    20   ar
    25    20    21   ar
    26    21    22   ar
    27    22    24    1
    28    24    25    1
    29    24    26    1
    30    24    27    1
    31    22    23   ar
    32    15    16    1
    33    16    17    1
    34     8     9   ar
    35     9    10   ar
    36    10    11    1
    37    28    29    1
    38    29    30    2
    39    29    31   am
    40    31    33    1
    41    33    34   ar
    42    34    35   ar
    43    35    36   ar
    44    36    37   ar
    45    37    38   ar
    46    45    46   ar
    47    46    47   ar
    48    47    48   ar
    49    48    40   ar
    50    48    44   ar
    51    10     5   ar
    52    38    33   ar
    53    17    12    1
    54    23    18   ar
    55     1     4    1
    56    31    32    1
    57    47    49    1
@<TRIPOS>MOLECULE
*****
 52 57 0 0 0
SMALL
GASTEIGER

@<TRIPOS>ATOM
      1 N           8.8439   78.0085   24.4139 N.am    1  UNL1       -0.2945
      2 C          10.2753   77.9643   24.5415 C.2     1  UNL1        0.2483
      3 O          10.8659   76.8496   24.5587 O.2     1  UNL1       -0.2701
      4 H           8.3612   78.9065   24.6386 H       1  UNL1        0.1501
      5 C          11.0716   79.2061   24.6991 C.ar    1  UNL1        0.0808
      6 C          10.4063   80.4351   24.8529 C.ar    1  UNL1        0.0080
      7 C          11.1271   81.6224   25.0028 C.ar    1  UNL1        0.0148
      8 C          12.5298   81.6047   25.0140 C.ar    1  UNL1        0.0502
      9 C          13.1985   80.3804   24.8739 C.ar    1  UNL1        0.0443
     10 C          12.4818   79.1891   24.7217 C.ar    1  UNL1        0.1457
     11 F          13.1749   78.0263   24.6393 F       1  UNL1       -0.2040
     12 N          13.2788   82.8250   25.1675 N.pl3   1  UNL1       -0.3040
     13 C          13.9910   83.1086   26.4192 C.3     1  UNL1        0.1122
     14 C          13.8874   84.5970   26.7533 C.3     1  UNL1        0.1122
     15 N          14.2251   85.4039   25.5744 N.pl3   1  UNL1       -0.3041
     16 C          13.5131   85.1204   24.3225 C.3     1  UNL1        0.1122
     17 C          13.6163   83.6318   23.9886 C.3     1  UNL1        0.1122
     18 C          14.9778   86.6221   25.7280 C.ar    1  UNL1        0.0479
     19 C          14.8603   87.3936   26.8954 C.ar    1  UNL1        0.0145
     20 C          15.5804   88.5821   27.0295 C.ar    1  UNL1        0.0012
     21 C          16.4288   89.0093   26.0056 C.ar    1  UNL1        0.0039
     22 C          16.5793   88.2395   24.8395 C.ar    1  UNL1        0.0726
     23 C          15.8302   87.0574   24.7000 C.ar    1  UNL1        0.0184
     24 C          17.4526   88.7254   23.7101 C.3     1  UNL1        0.4186
     25 F          17.9790   87.6580   23.0031 F       1  UNL1       -0.1659
     26 F          16.7230   89.5076   22.8315 F       1  UNL1       -0.1659
     27 F          18.4899   89.4778   24.2284 F       1  UNL1       -0.1659
     28 C           8.0448   76.8042   24.1356 C.3     1  UNL1        0.1535
     29 C           8.7970   75.8242   23.2605 C.2     1  UNL1        0.2443
     30 O           8.8951   76.0337   22.0205 O.2     1  UNL1       -0.2730
     31 N           9.4181   74.6717   23.8558 N.am    1  UNL1       -0.2825
     32 H           9.1723   74.4495   24.8471 H       1  UNL1        0.1549
     33 C          10.2499   73.7315   23.1513 C.ar    1  UNL1        0.0535
     34 C           9.6536   72.6338   22.5146 C.ar    1  UNL1        0.0353
     35 C          10.4517   71.6990   21.8510 C.ar    1  UNL1        0.1002
     36 N          11.8027   71.8438   21.8366 N.ar    1  UNL1       -0.2422
     37 C          12.4127   72.8859   22.4600 C.ar    1  UNL1        0.1002
     38 C          11.6517   73.8445   23.1334 C.ar    1  UNL1        0.0353
     39 C           7.5739   76.1286   25.4402 C.3     1  UNL1        0.0569
     40 C           8.7154   78.9140   29.3932 C.ar    1  UNL1        0.0228
     41 C          10.0461   78.4526   29.5347 C.ar    1  UNL1       -0.0004
     42 C          10.5578   77.4481   28.6874 C.ar    1  UNL1       -0.0002
     43 C           9.7630   76.9016   27.6687 C.ar    1  UNL1        0.0011
     44 C           8.4680   77.3931   27.5177 C.ar    1  UNL1        0.0129
     45 C           7.4861   77.0856   26.5963 C.ar    1  UNL1       -0.0017
     46 C           6.4073   77.9022   26.9106 C.ar    1  UNL1        0.0681
     47 N           6.6994   78.6829   27.9744 N.ar    1  UNL1       -0.3524
     48 C           7.9571   78.3658   28.3434 C.ar    1  UNL1        0.0546
     49 H           6.0664   79.3954   28.3990 H       1  UNL1        0.1660
     50 C           8.1780   80.0169   30.2707 C.3     1  UNL1        0.1701
     51 C           9.1036   81.5132   31.7597 C.3     1  UNL1        0.1746
     52 O           8.9731   80.1481   31.4318 O.3     1  UNL1       -0.3463
@<TRIPOS>BOND
     1    51    52    1
     2    52    50    1
     3    50    40    1
     4    40    41   ar
     5    41    42   ar
     6    42    43   ar
     7    43    44   ar
     8    44    45   ar
     9    45    39    1
    10    39    28    1
    11    28     1    1
    12     1     2   am
    13     2     3    2
    14     2     5    1
    15     5     6   ar
    16     6     7   ar
    17     7     8   ar
    18     8    12    1
    19    12    13    1
    20    13    14    1
    21    14    15    1
    22    15    18    1
    23    18    19   ar
    24    19    20   ar
    25    20    21   ar
    26    21    22   ar
    27    22    24    1
    28    24    25    1
    29    24    26    1
    30    24    27    1
    31    22    23   ar
    32    15    16    1
    33    16    17    1
    34     8     9   ar
    35     9    10   ar
    36    10    11    1
    37    28    29    1
    38    29    30    2
    39    29    31   am
    40    31    33    1
    41    33    34   ar
    42    34    35   ar
    43    35    36   ar
    44    36    37   ar
    45    37    38   ar
    46    45    46   ar
    47    46    47   ar
    48    47    48   ar
    49    48    40   ar
    50    48    44   ar
    51    10     5   ar
    52    38    33   ar
    53    17    12    1
    54    23    18   ar
    55     1     4    1
    56    31    32    1
    57    47    49    1
@<TRIPOS>MOLECULE
*****
 52 57 0 0 0
SMALL
GASTEIGER

@<TRIPOS>ATOM
      1 N          10.8046   79.4031   24.0762 N.am    1  UNL1       -0.2945
      2 C          10.6859   78.0870   23.5097 C.2     1  UNL1        0.2483
      3 O          11.7013   77.3406   23.4481 O.2     1  UNL1       -0.2701
      4 H          10.0291   80.0805   23.9037 H       1  UNL1        0.1501
      5 C           9.3989   77.6030   22.9527 C.ar    1  UNL1        0.0808
      6 C           9.0428   77.9534   21.6385 C.ar    1  UNL1        0.0080
      7 C           7.8376   77.5145   21.0851 C.ar    1  UNL1        0.0148
      8 C           6.9672   76.7052   21.8303 C.ar    1  UNL1        0.0502
      9 C           7.3230   76.3419   23.1369 C.ar    1  UNL1        0.0443
     10 C           8.5275   76.7802   23.6965 C.ar    1  UNL1        0.1457
     11 F           8.8477   76.3607   24.9459 F       1  UNL1       -0.2040
     12 N           5.7231   76.2498   21.2660 N.pl3   1  UNL1       -0.3040
     13 C           4.5253   77.0963   21.3245 C.3     1  UNL1        0.1122
     14 C           3.2881   76.2338   21.5761 C.3     1  UNL1        0.1122
     15 N           3.2747   75.0896   20.6566 N.pl3   1  UNL1       -0.3041
     16 C           4.4724   74.2431   20.5977 C.3     1  UNL1        0.1122
     17 C           5.7097   75.1056   20.3466 C.3     1  UNL1        0.1122
     18 C           2.0307   74.6372   20.0892 C.ar    1  UNL1        0.0479
     19 C           1.2649   75.4867   19.2744 C.ar    1  UNL1        0.0145
     20 C           0.0518   75.0465   18.7419 C.ar    1  UNL1        0.0012
     21 C          -0.4062   73.7546   19.0104 C.ar    1  UNL1        0.0039
     22 C           0.3568   72.8804   19.8034 C.ar    1  UNL1        0.0726
     23 C           1.5645   73.3399   20.3585 C.ar    1  UNL1        0.0184
     24 C          -0.1609   71.5044   20.1393 C.3     1  UNL1        0.4186
     25 F           0.8695   70.6829   20.5632 F       1  UNL1       -0.1659
     26 F          -1.1036   71.5716   21.1506 F       1  UNL1       -0.1659
     27 F          -0.7446   70.9510   19.0151 F       1  UNL1       -0.1659
     28 C          12.0342   79.8610   24.7428 C.3     1  UNL1        0.1535
     29 C          12.1235   81.3720   24.7742 C.2     1  UNL1        0.2443
     30 O          11.0731   82.0630   24.8770 O.2     1  UNL1       -0.2730
     31 N          13.4112   82.0093   24.7127 N.am    1  UNL1       -0.2825
     32 H          14.2324   81.4137   24.4607 H       1  UNL1        0.1549
     33 C          13.6338   83.4253   24.8451 C.ar    1  UNL1        0.0535
     34 C          13.5970   84.2335   23.6999 C.ar    1  UNL1        0.0353
     35 C          13.8386   85.6048   23.8105 C.ar    1  UNL1        0.1002
     36 N          14.1249   86.1512   25.0212 N.ar    1  UNL1       -0.2422
     37 C          14.1869   85.3925   26.1470 C.ar    1  UNL1        0.1002
     38 C          13.9497   84.0174   26.0811 C.ar    1  UNL1        0.0353
     39 C          12.1555   79.2726   26.1637 C.3     1  UNL1        0.0569
     40 C           8.4976   76.7828   28.4240 C.ar    1  UNL1        0.0228
     41 C           9.2119   75.5733   28.5987 C.ar    1  UNL1       -0.0004
     42 C          10.5234   75.4289   28.1007 C.ar    1  UNL1       -0.0002
     43 C          11.1568   76.4929   27.4412 C.ar    1  UNL1        0.0011
     44 C          10.4548   77.6893   27.3106 C.ar    1  UNL1        0.0129
     45 C          10.8260   78.8997   26.7582 C.ar    1  UNL1       -0.0017
     46 C           9.7337   79.7407   26.9283 C.ar    1  UNL1        0.0681
     47 N           8.7295   79.0904   27.5569 N.ar    1  UNL1       -0.3524
     48 C           9.1734   77.8376   27.7849 C.ar    1  UNL1        0.0546
     49 H           7.8072   79.5021   27.8188 H       1  UNL1        0.1660
     50 C           7.1105   76.9548   28.9911 C.3     1  UNL1        0.1701
     51 C           5.4144   77.0288   27.4321 C.3     1  UNL1        0.1746
     52 O           6.3442   77.8012   28.1581 O.3     1  UNL1       -0.3463
@<TRIPOS>BOND
     1    51    52    1
     2    52    50    1
     3    50    40    1
     4    40    41   ar
     5    41    42   ar
     6    42    43   ar
     7    43    44   ar
     8    44    45   ar
     9    45    39    1
    10    39    28    1
    11    28     1    1
    12     1     2   am
    13     2     3    2
    14     2     5    1
    15     5     6   ar
    16     6     7   ar
    17     7     8   ar
    18     8    12    1
    19    12    13    1
    20    13    14    1
    21    14    15    1
    22    15    18    1
    23    18    19   ar
    24    19    20   ar
    25    20    21   ar
    26    21    22   ar
    27    22    24    1
    28    24    25    1
    29    24    26    1
    30    24    27    1
    31    22    23   ar
    32    15    16    1
    33    16    17    1
    34     8     9   ar
    35     9    10   ar
    36    10    11    1
    37    28    29    1
    38    29    30    2
    39    29    31   am
    40    31    33    1
    41    33    34   ar
    42    34    35   ar
    43    35    36   ar
    44    36    37   ar
    45    37    38   ar
    46    45    46   ar
    47    46    47   ar
    48    47    48   ar
    49    48    40   ar
    50    48    44   ar
    51    10     5   ar
    52    38    33   ar
    53    17    12    1
    54    23    18   ar
    55     1     4    1
    56    31    32    1
    57    47    49    1
@<TRIPOS>MOLECULE
*****
 52 57 0 0 0
SMALL
GASTEIGER

@<TRIPOS>ATOM
      1 N           9.1181   78.3891   23.1050 N.am    1  UNL1       -0.2945
      2 C          10.1526   78.3569   24.1029 C.2     1  UNL1        0.2483
      3 O          10.3328   77.3082   24.7809 O.2     1  UNL1       -0.2701
      4 H           8.8305   79.3199   22.7298 H       1  UNL1        0.1501
      5 C          10.9866   79.5511   24.3843 C.ar    1  UNL1        0.0808
      6 C          10.3765   80.8160   24.4519 C.ar    1  UNL1        0.0080
      7 C          11.1340   81.9600   24.7142 C.ar    1  UNL1        0.0148
      8 C          12.5172   81.8623   24.9265 C.ar    1  UNL1        0.0502
      9 C          13.1291   80.6020   24.8730 C.ar    1  UNL1        0.0443
     10 C          12.3757   79.4536   24.6088 C.ar    1  UNL1        0.1457
     11 F          13.0069   78.2532   24.6165 F       1  UNL1       -0.2040
     12 N          13.3039   83.0378   25.1967 N.pl3   1  UNL1       -0.3040
     13 C          13.9836   83.1978   26.4878 C.3     1  UNL1        0.1122
     14 C          13.9223   84.6593   26.9327 C.3     1  UNL1        0.1122
     15 N          14.3280   85.5401   25.8307 N.pl3   1  UNL1       -0.3041
     16 C          13.6485   85.3803   24.5394 C.3     1  UNL1        0.1122
     17 C          13.7095   83.9186   24.0947 C.3     1  UNL1        0.1122
     18 C          15.1183   86.7133   26.1010 C.ar    1  UNL1        0.0479
     19 C          14.9020   87.4695   27.2643 C.ar    1  UNL1        0.0145
     20 C          15.6609   88.6152   27.5108 C.ar    1  UNL1        0.0012
     21 C          16.6460   89.0141   26.6047 C.ar    1  UNL1        0.0039
     22 C          16.8950   88.2578   25.4466 C.ar    1  UNL1        0.0726
     23 C          16.1083   87.1202   25.1915 C.ar    1  UNL1        0.0184
     24 C          17.9204   88.7159   24.4401 C.3     1  UNL1        0.4186
     25 F          17.3334   89.5072   23.4677 F       1  UNL1       -0.1659
     26 F          18.9132   89.4563   25.0582 F       1  UNL1       -0.1659
     27 F          18.4915   87.6109   23.8373 F       1  UNL1       -0.1659
     28 C           8.3603   77.1865   22.7232 C.3     1  UNL1        0.1535
     29 C           9.2715   76.0899   22.2139 C.2     1  UNL1        0.2443
     30 O           9.9913   76.2905   21.1976 O.2     1  UNL1       -0.2730
     31 N           9.3288   74.8330   22.9104 N.am    1  UNL1       -0.2825
     32 H           8.6006   74.6511   23.6378 H       1  UNL1        0.1549
     33 C          10.2321   73.7583   22.5921 C.ar    1  UNL1        0.0535
     34 C           9.7128   72.4810   22.3378 C.ar    1  UNL1        0.0353
     35 C          10.5801   71.4232   22.0549 C.ar    1  UNL1        0.1002
     36 N          11.9234   71.6274   22.0426 N.ar    1  UNL1       -0.2422
     37 C          12.4593   72.8488   22.3036 C.ar    1  UNL1        0.1002
     38 C          11.6275   73.9342   22.5891 C.ar    1  UNL1        0.0353
     39 C           7.4867   76.6793   23.8892 C.3     1  UNL1        0.0569
     40 C           2.6073   77.3943   24.4955 C.ar    1  UNL1        0.0228
     41 C           2.6344   77.4924   25.9072 C.ar    1  UNL1       -0.0004
     42 C           3.8382   77.3204   26.6217 C.ar    1  UNL1       -0.0002
     43 C           5.0406   77.0718   25.9431 C.ar    1  UNL1        0.0011
     44 C           5.0043   77.0159   24.5514 C.ar    1  UNL1        0.0129
     45 C           6.0143   76.8327   23.6273 C.ar    1  UNL1       -0.0017
     46 C           5.3999   76.8912   22.3830 C.ar    1  UNL1        0.0681
     47 N           4.0720   77.1020   22.5207 N.ar    1  UNL1       -0.3524
     48 C           3.8351   77.1738   23.8464 C.ar    1  UNL1        0.0546
     49 H           3.3872   77.2025   21.7400 H       1  UNL1        0.1660
     50 C           1.3297   77.6185   23.7255 C.3     1  UNL1        0.1701
     51 C           1.2886   79.1106   21.9693 C.3     1  UNL1        0.1746
     52 O           1.6120   77.7925   22.3517 O.3     1  UNL1       -0.3463
@<TRIPOS>BOND
     1    51    52    1
     2    52    50    1
     3    50    40    1
     4    40    41   ar
     5    41    42   ar
     6    42    43   ar
     7    43    44   ar
     8    44    45   ar
     9    45    39    1
    10    39    28    1
    11    28     1    1
    12     1     2   am
    13     2     3    2
    14     2     5    1
    15     5     6   ar
    16     6     7   ar
    17     7     8   ar
    18     8    12    1
    19    12    13    1
    20    13    14    1
    21    14    15    1
    22    15    18    1
    23    18    19   ar
    24    19    20   ar
    25    20    21   ar
    26    21    22   ar
    27    22    24    1
    28    24    25    1
    29    24    26    1
    30    24    27    1
    31    22    23   ar
    32    15    16    1
    33    16    17    1
    34     8     9   ar
    35     9    10   ar
    36    10    11    1
    37    28    29    1
    38    29    30    2
    39    29    31   am
    40    31    33    1
    41    33    34   ar
    42    34    35   ar
    43    35    36   ar
    44    36    37   ar
    45    37    38   ar
    46    45    46   ar
    47    46    47   ar
    48    47    48   ar
    49    48    40   ar
    50    48    44   ar
    51    10     5   ar
    52    38    33   ar
    53    17    12    1
    54    23    18   ar
    55     1     4    1
    56    31    32    1
    57    47    49    1
@<TRIPOS>MOLECULE
*****
 52 57 0 0 0
SMALL
GASTEIGER

@<TRIPOS>ATOM
      1 N          10.8604   78.7195   24.2395 N.am    1  UNL1       -0.2945
      2 C          10.7866   77.6116   23.3261 C.2     1  UNL1        0.2483
      3 O          11.8496   77.0717   22.9134 O.2     1  UNL1       -0.2701
      4 H          10.0006   79.2951   24.3792 H       1  UNL1        0.1501
      5 C           9.4822   77.1168   22.8216 C.ar    1  UNL1        0.0808
      6 C           8.7673   76.1697   23.5759 C.ar    1  UNL1        0.0080
      7 C           7.5367   75.6833   23.1280 C.ar    1  UNL1        0.0148
      8 C           6.9883   76.1427   21.9214 C.ar    1  UNL1        0.0502
      9 C           7.6907   77.0967   21.1714 C.ar    1  UNL1        0.0443
     10 C           8.9240   77.5855   21.6141 C.ar    1  UNL1        0.1457
     11 F           9.5395   78.5432   20.8769 F       1  UNL1       -0.2040
     12 N           5.7205   75.6449   21.4538 N.pl3   1  UNL1       -0.3040
     13 C           5.6380   74.8709   20.2095 C.3     1  UNL1        0.1122
     14 C           4.3623   75.2371   19.4503 C.3     1  UNL1        0.1122
     15 N           3.2080   75.2032   20.3565 N.pl3   1  UNL1       -0.3041
     16 C           3.2903   75.9771   21.6011 C.3     1  UNL1        0.1122
     17 C           4.5663   75.6112   22.3601 C.3     1  UNL1        0.1122
     18 C           1.9413   74.7014   19.8897 C.ar    1  UNL1        0.0479
     19 C           1.0967   75.5065   19.1084 C.ar    1  UNL1        0.0145
     20 C          -0.1372   75.0187   18.6740 C.ar    1  UNL1        0.0012
     21 C          -0.5379   73.7231   19.0080 C.ar    1  UNL1        0.0039
     22 C           0.3032   72.8926   19.7684 C.ar    1  UNL1        0.0726
     23 C           1.5327   73.4002   20.2252 C.ar    1  UNL1        0.0184
     24 C          -0.1500   71.5132   20.1759 C.3     1  UNL1        0.4186
     25 F          -1.0623   71.5838   21.2146 F       1  UNL1       -0.1659
     26 F          -0.7549   70.8649   19.1130 F       1  UNL1       -0.1659
     27 F           0.9455   70.7777   20.5879 F       1  UNL1       -0.1659
     28 C          12.1297   79.1505   24.8473 C.3     1  UNL1        0.1535
     29 C          12.1865   80.6540   25.0159 C.2     1  UNL1        0.2443
     30 O          11.1451   81.2923   25.3309 O.2     1  UNL1       -0.2730
     31 N          13.4372   81.3419   24.8406 N.am    1  UNL1       -0.2825
     32 H          14.2285   80.8041   24.4197 H       1  UNL1        0.1549
     33 C          13.6426   82.7463   25.0808 C.ar    1  UNL1        0.0535
     34 C          13.8996   83.1863   26.3870 C.ar    1  UNL1        0.0353
     35 C          14.0734   84.5493   26.6384 C.ar    1  UNL1        0.1002
     36 N          13.9772   85.4476   25.6233 N.ar    1  UNL1       -0.2422
     37 C          13.7104   85.0554   24.3498 C.ar    1  UNL1        0.1002
     38 C          13.5318   83.7017   24.0546 C.ar    1  UNL1        0.0353
     39 C          12.3801   78.4358   26.1914 C.3     1  UNL1        0.0569
     40 C           7.9559   76.7360   27.6829 C.ar    1  UNL1        0.0228
     41 C           7.3707   78.0024   27.9223 C.ar    1  UNL1       -0.0004
     42 C           8.1170   79.1875   27.7566 C.ar    1  UNL1       -0.0002
     43 C           9.4514   79.1355   27.3267 C.ar    1  UNL1        0.0011
     44 C          10.0016   77.8838   27.0586 C.ar    1  UNL1        0.0129
     45 C          11.2510   77.5269   26.5903 C.ar    1  UNL1       -0.0017
     46 C          11.2331   76.1416   26.4908 C.ar    1  UNL1        0.0681
     47 N          10.0323   75.6554   26.8759 N.ar    1  UNL1       -0.3524
     48 C           9.2854   76.7226   27.2249 C.ar    1  UNL1        0.0546
     49 H           9.7551   74.6495   26.8785 H       1  UNL1        0.1660
     50 C           7.1489   75.4689   27.8193 C.3     1  UNL1        0.1701
     51 C           7.5692   74.4536   29.8454 C.3     1  UNL1        0.1746
     52 O           7.9085   74.4750   28.4770 O.3     1  UNL1       -0.3463
@<TRIPOS>BOND
     1    51    52    1
     2    52    50    1
     3    50    40    1
     4    40    41   ar
     5    41    42   ar
     6    42    43   ar
     7    43    44   ar
     8    44    45   ar
     9    45    39    1
    10    39    28    1
    11    28     1    1
    12     1     2   am
    13     2     3    2
    14     2     5    1
    15     5     6   ar
    16     6     7   ar
    17     7     8   ar
    18     8    12    1
    19    12    13    1
    20    13    14    1
    21    14    15    1
    22    15    18    1
    23    18    19   ar
    24    19    20   ar
    25    20    21   ar
    26    21    22   ar
    27    22    24    1
    28    24    25    1
    29    24    26    1
    30    24    27    1
    31    22    23   ar
    32    15    16    1
    33    16    17    1
    34     8     9   ar
    35     9    10   ar
    36    10    11    1
    37    28    29    1
    38    29    30    2
    39    29    31   am
    40    31    33    1
    41    33    34   ar
    42    34    35   ar
    43    35    36   ar
    44    36    37   ar
    45    37    38   ar
    46    45    46   ar
    47    46    47   ar
    48    47    48   ar
    49    48    40   ar
    50    48    44   ar
    51    10     5   ar
    52    38    33   ar
    53    17    12    1
    54    23    18   ar
    55     1     4    1
    56    31    32    1
    57    47    49    1
