@<TRIPOS>MOLECULE
*****
 50 55 0 0 0
SMALL
GASTEIGER

@<TRIPOS>ATOM
      1 O          58.4112   84.6895   11.2981 O.2     1  UNL1       -0.2701
      2 C          59.5377   85.1493   10.9637 C.2     1  UNL1        0.2483
      3 N          60.7177   84.7221   11.6628 N.am    1  UNL1       -0.2945
      4 H          61.6520   84.9081   11.2325 H       1  UNL1        0.1501
      5 C          59.6260   86.0970    9.8295 C.ar    1  UNL1        0.0808
      6 C          58.9931   85.7855    8.6154 C.ar    1  UNL1        0.0080
      7 C          59.0668   86.6611    7.5295 C.ar    1  UNL1        0.0148
      8 C          59.7684   87.8747    7.6351 C.ar    1  UNL1        0.0502
      9 C          60.3832   88.1960    8.8579 C.ar    1  UNL1        0.0443
     10 C          60.3129   87.3205    9.9461 C.ar    1  UNL1        0.1457
     11 F          60.8777   87.6965   11.1215 F       1  UNL1       -0.2040
     12 N          59.8414   88.7840    6.5142 N.pl3   1  UNL1       -0.3040
     13 C          61.1074   88.9323    5.7794 C.3     1  UNL1        0.1123
     14 C          61.1351   90.2233    4.9554 C.3     1  UNL1        0.1136
     15 N          59.9241   90.3346    4.1298 N.pl3   1  UNL1       -0.2897
     16 C          58.6263   89.9042    4.6769 C.3     1  UNL1        0.1136
     17 C          58.6989   89.6486    6.1863 C.3     1  UNL1        0.1123
     18 C          59.9939   90.9934    2.8447 C.ar    1  UNL1        0.1322
     19 C          61.2115   91.1348    2.1599 C.ar    1  UNL1        0.0401
     20 C          61.2462   91.7757    0.9181 C.ar    1  UNL1        0.0383
     21 I          63.1386   91.9394   -0.0327 I       1  UNL1       -0.0424
     22 C          60.0554   92.2823    0.3541 C.ar    1  UNL1        0.0960
     23 C          58.8603   92.1231    1.0774 C.ar    1  UNL1        0.1046
     24 N          58.8611   91.4949    2.2812 N.ar    1  UNL1       -0.2292
     25 C          60.0571   92.9815   -0.9877 C.3     1  UNL1        0.4204
     26 F          61.1300   93.8474   -1.1136 F       1  UNL1       -0.1658
     27 F          60.1378   92.0439   -2.0010 F       1  UNL1       -0.1658
     28 F          58.8928   93.7135   -1.1329 F       1  UNL1       -0.1658
     29 C          60.6482   83.8703   12.8534 C.3     1  UNL1        0.1535
     30 C          60.4350   82.4349   12.4454 C.2     1  UNL1        0.2443
     31 O          61.4336   81.6802   12.2891 O.2     1  UNL1       -0.2730
     32 N          59.0995   81.9115   12.3505 N.am    1  UNL1       -0.2825
     33 H          58.3119   82.5424   12.6227 H       1  UNL1        0.1549
     34 C          58.8003   80.5184   12.1695 C.ar    1  UNL1        0.0535
     35 C          59.0918   79.5693   13.1624 C.ar    1  UNL1        0.0353
     36 C          58.7859   78.2244   12.9389 C.ar    1  UNL1        0.1002
     37 N          58.2218   77.8386   11.7637 N.ar    1  UNL1       -0.2422
     38 C          57.9462   78.7337   10.7786 C.ar    1  UNL1        0.1002
     39 C          58.2403   80.0867   10.9596 C.ar    1  UNL1        0.0353
     40 C          61.9378   84.0144   13.6841 C.3     1  UNL1        0.0569
     41 C          61.8535   85.1691   14.6433 C.ar    1  UNL1       -0.0017
     42 C          61.3732   85.1212   15.9486 C.ar    1  UNL1        0.0681
     43 N          61.5707   86.3067   16.5690 N.ar    1  UNL1       -0.3523
     44 C          62.1845   87.0981   15.6724 C.ar    1  UNL1        0.0563
     45 C          62.6358   88.4028   15.8676 C.ar    1  UNL1        0.0170
     46 C          63.3011   89.0353   14.8016 C.ar    1  UNL1        0.0015
     47 C          63.5006   88.3565   13.5793 C.ar    1  UNL1        0.0001
     48 C          63.0355   87.0399   13.4110 C.ar    1  UNL1        0.0012
     49 C          62.3760   86.4394   14.4848 C.ar    1  UNL1        0.0131
     50 H          61.3230   86.5446   17.5551 H       1  UNL1        0.1660
@<TRIPOS>BOND
     1     1     2    2
     2     2     3   am
     3     3    29    1
     4    29    40    1
     5    40    41    1
     6    41    42   ar
     7    42    43   ar
     8    43    44   ar
     9    44    45   ar
    10    45    46   ar
    11    46    47   ar
    12    47    48   ar
    13    48    49   ar
    14    29    30    1
    15    30    31    2
    16    30    32   am
    17    32    34    1
    18    34    35   ar
    19    35    36   ar
    20    36    37   ar
    21    37    38   ar
    22    38    39   ar
    23     2     5    1
    24     5     6   ar
    25     6     7   ar
    26     7     8   ar
    27     8    12    1
    28    12    13    1
    29    13    14    1
    30    14    15    1
    31    15    18    1
    32    18    19   ar
    33    19    20   ar
    34    20    21    1
    35    20    22   ar
    36    22    25    1
    37    25    26    1
    38    25    27    1
    39    25    28    1
    40    22    23   ar
    41    23    24   ar
    42    15    16    1
    43    16    17    1
    44     8     9   ar
    45     9    10   ar
    46    10    11    1
    47    49    41   ar
    48    39    34   ar
    49    10     5   ar
    50    49    44   ar
    51    17    12    1
    52    24    18   ar
    53     3     4    1
    54    43    50    1
    55    32    33    1
@<TRIPOS>MOLECULE
*****
 50 55 0 0 0
SMALL
GASTEIGER

@<TRIPOS>ATOM
      1 O          58.4539   84.6480   11.3162 O.2     1  UNL1       -0.2701
      2 C          59.5679   85.1220   10.9607 C.2     1  UNL1        0.2483
      3 N          60.7621   84.7370   11.6603 N.am    1  UNL1       -0.2945
      4 H          61.6888   84.9310   11.2174 H       1  UNL1        0.1501
      5 C          59.6276   86.0420    9.8021 C.ar    1  UNL1        0.0808
      6 C          60.2837   87.2768    9.9309 C.ar    1  UNL1        0.0080
      7 C          60.3486   88.1637    8.8537 C.ar    1  UNL1        0.0148
      8 C          59.7659   87.8326    7.6179 C.ar    1  UNL1        0.0502
      9 C          59.1284   86.5870    7.4832 C.ar    1  UNL1        0.0443
     10 C          59.0600   85.6977    8.5604 C.ar    1  UNL1        0.1457
     11 F          58.4798   84.4860    8.3683 F       1  UNL1       -0.2040
     12 N          59.8365   88.7470    6.5011 N.pl3   1  UNL1       -0.3040
     13 C          61.0951   88.8836    5.7514 C.3     1  UNL1        0.1123
     14 C          61.1287   90.1786    4.9340 C.3     1  UNL1        0.1136
     15 N          59.9091   90.3095    4.1240 N.pl3   1  UNL1       -0.2897
     16 C          58.6129   89.8923    4.6849 C.3     1  UNL1        0.1136
     17 C          58.7009   89.6276    6.1920 C.3     1  UNL1        0.1123
     18 C          59.9713   90.9744    2.8418 C.ar    1  UNL1        0.1322
     19 C          61.1797   91.0933    2.1368 C.ar    1  UNL1        0.0401
     20 C          61.2072   91.7408    0.8982 C.ar    1  UNL1        0.0383
     21 I          63.0862   91.8688   -0.0842 I       1  UNL1       -0.0424
     22 C          60.0183   92.2767    0.3578 C.ar    1  UNL1        0.0960
     23 C          58.8326   92.1392    1.1007 C.ar    1  UNL1        0.1046
     24 N          58.8402   91.5039    2.3008 N.ar    1  UNL1       -0.2292
     25 C          60.0124   92.9838   -0.9798 C.3     1  UNL1        0.4204
     26 F          61.0908   93.8420   -1.1113 F       1  UNL1       -0.1658
     27 F          60.0757   92.0516   -1.9994 F       1  UNL1       -0.1658
     28 F          58.8525   93.7257   -1.1093 F       1  UNL1       -0.1658
     29 C          60.7197   83.9147   12.8727 C.3     1  UNL1        0.1535
     30 C          60.4957   82.4700   12.5050 C.2     1  UNL1        0.2443
     31 O          61.4888   81.7046   12.3670 O.2     1  UNL1       -0.2730
     32 N          59.1565   81.9533   12.4280 N.am    1  UNL1       -0.2825
     33 H          58.3739   82.5968   12.6848 H       1  UNL1        0.1549
     34 C          58.8474   80.5578   12.2863 C.ar    1  UNL1        0.0535
     35 C          58.2846   80.0461   11.1061 C.ar    1  UNL1        0.0353
     36 C          57.9974   78.6816   11.0166 C.ar    1  UNL1        0.1002
     37 N          58.2503   77.8601   12.0700 N.ar    1  UNL1       -0.2422
     38 C          58.7774   78.3323   13.2305 C.ar    1  UNL1        0.1002
     39 C          59.0749   79.6901   13.3630 C.ar    1  UNL1        0.0353
     40 C          62.0285   84.0772   13.6692 C.3     1  UNL1        0.0569
     41 C          62.0380   85.3519   14.4664 C.ar    1  UNL1       -0.0017
     42 C          61.7988   85.4700   15.8323 C.ar    1  UNL1        0.0681
     43 N          62.0235   86.7387   16.2437 N.ar    1  UNL1       -0.3523
     44 C          62.4164   87.4194   15.1532 C.ar    1  UNL1        0.0563
     45 C          62.8078   88.7560   15.0882 C.ar    1  UNL1        0.0170
     46 C          63.2322   89.2576   13.8443 C.ar    1  UNL1        0.0015
     47 C          63.2581   88.4211   12.7068 C.ar    1  UNL1        0.0001
     48 C          62.8588   87.0758   12.8021 C.ar    1  UNL1        0.0012
     49 C          62.4394   86.6072   14.0484 C.ar    1  UNL1        0.0131
     50 H          61.9378   87.1037   17.2183 H       1  UNL1        0.1660
@<TRIPOS>BOND
     1     1     2    2
     2     2     3   am
     3     3    29    1
     4    29    40    1
     5    40    41    1
     6    41    42   ar
     7    42    43   ar
     8    43    44   ar
     9    44    45   ar
    10    45    46   ar
    11    46    47   ar
    12    47    48   ar
    13    48    49   ar
    14    29    30    1
    15    30    31    2
    16    30    32   am
    17    32    34    1
    18    34    35   ar
    19    35    36   ar
    20    36    37   ar
    21    37    38   ar
    22    38    39   ar
    23     2     5    1
    24     5     6   ar
    25     6     7   ar
    26     7     8   ar
    27     8    12    1
    28    12    13    1
    29    13    14    1
    30    14    15    1
    31    15    18    1
    32    18    19   ar
    33    19    20   ar
    34    20    21    1
    35    20    22   ar
    36    22    25    1
    37    25    26    1
    38    25    27    1
    39    25    28    1
    40    22    23   ar
    41    23    24   ar
    42    15    16    1
    43    16    17    1
    44     8     9   ar
    45     9    10   ar
    46    10    11    1
    47    49    41   ar
    48    39    34   ar
    49    10     5   ar
    50    49    44   ar
    51    17    12    1
    52    24    18   ar
    53     3     4    1
    54    43    50    1
    55    32    33    1
