@<TRIPOS>MOLECULE
*****
 45 50 0 0 0
SMALL
GASTEIGER

@<TRIPOS>ATOM
      1 C          60.6989   86.7646    8.2233 C.ar    1  UNL1        0.0702
      2 C          59.9121   85.6473    8.5260 C.ar    1  UNL1        0.0191
      3 C          60.0886   84.9671    9.7317 C.ar    1  UNL1        0.0356
      4 C          61.0719   85.4019   10.6371 C.ar    1  UNL1        0.1318
      5 N          61.8468   86.4728   10.3054 N.ar    1  UNL1       -0.2279
      6 C          61.6901   87.1524    9.1388 C.ar    1  UNL1        0.1149
      7 N          61.2877   84.7244   11.8940 N.pl3   1  UNL1       -0.2932
      8 C          60.3999   83.6290   12.3213 C.3     1  UNL1        0.0923
      9 C          60.3971   83.4829   13.8479 C.3     1  UNL1        0.0252
     10 C          61.8198   83.2961   14.4328 C.3     1  UNL1        0.0472
     11 C          62.9145   84.0017   13.5918 C.3     1  UNL1        0.0252
     12 C          62.3595   85.1823   12.7915 C.3     1  UNL1        0.0923
     13 C          62.1480   81.7995   14.6141 C.3     1  UNL1        0.2054
     14 O          62.6994   81.2429   13.4191 O.3     1  UNL1       -0.4746
     15 C          62.0012   80.4747   12.4713 C.ar    1  UNL1        0.1492
     16 C          60.8895   79.6775   12.8131 C.ar    1  UNL1        0.0442
     17 C          60.2199   78.9213   11.8346 C.ar    1  UNL1        0.0785
     18 C          60.6695   78.9735   10.5045 C.ar    1  UNL1        0.0075
     19 C          61.7652   79.7663   10.1601 C.ar    1  UNL1        0.0147
     20 C          62.4283   80.5148   11.1358 C.ar    1  UNL1        0.0915
     21 CL         63.8097   81.4969   10.6715 Cl      1  UNL1       -0.0791
     22 C          59.0568   78.0831   12.2034 C.2     1  UNL1        0.3381
     23 O          58.6934   77.9891   13.4071 O.2     1  UNL1       -0.2451
     24 O          58.3513   77.3898   11.2232 O.3     1  UNL1       -0.4771
     25 H          57.5536   76.8140   11.4652 H       1  UNL1        0.2954
     26 C          59.9924   88.7706    6.8371 C.2     1  UNL1        0.2839
     27 O          59.4156   89.3222    7.8127 O.2     1  UNL1       -0.2665
     28 N          60.5214   87.4411    6.9668 N.am    1  UNL1       -0.2766
     29 H          60.7101   86.9010    6.0920 H       1  UNL1        0.1553
     30 C          57.5743   89.9866    5.1202 C.3     1  UNL1        0.0345
     31 C          59.0369   90.0079    4.7921 C.ar    1  UNL1        0.0202
     32 C          60.0897   89.4749    5.5443 C.ar    1  UNL1        0.1946
     33 O          61.2391   89.6912    4.9298 O.2     1  UNL1       -0.4492
     34 C          60.9861   90.3364    3.8175 C.ar    1  UNL1        0.1452
     35 C          61.9025   90.7675    2.8647 C.ar    1  UNL1        0.0375
     36 C          61.4118   91.4490    1.7377 C.ar    1  UNL1        0.0031
     37 C          60.0199   91.6883    1.5798 C.ar    1  UNL1        0.0002
     38 C          59.1203   91.2322    2.5733 C.ar    1  UNL1        0.0028
     39 C          59.6423   90.5590    3.6789 C.ar    1  UNL1        0.0337
     40 C          59.5131   92.4096    0.3848 C.ar    1  UNL1        0.0000
     41 C          60.3878   93.1638   -0.4206 C.ar    1  UNL1        0.0000
     42 C          59.9075   93.8427   -1.5447 C.ar    1  UNL1        0.0000
     43 C          58.5529   93.7766   -1.8779 C.ar    1  UNL1        0.0000
     44 C          57.6752   93.0316   -1.0874 C.ar    1  UNL1        0.0000
     45 C          58.1497   92.3514    0.0384 C.ar    1  UNL1        0.0000
@<TRIPOS>BOND
     1    30    31    1
     2    31    32   ar
     3    32    26    1
     4    26    27    2
     5    26    28   am
     6    28     1    1
     7     1     2   ar
     8     2     3   ar
     9     3     4   ar
    10     4     7    1
    11     7     8    1
    12     8     9    1
    13     9    10    1
    14    10    13    1
    15    13    14    1
    16    14    15    1
    17    15    16   ar
    18    16    17   ar
    19    17    22    1
    20    22    23    2
    21    22    24    1
    22    17    18   ar
    23    18    19   ar
    24    19    20   ar
    25    20    21    1
    26    10    11    1
    27    11    12    1
    28     4     5   ar
    29     5     6   ar
    30    32    33   ar
    31    33    34   ar
    32    34    35   ar
    33    35    36   ar
    34    36    37   ar
    35    37    40    1
    36    40    41   ar
    37    41    42   ar
    38    42    43   ar
    39    43    44   ar
    40    44    45   ar
    41    37    38   ar
    42    38    39   ar
    43    39    31   ar
    44     6     1   ar
    45    39    34   ar
    46    12     7    1
    47    45    40   ar
    48    20    15   ar
    49    28    29    1
    50    24    25    1
@<TRIPOS>MOLECULE
*****
 45 50 0 0 0
SMALL
GASTEIGER

@<TRIPOS>ATOM
      1 C          60.3345   86.4280    7.8934 C.ar    1  UNL1        0.0702
      2 C          61.5292   86.5307    8.6154 C.ar    1  UNL1        0.0191
      3 C          61.7271   85.7620    9.7632 C.ar    1  UNL1        0.0356
      4 C          60.7133   84.8919   10.1998 C.ar    1  UNL1        0.1318
      5 N          59.5467   84.8333    9.4978 N.ar    1  UNL1       -0.2279
      6 C          59.3335   85.5698    8.3755 C.ar    1  UNL1        0.1149
      7 N          60.8776   84.0811   11.3835 N.pl3   1  UNL1       -0.2932
      8 C          59.7244   83.3962   11.9932 C.3     1  UNL1        0.0923
      9 C          59.9619   83.1352   13.4856 C.3     1  UNL1        0.0252
     10 C          61.2710   82.3507   13.7541 C.3     1  UNL1        0.0472
     11 C          62.3696   82.6322   12.6971 C.3     1  UNL1        0.0252
     12 C          62.1961   83.9989   12.0306 C.3     1  UNL1        0.0923
     13 C          60.9925   80.8373   13.8651 C.3     1  UNL1        0.2054
     14 O          61.1468   80.1894   12.6009 O.3     1  UNL1       -0.4746
     15 C          60.1472   80.0453   11.6231 C.ar    1  UNL1        0.1492
     16 C          60.2588   80.6117   10.3367 C.ar    1  UNL1        0.0442
     17 C          59.2342   80.4463    9.3877 C.ar    1  UNL1        0.0785
     18 C          58.0947   79.7016    9.7352 C.ar    1  UNL1        0.0075
     19 C          57.9826   79.1334   11.0050 C.ar    1  UNL1        0.0147
     20 C          59.0023   79.3015   11.9452 C.ar    1  UNL1        0.0915
     21 CL         58.8276   78.5803   13.5381 Cl      1  UNL1       -0.0791
     22 C          59.3576   81.0489    8.0412 C.2     1  UNL1        0.3381
     23 O          59.3131   80.3239    7.0105 O.2     1  UNL1       -0.2451
     24 O          59.5234   82.4243    7.8994 O.3     1  UNL1       -0.4771
     25 H          59.6082   82.8465    6.9824 H       1  UNL1        0.2954
     26 C          60.1328   88.6804    6.7397 C.2     1  UNL1        0.2839
     27 O          60.0530   89.3045    7.8319 O.2     1  UNL1       -0.2665
     28 N          60.1358   87.2436    6.7259 N.am    1  UNL1       -0.2766
     29 H          59.8959   86.7615    5.8301 H       1  UNL1        0.1553
     30 C          57.6397   89.8115    5.0728 C.3     1  UNL1        0.0345
     31 C          59.0965   89.9215    4.7368 C.ar    1  UNL1        0.0202
     32 C          60.1823   89.4252    5.4671 C.ar    1  UNL1        0.1946
     33 O          61.3137   89.7210    4.8523 O.2     1  UNL1       -0.4492
     34 C          61.0178   90.3829    3.7605 C.ar    1  UNL1        0.1452
     35 C          61.9024   90.8899    2.8151 C.ar    1  UNL1        0.0375
     36 C          61.3671   91.5755    1.7110 C.ar    1  UNL1        0.0031
     37 C          59.9632   91.7433    1.5683 C.ar    1  UNL1        0.0002
     38 C          59.0971   91.2110    2.5536 C.ar    1  UNL1        0.0028
     39 C          59.6630   90.5360    3.6363 C.ar    1  UNL1        0.0337
     40 C          59.4093   92.4696    0.3976 C.ar    1  UNL1        0.0000
     41 C          58.0235   92.4746    0.1482 C.ar    1  UNL1        0.0000
     42 C          57.5050   93.1586   -0.9556 C.ar    1  UNL1        0.0000
     43 C          58.3605   93.8444   -1.8206 C.ar    1  UNL1        0.0000
     44 C          59.7368   93.8474   -1.5840 C.ar    1  UNL1        0.0000
     45 C          60.2611   93.1644   -0.4823 C.ar    1  UNL1        0.0000
@<TRIPOS>BOND
     1    30    31    1
     2    31    32   ar
     3    32    26    1
     4    26    27    2
     5    26    28   am
     6    28     1    1
     7     1     2   ar
     8     2     3   ar
     9     3     4   ar
    10     4     7    1
    11     7     8    1
    12     8     9    1
    13     9    10    1
    14    10    13    1
    15    13    14    1
    16    14    15    1
    17    15    16   ar
    18    16    17   ar
    19    17    22    1
    20    22    23    2
    21    22    24    1
    22    17    18   ar
    23    18    19   ar
    24    19    20   ar
    25    20    21    1
    26    10    11    1
    27    11    12    1
    28     4     5   ar
    29     5     6   ar
    30    32    33   ar
    31    33    34   ar
    32    34    35   ar
    33    35    36   ar
    34    36    37   ar
    35    37    40    1
    36    40    41   ar
    37    41    42   ar
    38    42    43   ar
    39    43    44   ar
    40    44    45   ar
    41    37    38   ar
    42    38    39   ar
    43    39    31   ar
    44     6     1   ar
    45    39    34   ar
    46    12     7    1
    47    45    40   ar
    48    20    15   ar
    49    28    29    1
    50    24    25    1
