@<TRIPOS>MOLECULE
*****
 32 35 0 0 0
SMALL
GASTEIGER

@<TRIPOS>ATOM
      1 N          47.7983   13.1619  -26.2260 N.ar    1  UNL1       -0.3245
      2 C          49.0003   12.7152  -25.7670 C.ar    1  UNL1        0.0600
      3 C          49.3256   11.4359  -25.2906 C.ar    1  UNL1        0.0177
      4 C          50.6370   11.2030  -24.8400 C.ar    1  UNL1        0.0082
      5 C          51.5965   12.2367  -24.8605 C.ar    1  UNL1        0.0347
      6 BR         53.3702   11.9016  -24.2383 Br      1  UNL1       -0.0490
      7 C          51.2511   13.5139  -25.3325 C.ar    1  UNL1        0.0082
      8 C          49.9447   13.7126  -25.7802 C.ar    1  UNL1        0.0177
      9 C          49.3186   14.8313  -26.2639 C.ar    1  UNL1        0.0174
     10 C          49.8174   16.1195  -26.4125 C.ar    1  UNL1        0.0082
     11 C          48.9463   17.1117  -26.8613 C.ar    1  UNL1        0.0343
     12 BR         49.5675   18.9097  -27.0342 Br      1  UNL1       -0.0490
     13 C          47.6159   16.7965  -27.1830 C.ar    1  UNL1        0.0038
     14 C          47.1157   15.4689  -27.0935 C.ar    1  UNL1       -0.0062
     15 C          48.0032   14.4817  -26.5575 C.ar    1  UNL1        0.0559
     16 C          45.6806   15.2037  -27.5361 C.3     1  UNL1        0.0238
     17 C          44.8927   16.5182  -27.6059 C.3     1  UNL1        0.0047
     18 C          45.5930   14.4632  -28.8830 C.3     1  UNL1        0.0047
     19 C          46.5752   12.3455  -26.2556 C.3     1  UNL1        0.1429
     20 C          45.6637   12.6723  -25.0609 C.3     1  UNL1        0.2027
     21 F          44.3583   12.3310  -25.3737 F       1  UNL1       -0.2334
     22 C          46.1132   11.9095  -23.8040 C.3     1  UNL1        0.1259
     23 N          46.3589   12.8208  -22.6856 N.pl3   1  UNL1       -0.3157
     24 H          45.7820   12.6975  -21.8225 H       1  UNL1        0.1483
     25 C          48.0552   16.0629  -23.1953 C.ar    1  UNL1        0.2261
     26 C          49.3392   15.8020  -22.7102 C.ar    1  UNL1        0.0578
     27 C          49.6387   14.5332  -22.2133 C.ar    1  UNL1        0.0077
     28 C          48.6572   13.5411  -22.2038 C.ar    1  UNL1        0.0343
     29 C          47.3778   13.8316  -22.6971 C.ar    1  UNL1        0.1317
     30 N          47.1131   15.0775  -23.1801 N.ar    1  UNL1       -0.1969
     31 C          46.4703   17.9287  -23.5351 C.3     1  UNL1        0.2542
     32 O          47.7529   17.3352  -23.6871 O.3     1  UNL1       -0.4561
@<TRIPOS>BOND
     1    31    32    1
     2    32    25    1
     3    25    26   ar
     4    26    27   ar
     5    27    28   ar
     6    28    29   ar
     7    29    23    1
     8    23    22    1
     9    22    20    1
    10    20    21    1
    11    20    19    1
    12    19     1    1
    13     1     2   ar
    14     2     3   ar
    15     3     4   ar
    16     4     5   ar
    17     5     6    1
    18     5     7   ar
    19     7     8   ar
    20     8     9   ar
    21     9    10   ar
    22    10    11   ar
    23    11    12    1
    24    11    13   ar
    25    13    14   ar
    26    14    16    1
    27    16    17    1
    28    16    18    1
    29    14    15   ar
    30    29    30   ar
    31    30    25   ar
    32    15     1   ar
    33     8     2   ar
    34    15     9   ar
    35    23    24    1
@<TRIPOS>MOLECULE
*****
 32 35 0 0 0
SMALL
GASTEIGER

@<TRIPOS>ATOM
      1 N          46.5297   14.1995  -23.8765 N.ar    1  UNL1       -0.3245
      2 C          46.9149   15.3280  -24.5347 C.ar    1  UNL1        0.0600
      3 C          46.2834   15.9582  -25.6180 C.ar    1  UNL1        0.0177
      4 C          46.8776   17.1113  -26.1605 C.ar    1  UNL1        0.0082
      5 C          48.0844   17.6134  -25.6302 C.ar    1  UNL1        0.0347
      6 BR         48.8784   19.1770  -26.3853 Br      1  UNL1       -0.0490
      7 C          48.7075   16.9647  -24.5512 C.ar    1  UNL1        0.0082
      8 C          48.0903   15.8276  -24.0292 C.ar    1  UNL1        0.0177
      9 C          48.4637   14.9852  -23.0151 C.ar    1  UNL1        0.0174
     10 C          49.6096   15.0133  -22.2297 C.ar    1  UNL1        0.0082
     11 C          49.7951   13.9864  -21.3046 C.ar    1  UNL1        0.0343
     12 BR         51.3777   13.9494  -20.2358 Br      1  UNL1       -0.0490
     13 C          48.8272   12.9793  -21.1576 C.ar    1  UNL1        0.0038
     14 C          47.6230   12.9786  -21.9131 C.ar    1  UNL1       -0.0062
     15 C          47.4886   13.9968  -22.9105 C.ar    1  UNL1        0.0559
     16 C          46.5930   11.8892  -21.6341 C.3     1  UNL1        0.0238
     17 C          47.2303   10.5018  -21.7840 C.3     1  UNL1        0.0047
     18 C          45.9367   12.0221  -20.2477 C.3     1  UNL1        0.0047
     19 C          45.3544   13.3950  -24.2432 C.3     1  UNL1        0.1429
     20 C          45.7584   12.1878  -25.1060 C.3     1  UNL1        0.2027
     21 F          44.6176   11.5523  -25.5676 F       1  UNL1       -0.2334
     22 C          46.6244   12.6305  -26.2966 C.3     1  UNL1        0.1259
     23 N          47.8092   11.7834  -26.4393 N.pl3   1  UNL1       -0.3157
     24 H          47.8117   11.0772  -27.2102 H       1  UNL1        0.1483
     25 C          50.4043   11.0204  -23.9229 C.ar    1  UNL1        0.2261
     26 C          51.2430   12.1337  -24.0191 C.ar    1  UNL1        0.0578
     27 C          50.9356   13.1459  -24.9288 C.ar    1  UNL1        0.0077
     28 C          49.7994   13.0371  -25.7319 C.ar    1  UNL1        0.0343
     29 C          48.9763   11.9089  -25.6134 C.ar    1  UNL1        0.1317
     30 N          49.2973   10.9369  -24.7145 N.ar    1  UNL1       -0.1969
     31 C          50.2721    8.6639  -23.1895 C.3     1  UNL1        0.2542
     32 O          50.7151   10.0035  -23.0168 O.3     1  UNL1       -0.4561
@<TRIPOS>BOND
     1    31    32    1
     2    32    25    1
     3    25    26   ar
     4    26    27   ar
     5    27    28   ar
     6    28    29   ar
     7    29    23    1
     8    23    22    1
     9    22    20    1
    10    20    21    1
    11    20    19    1
    12    19     1    1
    13     1     2   ar
    14     2     3   ar
    15     3     4   ar
    16     4     5   ar
    17     5     6    1
    18     5     7   ar
    19     7     8   ar
    20     8     9   ar
    21     9    10   ar
    22    10    11   ar
    23    11    12    1
    24    11    13   ar
    25    13    14   ar
    26    14    16    1
    27    16    17    1
    28    16    18    1
    29    14    15   ar
    30    29    30   ar
    31    30    25   ar
    32    15     1   ar
    33     8     2   ar
    34    15     9   ar
    35    23    24    1
@<TRIPOS>MOLECULE
*****
 32 35 0 0 0
SMALL
GASTEIGER

@<TRIPOS>ATOM
      1 N          47.5612   12.2601  -25.3592 N.ar    1  UNL1       -0.3245
      2 C          47.1216   12.3028  -26.6476 C.ar    1  UNL1        0.0600
      3 C          47.1533   11.2808  -27.6089 C.ar    1  UNL1        0.0177
      4 C          46.6617   11.5580  -28.8967 C.ar    1  UNL1        0.0082
      5 C          46.1577   12.8372  -29.2120 C.ar    1  UNL1        0.0347
      6 BR         45.5005   13.1951  -30.9685 Br      1  UNL1       -0.0490
      7 C          46.1417   13.8511  -28.2398 C.ar    1  UNL1        0.0082
      8 C          46.6289   13.5440  -26.9690 C.ar    1  UNL1        0.0177
      9 C          46.7618   14.3156  -25.8445 C.ar    1  UNL1        0.0174
     10 C          46.4722   15.6629  -25.6670 C.ar    1  UNL1        0.0082
     11 C          46.7714   16.2403  -24.4334 C.ar    1  UNL1        0.0343
     12 BR         46.4407   18.1006  -24.1536 Br      1  UNL1       -0.0490
     13 C          47.3169   15.4627  -23.3987 C.ar    1  UNL1        0.0038
     14 C          47.5573   14.0700  -23.5523 C.ar    1  UNL1       -0.0062
     15 C          47.3161   13.5147  -24.8495 C.ar    1  UNL1        0.0559
     16 C          48.0795   13.2880  -22.3517 C.3     1  UNL1        0.0238
     17 C          48.9319   14.1947  -21.4546 C.3     1  UNL1        0.0047
     18 C          46.9576   12.6321  -21.5262 C.3     1  UNL1        0.0047
     19 C          48.2134   11.0901  -24.7518 C.3     1  UNL1        0.1429
     20 C          49.6700   10.9603  -25.2277 C.3     1  UNL1        0.2027
     21 F          49.6948   10.8792  -26.6101 F       1  UNL1       -0.2334
     22 C          50.5076   12.1626  -24.7625 C.3     1  UNL1        0.1259
     23 N          50.6281   13.1696  -25.8175 N.pl3   1  UNL1       -0.3157
     24 H          50.7739   12.8329  -26.7965 H       1  UNL1        0.1483
     25 C          49.8657   16.7447  -26.3527 C.ar    1  UNL1        0.2261
     26 C          50.2492   17.3123  -25.1350 C.ar    1  UNL1        0.0578
     27 C          50.7685   16.4938  -24.1315 C.ar    1  UNL1        0.0077
     28 C          50.8983   15.1218  -24.3515 C.ar    1  UNL1        0.0343
     29 C          50.5055   14.5804  -25.5831 C.ar    1  UNL1        0.1317
     30 N          50.0051   15.4025  -26.5472 N.ar    1  UNL1       -0.1969
     31 C          49.1770   18.9654  -27.1911 C.3     1  UNL1        0.2542
     32 O          49.3396   17.5628  -27.3556 O.3     1  UNL1       -0.4561
@<TRIPOS>BOND
     1    31    32    1
     2    32    25    1
     3    25    26   ar
     4    26    27   ar
     5    27    28   ar
     6    28    29   ar
     7    29    23    1
     8    23    22    1
     9    22    20    1
    10    20    21    1
    11    20    19    1
    12    19     1    1
    13     1     2   ar
    14     2     3   ar
    15     3     4   ar
    16     4     5   ar
    17     5     6    1
    18     5     7   ar
    19     7     8   ar
    20     8     9   ar
    21     9    10   ar
    22    10    11   ar
    23    11    12    1
    24    11    13   ar
    25    13    14   ar
    26    14    16    1
    27    16    17    1
    28    16    18    1
    29    14    15   ar
    30    29    30   ar
    31    30    25   ar
    32    15     1   ar
    33     8     2   ar
    34    15     9   ar
    35    23    24    1
@<TRIPOS>MOLECULE
*****
 32 35 0 0 0
SMALL
GASTEIGER

@<TRIPOS>ATOM
      1 N          48.7111   12.8944  -24.1950 N.ar    1  UNL1       -0.3245
      2 C          49.1711   14.0761  -24.6919 C.ar    1  UNL1        0.0600
      3 C          48.8908   14.6615  -25.9362 C.ar    1  UNL1        0.0177
      4 C          49.5021   15.8877  -26.2519 C.ar    1  UNL1        0.0082
      5 C          50.3822   16.5062  -25.3394 C.ar    1  UNL1        0.0347
      6 BR         51.2070   18.1682  -25.7898 Br      1  UNL1       -0.0490
      7 C          50.6583   15.9017  -24.1018 C.ar    1  UNL1        0.0082
      8 C          50.0310   14.6893  -23.8136 C.ar    1  UNL1        0.0177
      9 C          50.1196   13.8664  -22.7216 C.ar    1  UNL1        0.0174
     10 C          50.9077   14.0003  -21.5851 C.ar    1  UNL1        0.0082
     11 C          50.8736   12.9757  -20.6398 C.ar    1  UNL1        0.0343
     12 BR         51.9762   13.0857  -19.0840 Br      1  UNL1       -0.0490
     13 C          50.0363   11.8636  -20.8275 C.ar    1  UNL1        0.0038
     14 C          49.1804   11.7497  -21.9567 C.ar    1  UNL1       -0.0062
     15 C          49.2883   12.7733  -22.9517 C.ar    1  UNL1        0.0559
     16 C          48.2486   10.5454  -22.0413 C.3     1  UNL1        0.0238
     17 C          49.0184    9.2533  -21.7388 C.3     1  UNL1        0.0047
     18 C          47.0273   10.6628  -21.1113 C.3     1  UNL1        0.0047
     19 C          47.8374   11.9746  -24.9392 C.3     1  UNL1        0.1429
     20 C          46.3590   12.2110  -24.5878 C.3     1  UNL1        0.2027
     21 F          46.2499   13.3507  -23.8085 F       1  UNL1       -0.2334
     22 C          45.5117   12.3688  -25.8609 C.3     1  UNL1        0.1259
     23 N          46.2996   12.9255  -26.9612 N.pl3   1  UNL1       -0.3157
     24 H          46.9159   13.7438  -26.7523 H       1  UNL1        0.1483
     25 C          45.9748   12.6584  -30.6316 C.ar    1  UNL1        0.2261
     26 C          46.3311   11.3272  -30.8619 C.ar    1  UNL1        0.0578
     27 C          46.6784   10.5148  -29.7821 C.ar    1  UNL1        0.0077
     28 C          46.6685   11.0371  -28.4879 C.ar    1  UNL1        0.0343
     29 C          46.3065   12.3762  -28.2872 C.ar    1  UNL1        0.1317
     30 N          45.9681   13.1465  -29.3586 N.ar    1  UNL1       -0.1969
     31 C          45.1824   12.9487  -32.9546 C.3     1  UNL1        0.2542
     32 O          45.6332   13.4742  -31.7132 O.3     1  UNL1       -0.4561
@<TRIPOS>BOND
     1    31    32    1
     2    32    25    1
     3    25    26   ar
     4    26    27   ar
     5    27    28   ar
     6    28    29   ar
     7    29    23    1
     8    23    22    1
     9    22    20    1
    10    20    21    1
    11    20    19    1
    12    19     1    1
    13     1     2   ar
    14     2     3   ar
    15     3     4   ar
    16     4     5   ar
    17     5     6    1
    18     5     7   ar
    19     7     8   ar
    20     8     9   ar
    21     9    10   ar
    22    10    11   ar
    23    11    12    1
    24    11    13   ar
    25    13    14   ar
    26    14    16    1
    27    16    17    1
    28    16    18    1
    29    14    15   ar
    30    29    30   ar
    31    30    25   ar
    32    15     1   ar
    33     8     2   ar
    34    15     9   ar
    35    23    24    1
@<TRIPOS>MOLECULE
*****
 32 35 0 0 0
SMALL
GASTEIGER

@<TRIPOS>ATOM
      1 N          46.8644   14.4516  -24.0989 N.ar    1  UNL1       -0.3245
      2 C          47.0383   13.3869  -23.2675 C.ar    1  UNL1        0.0600
      3 C          47.2693   13.3962  -21.8833 C.ar    1  UNL1        0.0177
      4 C          47.4451   12.1658  -21.2259 C.ar    1  UNL1        0.0082
      5 C          47.3980   10.9543  -21.9469 C.ar    1  UNL1        0.0347
      6 BR         47.6454    9.2944  -21.0364 Br      1  UNL1       -0.0490
      7 C          47.1745   10.9642  -23.3337 C.ar    1  UNL1        0.0082
      8 C          46.9960   12.1996  -23.9569 C.ar    1  UNL1        0.0177
      9 C          46.7888   12.5236  -25.2721 C.ar    1  UNL1        0.0174
     10 C          46.7331   11.6893  -26.3818 C.ar    1  UNL1        0.0082
     11 C          46.5858   12.2780  -27.6373 C.ar    1  UNL1        0.0343
     12 BR         46.5550   11.1802  -29.2001 Br      1  UNL1       -0.0490
     13 C          46.4636   13.6720  -27.7583 C.ar    1  UNL1        0.0038
     14 C          46.4565   14.5269  -26.6225 C.ar    1  UNL1       -0.0062
     15 C          46.6866   13.9099  -25.3514 C.ar    1  UNL1        0.0559
     16 C          46.2419   16.0208  -26.8412 C.3     1  UNL1        0.0238
     17 C          47.5010   16.6579  -27.4429 C.3     1  UNL1        0.0047
     18 C          45.0195   16.3304  -27.7245 C.3     1  UNL1        0.0047
     19 C          46.9390   15.8547  -23.6639 C.3     1  UNL1        0.1429
     20 C          48.3905   16.2629  -23.3613 C.3     1  UNL1        0.2027
     21 F          48.7331   15.8295  -22.0912 F       1  UNL1       -0.2334
     22 C          49.3561   15.6595  -24.3943 C.3     1  UNL1        0.1259
     23 N          50.2308   14.6566  -23.7856 N.pl3   1  UNL1       -0.3157
     24 H          50.7518   14.9268  -22.9204 H       1  UNL1        0.1483
     25 C          50.6236   10.9840  -23.8664 C.ar    1  UNL1        0.2261
     26 C          50.6159   10.7178  -25.2379 C.ar    1  UNL1        0.0578
     27 C          50.4819   11.7741  -26.1396 C.ar    1  UNL1        0.0077
     28 C          50.3556   13.0807  -25.6656 C.ar    1  UNL1        0.0343
     29 C          50.3669   13.3175  -24.2842 C.ar    1  UNL1        0.1317
     30 N          50.5030   12.2685  -23.4258 N.ar    1  UNL1       -0.1969
     31 C          50.4275    8.5849  -23.3053 C.3     1  UNL1        0.2542
     32 O          50.7514    9.9260  -22.9629 O.3     1  UNL1       -0.4561
@<TRIPOS>BOND
     1    31    32    1
     2    32    25    1
     3    25    26   ar
     4    26    27   ar
     5    27    28   ar
     6    28    29   ar
     7    29    23    1
     8    23    22    1
     9    22    20    1
    10    20    21    1
    11    20    19    1
    12    19     1    1
    13     1     2   ar
    14     2     3   ar
    15     3     4   ar
    16     4     5   ar
    17     5     6    1
    18     5     7   ar
    19     7     8   ar
    20     8     9   ar
    21     9    10   ar
    22    10    11   ar
    23    11    12    1
    24    11    13   ar
    25    13    14   ar
    26    14    16    1
    27    16    17    1
    28    16    18    1
    29    14    15   ar
    30    29    30   ar
    31    30    25   ar
    32    15     1   ar
    33     8     2   ar
    34    15     9   ar
    35    23    24    1
@<TRIPOS>MOLECULE
*****
 32 35 0 0 0
SMALL
GASTEIGER

@<TRIPOS>ATOM
      1 N          47.9630   15.1108  -26.9248 N.ar    1  UNL1       -0.3245
      2 C          48.8806   16.0270  -26.5082 C.ar    1  UNL1        0.0600
      3 C          48.9205   17.4021  -26.7855 C.ar    1  UNL1        0.0177
      4 C          49.9852   18.1591  -26.2653 C.ar    1  UNL1        0.0082
      5 C          50.9911   17.5442  -25.4909 C.ar    1  UNL1        0.0347
      6 BR         52.4318   18.5887  -24.7989 Br      1  UNL1       -0.0490
      7 C          50.9400   16.1647  -25.2306 C.ar    1  UNL1        0.0082
      8 C          49.8677   15.4415  -25.7534 C.ar    1  UNL1        0.0177
      9 C          49.5652   14.1065  -25.6903 C.ar    1  UNL1        0.0174
     10 C          50.2823   13.0725  -25.1013 C.ar    1  UNL1        0.0082
     11 C          49.7946   11.7737  -25.2421 C.ar    1  UNL1        0.0343
     12 BR         50.7689   10.3102  -24.4956 Br      1  UNL1       -0.0490
     13 C          48.5942   11.5366  -25.9318 C.ar    1  UNL1        0.0038
     14 C          47.8225   12.5957  -26.4828 C.ar    1  UNL1       -0.0062
     15 C          48.3800   13.9113  -26.3946 C.ar    1  UNL1        0.0559
     16 C          46.4936   12.2541  -27.1482 C.3     1  UNL1        0.0238
     17 C          46.7056   11.2232  -28.2644 C.3     1  UNL1        0.0047
     18 C          45.4353   11.7447  -26.1527 C.3     1  UNL1        0.0047
     19 C          46.8342   15.4242  -27.8141 C.3     1  UNL1        0.1429
     20 C          45.7627   16.2460  -27.0783 C.3     1  UNL1        0.2027
     21 F          44.6815   16.4477  -27.9203 F       1  UNL1       -0.2334
     22 C          45.2998   15.5250  -25.8018 C.3     1  UNL1        0.1259
     23 N          45.9998   16.0295  -24.6199 N.pl3   1  UNL1       -0.3157
     24 H          45.8995   17.0449  -24.3921 H       1  UNL1        0.1483
     25 C          47.1796   13.0554  -22.7729 C.ar    1  UNL1        0.2261
     26 C          48.2567   13.5691  -22.0462 C.ar    1  UNL1        0.0578
     27 C          48.5868   14.9187  -22.1733 C.ar    1  UNL1        0.0077
     28 C          47.8428   15.7392  -23.0223 C.ar    1  UNL1        0.0343
     29 C          46.7674   15.1963  -23.7386 C.ar    1  UNL1        0.1317
     30 N          46.4641   13.8762  -23.5933 N.ar    1  UNL1       -0.1969
     31 C          47.7275   10.7554  -22.0527 C.3     1  UNL1        0.2542
     32 O          46.8525   11.7026  -22.6509 O.3     1  UNL1       -0.4561
@<TRIPOS>BOND
     1    31    32    1
     2    32    25    1
     3    25    26   ar
     4    26    27   ar
     5    27    28   ar
     6    28    29   ar
     7    29    23    1
     8    23    22    1
     9    22    20    1
    10    20    21    1
    11    20    19    1
    12    19     1    1
    13     1     2   ar
    14     2     3   ar
    15     3     4   ar
    16     4     5   ar
    17     5     6    1
    18     5     7   ar
    19     7     8   ar
    20     8     9   ar
    21     9    10   ar
    22    10    11   ar
    23    11    12    1
    24    11    13   ar
    25    13    14   ar
    26    14    16    1
    27    16    17    1
    28    16    18    1
    29    14    15   ar
    30    29    30   ar
    31    30    25   ar
    32    15     1   ar
    33     8     2   ar
    34    15     9   ar
    35    23    24    1
@<TRIPOS>MOLECULE
*****
 32 35 0 0 0
SMALL
GASTEIGER

@<TRIPOS>ATOM
      1 N          47.4993   12.2735  -25.9926 N.ar    1  UNL1       -0.3245
      2 C          47.0381   12.2330  -27.2735 C.ar    1  UNL1        0.0600
      3 C          47.0559   11.1517  -28.1678 C.ar    1  UNL1        0.0177
      4 C          46.5421   11.3452  -29.4623 C.ar    1  UNL1        0.0082
      5 C          46.0301   12.6010  -29.8502 C.ar    1  UNL1        0.0347
      6 BR         45.3428   12.8449  -31.6148 Br      1  UNL1       -0.0490
      7 C          46.0282   13.6751  -28.9448 C.ar    1  UNL1        0.0082
      8 C          46.5373   13.4506  -27.6654 C.ar    1  UNL1        0.0177
      9 C          46.6874   14.2928  -26.5950 C.ar    1  UNL1        0.0174
     10 C          46.3978   15.6483  -26.4993 C.ar    1  UNL1        0.0082
     11 C          46.7164   16.3040  -25.3105 C.ar    1  UNL1        0.0343
     12 BR         46.3864   18.1780  -25.1448 Br      1  UNL1       -0.0490
     13 C          47.2809   15.5948  -24.2374 C.ar    1  UNL1        0.0038
     14 C          47.5217   14.1955  -24.3055 C.ar    1  UNL1       -0.0062
     15 C          47.2601   13.5579  -25.5603 C.ar    1  UNL1        0.0559
     16 C          48.0658   13.4926  -23.0664 C.3     1  UNL1        0.0238
     17 C          48.9108   14.4628  -22.2308 C.3     1  UNL1        0.0047
     18 C          46.9609   12.8686  -22.1943 C.3     1  UNL1        0.0047
     19 C          48.1642   11.1455  -25.3226 C.3     1  UNL1        0.1429
     20 C          49.6696   11.1260  -25.6362 C.3     1  UNL1        0.2027
     21 F          50.1975   12.3894  -25.4274 F       1  UNL1       -0.2334
     22 C          50.4008   10.1044  -24.7501 C.3     1  UNL1        0.1259
     23 N          50.7068   10.6626  -23.4325 N.pl3   1  UNL1       -0.3157
     24 H          51.4525   11.3932  -23.3755 H       1  UNL1        0.1483
     25 C          49.7912   10.4045  -19.8627 C.ar    1  UNL1        0.2261
     26 C          48.6445    9.6077  -19.9104 C.ar    1  UNL1        0.0578
     27 C          48.1782    9.1523  -21.1440 C.ar    1  UNL1        0.0077
     28 C          48.8571    9.4964  -22.3138 C.ar    1  UNL1        0.0343
     29 C          50.0049   10.2970  -22.2352 C.ar    1  UNL1        0.1317
     30 N          50.4409   10.7250  -21.0176 N.ar    1  UNL1       -0.1969
     31 C          49.4538   11.6521  -17.7560 C.3     1  UNL1        0.2542
     32 O          50.2549   10.8662  -18.6283 O.3     1  UNL1       -0.4561
@<TRIPOS>BOND
     1    31    32    1
     2    32    25    1
     3    25    26   ar
     4    26    27   ar
     5    27    28   ar
     6    28    29   ar
     7    29    23    1
     8    23    22    1
     9    22    20    1
    10    20    21    1
    11    20    19    1
    12    19     1    1
    13     1     2   ar
    14     2     3   ar
    15     3     4   ar
    16     4     5   ar
    17     5     6    1
    18     5     7   ar
    19     7     8   ar
    20     8     9   ar
    21     9    10   ar
    22    10    11   ar
    23    11    12    1
    24    11    13   ar
    25    13    14   ar
    26    14    16    1
    27    16    17    1
    28    16    18    1
    29    14    15   ar
    30    29    30   ar
    31    30    25   ar
    32    15     1   ar
    33     8     2   ar
    34    15     9   ar
    35    23    24    1
@<TRIPOS>MOLECULE
*****
 32 35 0 0 0
SMALL
GASTEIGER

@<TRIPOS>ATOM
      1 N          46.4859   14.3464  -24.5223 N.ar    1  UNL1       -0.3245
      2 C          47.3026   14.1356  -23.4529 C.ar    1  UNL1        0.0600
      3 C          47.1172   13.2478  -22.3819 C.ar    1  UNL1        0.0177
      4 C          48.0880   13.2137  -21.3653 C.ar    1  UNL1        0.0082
      5 C          49.2150   14.0602  -21.4211 C.ar    1  UNL1        0.0347
      6 BR         50.5185   14.0029  -20.0272 Br      1  UNL1       -0.0490
      7 C          49.3800   14.9491  -22.4963 C.ar    1  UNL1        0.0082
      8 C          48.4045   14.9548  -23.4936 C.ar    1  UNL1        0.0177
      9 C          48.2812   15.7121  -24.6289 C.ar    1  UNL1        0.0174
     10 C          49.0987   16.7353  -25.0927 C.ar    1  UNL1        0.0082
     11 C          48.7108   17.4106  -26.2494 C.ar    1  UNL1        0.0343
     12 BR         49.7719   18.8589  -26.9013 Br      1  UNL1       -0.0490
     13 C          47.5439   17.0337  -26.9344 C.ar    1  UNL1        0.0038
     14 C          46.7362   15.9471  -26.5011 C.ar    1  UNL1       -0.0062
     15 C          47.1096   15.3187  -25.2702 C.ar    1  UNL1        0.0559
     16 C          45.5293   15.5583  -27.3483 C.3     1  UNL1        0.0238
     17 C          44.7014   16.8012  -27.6992 C.3     1  UNL1        0.0047
     18 C          45.9139   14.8000  -28.6319 C.3     1  UNL1        0.0047
     19 C          45.1912   13.6749  -24.7124 C.3     1  UNL1        0.1429
     20 C          45.3858   12.2090  -25.1345 C.3     1  UNL1        0.2027
     21 F          44.1554   11.6549  -25.4467 F       1  UNL1       -0.2334
     22 C          46.3241   12.1081  -26.3482 C.3     1  UNL1        0.1259
     23 N          47.4246   11.1770  -26.0966 N.pl3   1  UNL1       -0.3157
     24 H          47.3240   10.1985  -26.4509 H       1  UNL1        0.1483
     25 C          50.1648   11.2889  -23.6212 C.ar    1  UNL1        0.2261
     26 C          51.0116   12.2586  -24.1641 C.ar    1  UNL1        0.0578
     27 C          50.6610   12.8800  -25.3631 C.ar    1  UNL1        0.0077
     28 C          49.4740   12.5278  -26.0072 C.ar    1  UNL1        0.0343
     29 C          48.6441   11.5518  -25.4390 C.ar    1  UNL1        0.1317
     30 N          49.0082   10.9634  -24.2655 N.ar    1  UNL1       -0.1969
     31 C          49.6850    9.7014  -21.7886 C.3     1  UNL1        0.2542
     32 O          50.5185   10.6617  -22.4239 O.3     1  UNL1       -0.4561
@<TRIPOS>BOND
     1    31    32    1
     2    32    25    1
     3    25    26   ar
     4    26    27   ar
     5    27    28   ar
     6    28    29   ar
     7    29    23    1
     8    23    22    1
     9    22    20    1
    10    20    21    1
    11    20    19    1
    12    19     1    1
    13     1     2   ar
    14     2     3   ar
    15     3     4   ar
    16     4     5   ar
    17     5     6    1
    18     5     7   ar
    19     7     8   ar
    20     8     9   ar
    21     9    10   ar
    22    10    11   ar
    23    11    12    1
    24    11    13   ar
    25    13    14   ar
    26    14    16    1
    27    16    17    1
    28    16    18    1
    29    14    15   ar
    30    29    30   ar
    31    30    25   ar
    32    15     1   ar
    33     8     2   ar
    34    15     9   ar
    35    23    24    1
@<TRIPOS>MOLECULE
*****
 32 35 0 0 0
SMALL
GASTEIGER

@<TRIPOS>ATOM
      1 N          48.7701   13.4699  -21.0817 N.ar    1  UNL1       -0.3245
      2 C          47.6705   13.0761  -20.3812 C.ar    1  UNL1        0.0600
      3 C          47.4752   13.0942  -18.9916 C.ar    1  UNL1        0.0177
      4 C          46.2571   12.6124  -18.4806 C.ar    1  UNL1        0.0082
      5 C          45.2619   12.1157  -19.3482 C.ar    1  UNL1        0.0347
      6 BR         43.6171   11.4601  -18.6338 Br      1  UNL1       -0.0490
      7 C          45.4778   12.0970  -20.7361 C.ar    1  UNL1        0.0082
      8 C          46.6928   12.5887  -21.2139 C.ar    1  UNL1        0.0177
      9 C          47.1911   12.6760  -22.4874 C.ar    1  UNL1        0.0174
     10 C          46.6209   12.2544  -23.6822 C.ar    1  UNL1        0.0082
     11 C          47.3718   12.3883  -24.8496 C.ar    1  UNL1        0.0343
     12 BR         46.6553   11.7775  -26.5116 Br      1  UNL1       -0.0490
     13 C          48.6515   12.9659  -24.8088 C.ar    1  UNL1        0.0038
     14 C          49.2159   13.4569  -23.6000 C.ar    1  UNL1       -0.0062
     15 C          48.4616   13.2393  -22.4028 C.ar    1  UNL1        0.0559
     16 C          50.5787   14.1384  -23.6609 C.3     1  UNL1        0.0238
     17 C          51.6168   13.1997  -24.2891 C.3     1  UNL1        0.0047
     18 C          50.5489   15.4772  -24.4206 C.3     1  UNL1        0.0047
     19 C          50.0089   13.9606  -20.4588 C.3     1  UNL1        0.1429
     20 C          51.0827   12.8603  -20.4227 C.3     1  UNL1        0.2027
     21 F          52.3306   13.4316  -20.6084 F       1  UNL1       -0.2334
     22 C          51.0502   12.1068  -19.0829 C.3     1  UNL1        0.1259
     23 N          50.7279   10.6922  -19.2735 N.pl3   1  UNL1       -0.3157
     24 H          51.0850   10.0125  -18.5639 H       1  UNL1        0.1483
     25 C          49.5978    9.8121  -22.6790 C.ar    1  UNL1        0.2261
     26 C          48.3431    9.2478  -22.4354 C.ar    1  UNL1        0.0578
     27 C          47.8724    9.1651  -21.1246 C.ar    1  UNL1        0.0077
     28 C          48.6561    9.6429  -20.0732 C.ar    1  UNL1        0.0343
     29 C          49.9107   10.2041  -20.3478 C.ar    1  UNL1        0.1317
     30 N          50.3447   10.2761  -21.6371 N.ar    1  UNL1       -0.1969
     31 C          51.2531    9.2224  -24.4171 C.3     1  UNL1        0.2542
     32 O          50.0724    9.8893  -23.9907 O.3     1  UNL1       -0.4561
@<TRIPOS>BOND
     1    31    32    1
     2    32    25    1
     3    25    26   ar
     4    26    27   ar
     5    27    28   ar
     6    28    29   ar
     7    29    23    1
     8    23    22    1
     9    22    20    1
    10    20    21    1
    11    20    19    1
    12    19     1    1
    13     1     2   ar
    14     2     3   ar
    15     3     4   ar
    16     4     5   ar
    17     5     6    1
    18     5     7   ar
    19     7     8   ar
    20     8     9   ar
    21     9    10   ar
    22    10    11   ar
    23    11    12    1
    24    11    13   ar
    25    13    14   ar
    26    14    16    1
    27    16    17    1
    28    16    18    1
    29    14    15   ar
    30    29    30   ar
    31    30    25   ar
    32    15     1   ar
    33     8     2   ar
    34    15     9   ar
    35    23    24    1
