@<TRIPOS>MOLECULE
*****
 52 58 0 0 0
SMALL
GASTEIGER

@<TRIPOS>ATOM
      1 C          60.6672   87.6543   11.0931 C.ar    1  UNL1        0.0489
      2 C          61.9309   87.3739   11.6370 C.ar    1  UNL1        0.0177
      3 C          62.0422   86.6607   12.8336 C.ar    1  UNL1        0.0382
      4 C          60.8992   86.2165   13.5080 C.ar    1  UNL1        0.1388
      5 C          59.6313   86.4872   12.9579 C.ar    1  UNL1        0.0382
      6 C          59.5197   87.2016   11.7615 C.ar    1  UNL1        0.0177
      7 N          59.8562   89.7545    7.5421 N.pl3   1  UNL1       -0.3031
      8 C          59.7686   88.2906    7.5301 C.3     1  UNL1        0.1123
      9 C          60.7171   87.7032    8.5744 C.3     1  UNL1        0.1132
     10 N          60.5445   88.3910    9.8619 N.pl3   1  UNL1       -0.2931
     11 C          60.5835   89.8615    9.8886 C.3     1  UNL1        0.1738
     12 CL         62.2578   90.4243    9.6144 Cl      1  UNL1       -0.0910
     13 C          59.6466   90.4391    8.8224 C.3     1  UNL1        0.1277
     14 C          59.8927   91.9280    3.8766 C.ar    1  UNL1        0.0699
     15 C          58.6932   91.7384    4.5845 C.ar    1  UNL1        0.0190
     16 C          58.6845   91.0257    5.7868 C.ar    1  UNL1        0.0160
     17 C          59.8735   90.4930    6.3064 C.ar    1  UNL1        0.0481
     18 C          61.0735   90.6844    5.6038 C.ar    1  UNL1        0.0160
     19 C          61.0836   91.3988    4.4027 C.ar    1  UNL1        0.0190
     20 N          60.0251   93.2277    0.4920 N.ar    1  UNL1       -0.2024
     21 N          59.8824   94.3556    1.1732 N.ar    1  UNL1       -0.1442
     22 C          59.8111   94.0060    2.4761 C.ar    1  UNL1        0.2073
     23 N          59.9104   92.6668    2.6397 N.ar    1  UNL1       -0.2398
     24 C          60.0541   92.2158    1.3777 C.ar    1  UNL1        0.3522
     25 O          60.2356   91.0077    1.0663 O.2     1  UNL1       -0.2444
     26 C          60.2038   93.1497   -0.9614 C.3     1  UNL1        0.1099
     27 C          61.3662   94.0582   -1.3785 C.3     1  UNL1        0.0265
     28 C          57.7207   92.6182   -1.2781 C.3     1  UNL1        0.0021
     29 C          58.8861   93.5273   -1.6690 C.3     1  UNL1        0.0245
     30 O          61.0727   85.5085   14.7084 O.3     1  UNL1       -0.4727
     31 C          62.1278   84.5853   14.9830 C.3     1  UNL1        0.2374
     32 C          61.9944   83.3238   14.1195 C.3     1  UNL1        0.1909
     33 C          63.3165   82.8113   13.6267 C.3     1  UNL1        0.1783
     34 O          63.0792   82.3077   12.3511 O.3     1  UNL1       -0.3271
     35 C          61.8052   82.7867   11.9565 C.3     1  UNL1        0.2232
     36 O          61.2616   83.6061   12.9726 O.3     1  UNL1       -0.3258
     37 C          60.8494   81.6153   11.6903 C.ar    1  UNL1        0.0404
     38 C          59.5780   81.5893   12.3067 C.ar    1  UNL1        0.0021
     39 C          58.7084   80.5143   12.1175 C.ar    1  UNL1        0.0113
     40 C          59.0864   79.4399   11.3148 C.ar    1  UNL1        0.0585
     41 CL         57.9927   78.0879   11.0853 Cl      1  UNL1       -0.0822
     42 C          60.3373   79.4398   10.6975 C.ar    1  UNL1        0.0226
     43 C          61.2219   80.5105   10.8774 C.ar    1  UNL1        0.0591
     44 CL         62.7789   80.4043   10.0592 Cl      1  UNL1       -0.0824
     45 C          61.9833   83.6455   10.6810 C.3     1  UNL1        0.1338
     46 N          60.9348   83.3711    9.6690 N.3     1  UNL1       -0.2659
     47 C          59.7401   84.1981    9.9085 C.3     1  UNL1        0.0898
     48 C          58.5767   83.7251    9.0140 C.3     1  UNL1        0.0897
     49 N          59.0243   83.1285    7.7335 N.3     1  UNL1       -0.2691
     50 C          59.0875   81.6574    7.7963 C.3     1  UNL1        0.0897
     51 C          60.2909   83.7176    7.2597 C.3     1  UNL1        0.0897
     52 C          61.4348   83.5655    8.2873 C.3     1  UNL1        0.0898
@<TRIPOS>BOND
     1    28    29    1
     2    29    26    1
     3    26    27    1
     4    26    20    1
     5    20    21   ar
     6    21    22   ar
     7    22    23   ar
     8    23    14    1
     9    14    15   ar
    10    15    16   ar
    11    16    17   ar
    12    17     7    1
    13     7     8    1
    14     8     9    1
    15     9    10    1
    16    10     1    1
    17     1     2   ar
    18     2     3   ar
    19     3     4   ar
    20     4    30    1
    21    30    31    1
    22    31    32    1
    23    32    33    1
    24    33    34    1
    25    34    35    1
    26    35    45    1
    27    45    46    1
    28    46    47    1
    29    47    48    1
    30    48    49    1
    31    49    50    1
    32    49    51    1
    33    51    52    1
    34    35    37    1
    35    37    38   ar
    36    38    39   ar
    37    39    40   ar
    38    40    41    1
    39    40    42   ar
    40    42    43   ar
    41    43    44    1
    42    35    36    1
    43     4     5   ar
    44     5     6   ar
    45    10    11    1
    46    11    12    1
    47    11    13    1
    48    17    18   ar
    49    18    19   ar
    50    23    24   ar
    51    24    25    2
    52    24    20   ar
    53    19    14   ar
    54    13     7    1
    55     6     1   ar
    56    36    32    1
    57    52    46    1
    58    43    37   ar
@<TRIPOS>MOLECULE
*****
 52 58 0 0 0
SMALL
GASTEIGER

@<TRIPOS>ATOM
      1 C          58.6325   86.0928   10.0933 C.ar    1  UNL1        0.0489
      2 C          58.1017   84.8441    9.7323 C.ar    1  UNL1        0.0177
      3 C          57.8109   83.8907   10.7116 C.ar    1  UNL1        0.0382
      4 C          58.0442   84.1636   12.0642 C.ar    1  UNL1        0.1388
      5 C          58.5660   85.4198   12.4290 C.ar    1  UNL1        0.0382
      6 C          58.8581   86.3733   11.4493 C.ar    1  UNL1        0.0177
      7 N          59.1288   89.1763    7.2784 N.pl3   1  UNL1       -0.3031
      8 C          58.1909   88.0904    6.9753 C.3     1  UNL1        0.1123
      9 C          58.6346   86.8076    7.6771 C.3     1  UNL1        0.1132
     10 N          58.9372   87.0795    9.0895 N.pl3   1  UNL1       -0.2931
     11 C          59.8402   88.1938    9.4173 C.3     1  UNL1        0.1738
     12 CL         61.5146   87.7660    8.9604 Cl      1  UNL1       -0.0910
     13 C          59.3995   89.4686    8.6902 C.3     1  UNL1        0.1277
     14 C          60.3527   91.8638    4.2058 C.ar    1  UNL1        0.0699
     15 C          59.0128   91.8225    4.6288 C.ar    1  UNL1        0.0190
     16 C          58.6145   90.9405    5.6372 C.ar    1  UNL1        0.0160
     17 C          59.5471   90.0868    6.2446 C.ar    1  UNL1        0.0481
     18 C          60.8867   90.1290    5.8273 C.ar    1  UNL1        0.0160
     19 C          61.2863   91.0122    4.8206 C.ar    1  UNL1        0.0190
     20 N          61.9428   93.8273    1.6022 N.ar    1  UNL1       -0.2024
     21 N          60.7927   94.4756    1.7185 N.ar    1  UNL1       -0.1442
     22 C          60.0867   93.8287    2.6713 C.ar    1  UNL1        0.2073
     23 N          60.7718   92.7748    3.1711 N.ar    1  UNL1       -0.2398
     24 C          61.9317   92.8131    2.4857 C.ar    1  UNL1        0.3522
     25 O          62.9005   92.0287    2.6749 O.2     1  UNL1       -0.2444
     26 C          63.0401   94.2304    0.7168 C.3     1  UNL1        0.1099
     27 C          63.0293   93.3485   -0.5372 C.3     1  UNL1        0.0265
     28 C          65.4226   93.2970    0.7499 C.3     1  UNL1        0.0021
     29 C          64.3799   94.1467    1.4768 C.3     1  UNL1        0.0245
     30 O          57.7367   83.1654   13.0031 O.3     1  UNL1       -0.4727
     31 C          58.5208   81.9998   13.2629 C.3     1  UNL1        0.2374
     32 C          59.8309   82.0281   12.4643 C.3     1  UNL1        0.1909
     33 C          60.7610   80.9076   12.8287 C.3     1  UNL1        0.1783
     34 O          62.0462   81.4346   12.7413 O.3     1  UNL1       -0.3271
     35 C          61.9033   82.8429   12.6742 C.3     1  UNL1        0.2232
     36 O          60.5353   83.1932   12.7445 O.3     1  UNL1       -0.3258
     37 C          62.4932   83.3810   11.3631 C.ar    1  UNL1        0.0404
     38 C          61.6899   84.1527   10.4934 C.ar    1  UNL1        0.0021
     39 C          62.1879   84.6153    9.2746 C.ar    1  UNL1        0.0113
     40 C          63.4941   84.3167    8.8924 C.ar    1  UNL1        0.0585
     41 CL         64.1135   84.8949    7.3565 Cl      1  UNL1       -0.0822
     42 C          64.3067   83.5541    9.7314 C.ar    1  UNL1        0.0226
     43 C          63.8222   83.0818   10.9576 C.ar    1  UNL1        0.0591
     44 CL         64.9293   82.1209   11.9353 Cl      1  UNL1       -0.0824
     45 C          62.6285   83.4631   13.8931 C.3     1  UNL1        0.1338
     46 N          62.6639   84.9441   13.8309 N.3     1  UNL1       -0.2659
     47 C          61.6529   85.5347   14.7240 C.3     1  UNL1        0.0898
     48 C          61.5295   87.0490   14.4614 C.3     1  UNL1        0.0897
     49 N          62.7884   87.6675   13.9831 N.3     1  UNL1       -0.2691
     50 C          62.8261   87.7899   12.5148 C.3     1  UNL1        0.0897
     51 C          63.9808   86.9791   14.5124 C.3     1  UNL1        0.0897
     52 C          64.0107   85.4791   14.1425 C.3     1  UNL1        0.0898
@<TRIPOS>BOND
     1    28    29    1
     2    29    26    1
     3    26    27    1
     4    26    20    1
     5    20    21   ar
     6    21    22   ar
     7    22    23   ar
     8    23    14    1
     9    14    15   ar
    10    15    16   ar
    11    16    17   ar
    12    17     7    1
    13     7     8    1
    14     8     9    1
    15     9    10    1
    16    10     1    1
    17     1     2   ar
    18     2     3   ar
    19     3     4   ar
    20     4    30    1
    21    30    31    1
    22    31    32    1
    23    32    33    1
    24    33    34    1
    25    34    35    1
    26    35    45    1
    27    45    46    1
    28    46    47    1
    29    47    48    1
    30    48    49    1
    31    49    50    1
    32    49    51    1
    33    51    52    1
    34    35    37    1
    35    37    38   ar
    36    38    39   ar
    37    39    40   ar
    38    40    41    1
    39    40    42   ar
    40    42    43   ar
    41    43    44    1
    42    35    36    1
    43     4     5   ar
    44     5     6   ar
    45    10    11    1
    46    11    12    1
    47    11    13    1
    48    17    18   ar
    49    18    19   ar
    50    23    24   ar
    51    24    25    2
    52    24    20   ar
    53    19    14   ar
    54    13     7    1
    55     6     1   ar
    56    36    32    1
    57    52    46    1
    58    43    37   ar
@<TRIPOS>MOLECULE
*****
 52 58 0 0 0
SMALL
GASTEIGER

@<TRIPOS>ATOM
      1 C          60.1013   87.0051   10.3432 C.ar    1  UNL1        0.0489
      2 C          61.3153   86.4520   10.7811 C.ar    1  UNL1        0.0177
      3 C          61.3425   85.5897   11.8804 C.ar    1  UNL1        0.0382
      4 C          60.1638   85.2651   12.5615 C.ar    1  UNL1        0.1388
      5 C          58.9438   85.8102   12.1165 C.ar    1  UNL1        0.0382
      6 C          58.9166   86.6738   11.0176 C.ar    1  UNL1        0.0177
      7 N          59.5462   89.6383    7.1127 N.pl3   1  UNL1       -0.3031
      8 C          59.1742   88.2297    6.9449 C.3     1  UNL1        0.1123
      9 C          60.0388   87.3512    7.8481 C.3     1  UNL1        0.1132
     10 N          60.0657   87.8967    9.2128 N.pl3   1  UNL1       -0.2931
     11 C          60.3922   89.3190    9.3993 C.3     1  UNL1        0.1738
     12 CL         62.1290   89.5861    9.0715 Cl      1  UNL1       -0.0910
     13 C          59.5360   90.1885    8.4725 C.3     1  UNL1        0.1277
     14 C          59.8620   92.2166    3.7341 C.ar    1  UNL1        0.0699
     15 C          60.9902   91.5347    4.2222 C.ar    1  UNL1        0.0190
     16 C          60.8834   90.6893    5.3300 C.ar    1  UNL1        0.0160
     17 C          59.6478   90.5058    5.9682 C.ar    1  UNL1        0.0481
     18 C          58.5187   91.1820    5.4803 C.ar    1  UNL1        0.0160
     19 C          58.6240   92.0258    4.3712 C.ar    1  UNL1        0.0190
     20 N          59.9770   93.8890    0.5167 N.ar    1  UNL1       -0.2024
     21 N          60.3086   94.8922    1.3169 N.ar    1  UNL1       -0.1442
     22 C          60.2956   94.3962    2.5733 C.ar    1  UNL1        0.2073
     23 N          59.9633   93.0850    2.5888 N.ar    1  UNL1       -0.2398
     24 C          59.7825   92.8013    1.2836 C.ar    1  UNL1        0.3522
     25 O          59.5086   91.6566    0.8318 O.2     1  UNL1       -0.2444
     26 C          59.9281   93.9723   -0.9465 C.3     1  UNL1        0.1099
     27 C          61.2454   94.5611   -1.4649 C.3     1  UNL1        0.0265
     28 C          57.3810   94.0735   -1.1714 C.3     1  UNL1        0.0021
     29 C          58.7058   94.8076   -1.3799 C.3     1  UNL1        0.0245
     30 O          60.2533   84.3969   13.6618 O.3     1  UNL1       -0.4727
     31 C          59.3158   83.3691   13.9870 C.3     1  UNL1        0.2374
     32 C          59.0008   82.5027   12.7602 C.3     1  UNL1        0.1909
     33 C          58.9905   81.0340   13.0699 C.3     1  UNL1        0.1783
     34 O          59.5062   80.4024   11.9420 O.3     1  UNL1       -0.3271
     35 C          60.1071   81.4127   11.1506 C.3     1  UNL1        0.2232
     36 O          59.9878   82.6656   11.7950 O.3     1  UNL1       -0.3258
     37 C          59.4321   81.4894    9.7739 C.ar    1  UNL1        0.0404
     38 C          58.2983   80.6917    9.4996 C.ar    1  UNL1        0.0021
     39 C          57.6936   80.7089    8.2420 C.ar    1  UNL1        0.0113
     40 C          58.2062   81.5164    7.2288 C.ar    1  UNL1        0.0585
     41 CL         57.4467   81.5296    5.6476 Cl      1  UNL1       -0.0822
     42 C          59.3264   82.3110    7.4728 C.ar    1  UNL1        0.0226
     43 C          59.9453   82.3051    8.7291 C.ar    1  UNL1        0.0591
     44 CL         61.3583   83.3393    8.9265 Cl      1  UNL1       -0.0824
     45 C          61.6121   81.0823   11.0021 C.3     1  UNL1        0.1338
     46 N          62.4185   81.6244   12.1221 N.3     1  UNL1       -0.2659
     47 C          62.8251   80.5532   13.0473 C.3     1  UNL1        0.0898
     48 C          63.4384   81.1580   14.3261 C.3     1  UNL1        0.0897
     49 N          64.1064   82.4610   14.0986 N.3     1  UNL1       -0.2691
     50 C          63.2298   83.6006   14.4228 C.3     1  UNL1        0.0897
     51 C          64.6708   82.5654   12.7398 C.3     1  UNL1        0.0897
     52 C          63.6030   82.3735   11.6395 C.3     1  UNL1        0.0898
@<TRIPOS>BOND
     1    28    29    1
     2    29    26    1
     3    26    27    1
     4    26    20    1
     5    20    21   ar
     6    21    22   ar
     7    22    23   ar
     8    23    14    1
     9    14    15   ar
    10    15    16   ar
    11    16    17   ar
    12    17     7    1
    13     7     8    1
    14     8     9    1
    15     9    10    1
    16    10     1    1
    17     1     2   ar
    18     2     3   ar
    19     3     4   ar
    20     4    30    1
    21    30    31    1
    22    31    32    1
    23    32    33    1
    24    33    34    1
    25    34    35    1
    26    35    45    1
    27    45    46    1
    28    46    47    1
    29    47    48    1
    30    48    49    1
    31    49    50    1
    32    49    51    1
    33    51    52    1
    34    35    37    1
    35    37    38   ar
    36    38    39   ar
    37    39    40   ar
    38    40    41    1
    39    40    42   ar
    40    42    43   ar
    41    43    44    1
    42    35    36    1
    43     4     5   ar
    44     5     6   ar
    45    10    11    1
    46    11    12    1
    47    11    13    1
    48    17    18   ar
    49    18    19   ar
    50    23    24   ar
    51    24    25    2
    52    24    20   ar
    53    19    14   ar
    54    13     7    1
    55     6     1   ar
    56    36    32    1
    57    52    46    1
    58    43    37   ar
@<TRIPOS>MOLECULE
*****
 52 58 0 0 0
SMALL
GASTEIGER

@<TRIPOS>ATOM
      1 C          61.4346   82.2434   13.5953 C.ar    1  UNL1        0.0489
      2 C          60.2323   81.7631   14.1387 C.ar    1  UNL1        0.0177
      3 C          59.7543   80.4979   13.7872 C.ar    1  UNL1        0.0382
      4 C          60.4635   79.6917   12.8896 C.ar    1  UNL1        0.1388
      5 C          61.6753   80.1675   12.3524 C.ar    1  UNL1        0.0382
      6 C          62.1530   81.4336   12.7030 C.ar    1  UNL1        0.0177
      7 N          62.6138   86.0272   14.9991 N.pl3   1  UNL1       -0.3031
      8 C          61.3148   85.8975   14.3307 C.3     1  UNL1        0.1123
      9 C          61.3586   84.7475   13.3254 C.3     1  UNL1        0.1132
     10 N          61.9321   83.5473   13.9507 N.pl3   1  UNL1       -0.2931
     11 C          63.2126   83.6658   14.6655 C.3     1  UNL1        0.1738
     12 CL         64.5388   83.8995   13.4901 Cl      1  UNL1       -0.0910
     13 C          63.1652   84.8359   15.6538 C.3     1  UNL1        0.1277
     14 C          64.2842   89.8851   15.6980 C.ar    1  UNL1        0.0699
     15 C          63.3071   89.3608   16.5620 C.ar    1  UNL1        0.0190
     16 C          62.7616   88.0950   16.3306 C.ar    1  UNL1        0.0160
     17 C          63.1845   87.3277   15.2352 C.ar    1  UNL1        0.0481
     18 C          64.1632   87.8469   14.3732 C.ar    1  UNL1        0.0160
     19 C          64.7108   89.1116   14.6051 C.ar    1  UNL1        0.0190
     20 N          66.0948   93.0272   15.8033 N.ar    1  UNL1       -0.2024
     21 N          65.2892   93.1833   16.8442 N.ar    1  UNL1       -0.1442
     22 C          64.5385   92.0624   16.9149 C.ar    1  UNL1        0.2073
     23 N          64.8555   91.1866   15.9338 N.ar    1  UNL1       -0.2398
     24 C          65.8399   91.8206   15.2662 C.ar    1  UNL1        0.3522
     25 O          66.4722   91.3323   14.2909 O.2     1  UNL1       -0.2444
     26 C          67.1261   93.9873   15.3974 C.3     1  UNL1        0.1099
     27 C          67.0882   94.1579   13.8743 C.3     1  UNL1        0.0265
     28 C          69.2581   92.6789   14.8577 C.3     1  UNL1        0.0021
     29 C          68.5060   93.5113   15.8964 C.3     1  UNL1        0.0245
     30 O          59.9321   78.4315   12.5702 O.3     1  UNL1       -0.4727
     31 C          58.8270   78.1933   11.6968 C.3     1  UNL1        0.2374
     32 C          58.1879   79.5133   11.2447 C.3     1  UNL1        0.1909
     33 C          57.4279   79.3828    9.9568 C.3     1  UNL1        0.1783
     34 O          57.6190   80.5826    9.2777 O.3     1  UNL1       -0.3271
     35 C          58.6863   81.2510    9.9275 C.3     1  UNL1        0.2232
     36 O          59.1747   80.4592   10.9923 O.3     1  UNL1       -0.3258
     37 C          58.2158   82.6031   10.4814 C.ar    1  UNL1        0.0404
     38 C          58.3947   82.9046   11.8504 C.ar    1  UNL1        0.0021
     39 C          57.9352   84.1075   12.3884 C.ar    1  UNL1        0.0113
     40 C          57.2840   85.0346   11.5774 C.ar    1  UNL1        0.0585
     41 CL         56.7024   86.5424   12.2596 Cl      1  UNL1       -0.0822
     42 C          57.0920   84.7599   10.2234 C.ar    1  UNL1        0.0226
     43 C          57.5465   83.5574    9.6678 C.ar    1  UNL1        0.0591
     44 CL         57.2440   83.3083    7.9499 Cl      1  UNL1       -0.0824
     45 C          59.8300   81.4496    8.9034 C.3     1  UNL1        0.1338
     46 N          60.4421   82.7967    9.0005 N.3     1  UNL1       -0.2659
     47 C          61.7795   82.7263    9.6128 C.3     1  UNL1        0.0898
     48 C          62.2923   84.1438    9.9370 C.3     1  UNL1        0.0897
     49 N          61.7694   85.1827    9.0187 N.3     1  UNL1       -0.2691
     50 C          60.5960   85.8792    9.5758 C.3     1  UNL1        0.0897
     51 C          61.5074   84.6491    7.6687 C.3     1  UNL1        0.0897
     52 C          60.5073   83.4712    7.6822 C.3     1  UNL1        0.0898
@<TRIPOS>BOND
     1    28    29    1
     2    29    26    1
     3    26    27    1
     4    26    20    1
     5    20    21   ar
     6    21    22   ar
     7    22    23   ar
     8    23    14    1
     9    14    15   ar
    10    15    16   ar
    11    16    17   ar
    12    17     7    1
    13     7     8    1
    14     8     9    1
    15     9    10    1
    16    10     1    1
    17     1     2   ar
    18     2     3   ar
    19     3     4   ar
    20     4    30    1
    21    30    31    1
    22    31    32    1
    23    32    33    1
    24    33    34    1
    25    34    35    1
    26    35    45    1
    27    45    46    1
    28    46    47    1
    29    47    48    1
    30    48    49    1
    31    49    50    1
    32    49    51    1
    33    51    52    1
    34    35    37    1
    35    37    38   ar
    36    38    39   ar
    37    39    40   ar
    38    40    41    1
    39    40    42   ar
    40    42    43   ar
    41    43    44    1
    42    35    36    1
    43     4     5   ar
    44     5     6   ar
    45    10    11    1
    46    11    12    1
    47    11    13    1
    48    17    18   ar
    49    18    19   ar
    50    23    24   ar
    51    24    25    2
    52    24    20   ar
    53    19    14   ar
    54    13     7    1
    55     6     1   ar
    56    36    32    1
    57    52    46    1
    58    43    37   ar
@<TRIPOS>MOLECULE
*****
 52 58 0 0 0
SMALL
GASTEIGER

@<TRIPOS>ATOM
      1 C          59.2903   86.1284   10.3099 C.ar    1  UNL1        0.0489
      2 C          59.3937   86.0779    8.9106 C.ar    1  UNL1        0.0177
      3 C          58.5427   85.2542    8.1689 C.ar    1  UNL1        0.0382
      4 C          57.5769   84.4676    8.8070 C.ar    1  UNL1        0.1388
      5 C          57.4644   84.5257   10.2097 C.ar    1  UNL1        0.0382
      6 C          58.3164   85.3487   10.9518 C.ar    1  UNL1        0.0177
      7 N          61.4924   88.8820   12.6003 N.pl3   1  UNL1       -0.3031
      8 C          61.2552   89.1754   11.1831 C.3     1  UNL1        0.1123
      9 C          61.1069   87.8723   10.3990 C.3     1  UNL1        0.1132
     10 N          60.1655   86.9728   11.0811 N.pl3   1  UNL1       -0.2931
     11 C          60.3593   86.7015   12.5141 C.3     1  UNL1        0.1738
     12 CL         61.7921   85.6570   12.7406 Cl      1  UNL1       -0.0910
     13 C          60.5299   88.0136   13.2869 C.3     1  UNL1        0.1277
     14 C          64.3969   91.0992   14.7935 C.ar    1  UNL1        0.0699
     15 C          64.2124   91.3251   13.4184 C.ar    1  UNL1        0.0190
     16 C          63.2586   90.5969   12.7019 C.ar    1  UNL1        0.0160
     17 C          62.4687   89.6330   13.3458 C.ar    1  UNL1        0.0481
     18 C          62.6477   89.4084   14.7197 C.ar    1  UNL1        0.0160
     19 C          63.5997   90.1376   15.4375 C.ar    1  UNL1        0.0190
     20 N          67.2707   92.7580   16.2605 N.ar    1  UNL1       -0.2024
     21 N          66.3191   93.1503   17.0956 N.ar    1  UNL1       -0.1442
     22 C          65.1704   92.5968   16.6495 C.ar    1  UNL1        0.2073
     23 N          65.3740   91.8504   15.5398 N.ar    1  UNL1       -0.2398
     24 C          66.7009   91.9667   15.3340 C.ar    1  UNL1        0.3522
     25 O          67.3370   91.3776   14.4186 O.2     1  UNL1       -0.2444
     26 C          68.6933   93.0816   16.4080 C.3     1  UNL1        0.1099
     27 C          68.9429   94.5088   15.9068 C.3     1  UNL1        0.0265
     28 C          69.9673   92.5167   14.2617 C.3     1  UNL1        0.0021
     29 C          69.5450   92.0411   15.6521 C.3     1  UNL1        0.0245
     30 O          56.7529   83.6560    8.0102 O.3     1  UNL1       -0.4727
     31 C          57.1809   82.5127    7.2684 C.3     1  UNL1        0.2374
     32 C          58.6184   82.1229    7.6379 C.3     1  UNL1        0.1909
     33 C          59.0332   80.8028    7.0560 C.3     1  UNL1        0.1783
     34 O          59.8579   80.2087    8.0068 O.3     1  UNL1       -0.3271
     35 C          59.6813   80.9378    9.2092 C.3     1  UNL1        0.2232
     36 O          58.7314   81.9669    9.0146 O.3     1  UNL1       -0.3258
     37 C          61.0103   81.5594    9.6608 C.ar    1  UNL1        0.0404
     38 C          61.1481   82.9648    9.7161 C.ar    1  UNL1        0.0021
     39 C          62.3593   83.5553   10.0795 C.ar    1  UNL1        0.0113
     40 C          63.4606   82.7609   10.3914 C.ar    1  UNL1        0.0585
     41 CL         64.9828   83.5078   10.8412 Cl      1  UNL1       -0.0822
     42 C          63.3518   81.3711   10.3415 C.ar    1  UNL1        0.0226
     43 C          62.1438   80.7627    9.9783 C.ar    1  UNL1        0.0591
     44 CL         62.1187   79.0012    9.9390 Cl      1  UNL1       -0.0824
     45 C          59.1375   79.9702   10.2882 C.3     1  UNL1        0.1338
     46 N          59.5101   80.3930   11.6597 N.3     1  UNL1       -0.2659
     47 C          58.7659   81.5986   12.0614 C.3     1  UNL1        0.0898
     48 C          59.3420   82.1679   13.3734 C.3     1  UNL1        0.0897
     49 N          59.9343   81.1332   14.2535 N.3     1  UNL1       -0.2691
     50 C          61.3952   81.0308   14.0880 C.3     1  UNL1        0.0897
     51 C          59.2666   79.8268   14.1010 C.3     1  UNL1        0.0897
     52 C          59.3121   79.3054   12.6471 C.3     1  UNL1        0.0898
@<TRIPOS>BOND
     1    28    29    1
     2    29    26    1
     3    26    27    1
     4    26    20    1
     5    20    21   ar
     6    21    22   ar
     7    22    23   ar
     8    23    14    1
     9    14    15   ar
    10    15    16   ar
    11    16    17   ar
    12    17     7    1
    13     7     8    1
    14     8     9    1
    15     9    10    1
    16    10     1    1
    17     1     2   ar
    18     2     3   ar
    19     3     4   ar
    20     4    30    1
    21    30    31    1
    22    31    32    1
    23    32    33    1
    24    33    34    1
    25    34    35    1
    26    35    45    1
    27    45    46    1
    28    46    47    1
    29    47    48    1
    30    48    49    1
    31    49    50    1
    32    49    51    1
    33    51    52    1
    34    35    37    1
    35    37    38   ar
    36    38    39   ar
    37    39    40   ar
    38    40    41    1
    39    40    42   ar
    40    42    43   ar
    41    43    44    1
    42    35    36    1
    43     4     5   ar
    44     5     6   ar
    45    10    11    1
    46    11    12    1
    47    11    13    1
    48    17    18   ar
    49    18    19   ar
    50    23    24   ar
    51    24    25    2
    52    24    20   ar
    53    19    14   ar
    54    13     7    1
    55     6     1   ar
    56    36    32    1
    57    52    46    1
    58    43    37   ar
@<TRIPOS>MOLECULE
*****
 52 58 0 0 0
SMALL
GASTEIGER

@<TRIPOS>ATOM
      1 C          59.5122   86.8314   10.3622 C.ar    1  UNL1        0.0489
      2 C          60.3977   86.8841   11.4505 C.ar    1  UNL1        0.0177
      3 C          60.2422   86.0109   12.5303 C.ar    1  UNL1        0.0382
      4 C          59.2036   85.0730   12.5451 C.ar    1  UNL1        0.1388
      5 C          58.3213   85.0113   11.4491 C.ar    1  UNL1        0.0382
      6 C          58.4760   85.8856   10.3694 C.ar    1  UNL1        0.0177
      7 N          59.5206   89.5743    7.1755 N.pl3   1  UNL1       -0.3031
      8 C          58.8728   88.2728    6.9827 C.3     1  UNL1        0.1123
      9 C          59.5364   87.2233    7.8732 C.3     1  UNL1        0.1132
     10 N          59.6645   87.7299    9.2471 N.pl3   1  UNL1       -0.2931
     11 C          60.2703   89.0538    9.4588 C.3     1  UNL1        0.1738
     12 CL         62.0273   88.9696    9.1406 Cl      1  UNL1       -0.0910
     13 C          59.6132   90.0932    8.5445 C.3     1  UNL1        0.1277
     14 C          60.3396   92.0739    3.8224 C.ar    1  UNL1        0.0699
     15 C          59.0543   92.0364    4.3904 C.ar    1  UNL1        0.0190
     16 C          58.7889   91.2161    5.4905 C.ar    1  UNL1        0.0160
     17 C          59.8025   90.4217    6.0463 C.ar    1  UNL1        0.0481
     18 C          61.0881   90.4604    5.4839 C.ar    1  UNL1        0.0160
     19 C          61.3550   91.2819    4.3853 C.ar    1  UNL1        0.0190
     20 N          61.6424   94.0056    1.0416 N.ar    1  UNL1       -0.2024
     21 N          60.3761   94.3967    1.0287 N.ar    1  UNL1       -0.1442
     22 C          59.7632   93.7321    2.0325 C.ar    1  UNL1        0.2073
     23 N          60.6221   92.9216    2.6922 N.ar    1  UNL1       -0.2398
     24 C          61.7893   93.1285    2.0507 C.ar    1  UNL1        0.3522
     25 O          62.8879   92.6032    2.3775 O.2     1  UNL1       -0.2444
     26 C          62.6841   94.5277    0.1513 C.3     1  UNL1        0.1099
     27 C          62.9227   93.5308   -0.9887 C.3     1  UNL1        0.0265
     28 C          65.1579   93.9683    0.4924 C.3     1  UNL1        0.0021
     29 C          63.9680   94.8069    0.9597 C.3     1  UNL1        0.0245
     30 O          59.0942   84.2246   13.6590 O.3     1  UNL1       -0.4727
     31 C          59.6641   82.9191   13.7677 C.3     1  UNL1        0.2374
     32 C          59.3350   82.0700   12.5325 C.3     1  UNL1        0.1909
     33 C          59.4770   80.5966   12.7823 C.3     1  UNL1        0.1783
     34 O          59.9599   80.0531   11.5955 O.3     1  UNL1       -0.3271
     35 C          60.4086   81.1400   10.8047 C.3     1  UNL1        0.2232
     36 O          60.2286   82.3543   11.5064 O.3     1  UNL1       -0.3258
     37 C          59.6280   81.2021    9.4843 C.ar    1  UNL1        0.0404
     38 C          60.1333   81.9572    8.4018 C.ar    1  UNL1        0.0021
     39 C          59.4212   82.0670    7.2066 C.ar    1  UNL1        0.0113
     40 C          58.1893   81.4319    7.0638 C.ar    1  UNL1        0.0585
     41 CL         57.2948   81.5783    5.5619 Cl      1  UNL1       -0.0822
     42 C          57.6669   80.6830    8.1183 C.ar    1  UNL1        0.0226
     43 C          58.3685   80.5630    9.3245 C.ar    1  UNL1        0.0591
     44 CL         57.6138   79.6012   10.5934 Cl      1  UNL1       -0.0824
     45 C          61.9214   80.9525   10.5352 C.3     1  UNL1        0.1338
     46 N          62.7535   81.8794   11.3396 N.3     1  UNL1       -0.2659
     47 C          63.3552   81.1854   12.4907 C.3     1  UNL1        0.0898
     48 C          64.0025   82.2053   13.4488 C.3     1  UNL1        0.0897
     49 N          64.4977   83.4229   12.7646 N.3     1  UNL1       -0.2691
     50 C          63.5289   84.5316   12.8299 C.3     1  UNL1        0.0897
     51 C          64.9296   83.1455   11.3817 C.3     1  UNL1        0.0897
     52 C          63.8008   82.5350   10.5208 C.3     1  UNL1        0.0898
@<TRIPOS>BOND
     1    28    29    1
     2    29    26    1
     3    26    27    1
     4    26    20    1
     5    20    21   ar
     6    21    22   ar
     7    22    23   ar
     8    23    14    1
     9    14    15   ar
    10    15    16   ar
    11    16    17   ar
    12    17     7    1
    13     7     8    1
    14     8     9    1
    15     9    10    1
    16    10     1    1
    17     1     2   ar
    18     2     3   ar
    19     3     4   ar
    20     4    30    1
    21    30    31    1
    22    31    32    1
    23    32    33    1
    24    33    34    1
    25    34    35    1
    26    35    45    1
    27    45    46    1
    28    46    47    1
    29    47    48    1
    30    48    49    1
    31    49    50    1
    32    49    51    1
    33    51    52    1
    34    35    37    1
    35    37    38   ar
    36    38    39   ar
    37    39    40   ar
    38    40    41    1
    39    40    42   ar
    40    42    43   ar
    41    43    44    1
    42    35    36    1
    43     4     5   ar
    44     5     6   ar
    45    10    11    1
    46    11    12    1
    47    11    13    1
    48    17    18   ar
    49    18    19   ar
    50    23    24   ar
    51    24    25    2
    52    24    20   ar
    53    19    14   ar
    54    13     7    1
    55     6     1   ar
    56    36    32    1
    57    52    46    1
    58    43    37   ar
@<TRIPOS>MOLECULE
*****
 52 58 0 0 0
SMALL
GASTEIGER

@<TRIPOS>ATOM
      1 C          59.4258   87.6378   10.3442 C.ar    1  UNL1        0.0489
      2 C          58.8246   86.3703   10.2865 C.ar    1  UNL1        0.0177
      3 C          58.6265   85.6289   11.4544 C.ar    1  UNL1        0.0382
      4 C          59.0242   86.1357   12.6968 C.ar    1  UNL1        0.1388
      5 C          59.6171   87.4117   12.7576 C.ar    1  UNL1        0.0382
      6 C          59.8163   88.1530   11.5893 C.ar    1  UNL1        0.0177
      7 N          59.5986   90.0052    6.8738 N.pl3   1  UNL1       -0.3031
      8 C          58.9650   88.6850    6.7947 C.3     1  UNL1        0.1123
      9 C          59.5824   87.7477    7.8317 C.3     1  UNL1        0.1132
     10 N          59.6355   88.4065    9.1446 N.pl3   1  UNL1       -0.2931
     11 C          60.2261   89.7507    9.2376 C.3     1  UNL1        0.1738
     12 CL         61.9978   89.6460    9.0244 Cl      1  UNL1       -0.0910
     13 C          59.6166   90.6754    8.1786 C.3     1  UNL1        0.1277
     14 C          60.5897   92.1197    3.3089 C.ar    1  UNL1        0.0699
     15 C          59.2895   92.1810    3.8395 C.ar    1  UNL1        0.0190
     16 C          58.9676   91.4870    5.0092 C.ar    1  UNL1        0.0160
     17 C          59.9387   90.7227    5.6728 C.ar    1  UNL1        0.0481
     18 C          61.2391   90.6633    5.1477 C.ar    1  UNL1        0.0160
     19 C          61.5625   91.3587    3.9794 C.ar    1  UNL1        0.0190
     20 N          61.1088   93.4865   -0.0115 N.ar    1  UNL1       -0.2024
     21 N          61.8335   94.3313    0.7082 N.ar    1  UNL1       -0.1442
     22 C          61.7179   93.9315    1.9934 C.ar    1  UNL1        0.2073
     23 N          60.9304   92.8375    2.1069 N.ar    1  UNL1       -0.2398
     24 C          60.5777   92.5826    0.8313 C.ar    1  UNL1        0.3522
     25 O          59.8764   91.6007    0.4657 O.2     1  UNL1       -0.2444
     26 C          61.0030   93.5166   -1.4737 C.3     1  UNL1        0.1099
     27 C          62.3385   93.9775   -2.0690 C.3     1  UNL1        0.0265
     28 C          58.5202   93.6662   -2.0757 C.3     1  UNL1        0.0021
     29 C          59.8322   94.4296   -1.8923 C.3     1  UNL1        0.0245
     30 O          58.8038   85.3438   13.8356 O.3     1  UNL1       -0.4727
     31 C          59.6104   84.2391   14.2477 C.3     1  UNL1        0.2374
     32 C          60.6311   83.8678   13.1635 C.3     1  UNL1        0.1909
     33 C          61.5698   82.7785   13.5941 C.3     1  UNL1        0.1783
     34 O          62.7985   83.0826   13.0155 O.3     1  UNL1       -0.3271
     35 C          62.7128   84.4226   12.5622 C.3     1  UNL1        0.2232
     36 O          61.4437   84.9592   12.8795 O.3     1  UNL1       -0.3258
     37 C          62.9215   84.4903   11.0429 C.ar    1  UNL1        0.0404
     38 C          62.3437   85.5435   10.2985 C.ar    1  UNL1        0.0021
     39 C          62.4801   85.6031    8.9109 C.ar    1  UNL1        0.0113
     40 C          63.1904   84.6144    8.2333 C.ar    1  UNL1        0.0585
     41 CL         63.3536   84.6901    6.4884 Cl      1  UNL1       -0.0822
     42 C          63.7679   83.5624    8.9444 C.ar    1  UNL1        0.0226
     43 C          63.6400   83.4874   10.3369 C.ar    1  UNL1        0.0591
     44 CL         64.4007   82.1125   11.1345 Cl      1  UNL1       -0.0824
     45 C          63.7914   85.2539   13.2982 C.3     1  UNL1        0.1338
     46 N          63.2162   86.0822   14.3853 N.3     1  UNL1       -0.2659
     47 C          63.5741   85.5413   15.7074 C.3     1  UNL1        0.0898
     48 C          62.7684   86.2554   16.8111 C.3     1  UNL1        0.0897
     49 N          62.4136   87.6531   16.4694 N.3     1  UNL1       -0.2691
     50 C          61.0516   87.7630   15.9171 C.3     1  UNL1        0.0897
     51 C          63.4193   88.2823   15.5928 C.3     1  UNL1        0.0897
     52 C          63.6261   87.5024   14.2749 C.3     1  UNL1        0.0898
@<TRIPOS>BOND
     1    28    29    1
     2    29    26    1
     3    26    27    1
     4    26    20    1
     5    20    21   ar
     6    21    22   ar
     7    22    23   ar
     8    23    14    1
     9    14    15   ar
    10    15    16   ar
    11    16    17   ar
    12    17     7    1
    13     7     8    1
    14     8     9    1
    15     9    10    1
    16    10     1    1
    17     1     2   ar
    18     2     3   ar
    19     3     4   ar
    20     4    30    1
    21    30    31    1
    22    31    32    1
    23    32    33    1
    24    33    34    1
    25    34    35    1
    26    35    45    1
    27    45    46    1
    28    46    47    1
    29    47    48    1
    30    48    49    1
    31    49    50    1
    32    49    51    1
    33    51    52    1
    34    35    37    1
    35    37    38   ar
    36    38    39   ar
    37    39    40   ar
    38    40    41    1
    39    40    42   ar
    40    42    43   ar
    41    43    44    1
    42    35    36    1
    43     4     5   ar
    44     5     6   ar
    45    10    11    1
    46    11    12    1
    47    11    13    1
    48    17    18   ar
    49    18    19   ar
    50    23    24   ar
    51    24    25    2
    52    24    20   ar
    53    19    14   ar
    54    13     7    1
    55     6     1   ar
    56    36    32    1
    57    52    46    1
    58    43    37   ar
@<TRIPOS>MOLECULE
*****
 52 58 0 0 0
SMALL
GASTEIGER

@<TRIPOS>ATOM
      1 C          59.4770   87.0550   10.1774 C.ar    1  UNL1        0.0489
      2 C          58.6073   85.9546   10.1137 C.ar    1  UNL1        0.0177
      3 C          58.4934   85.0808   11.1983 C.ar    1  UNL1        0.0382
      4 C          59.2430   85.2870   12.3619 C.ar    1  UNL1        0.1388
      5 C          60.1074   86.3968   12.4317 C.ar    1  UNL1        0.0382
      6 C          60.2223   87.2703   11.3464 C.ar    1  UNL1        0.0177
      7 N          59.3998   89.7943    6.9886 N.pl3   1  UNL1       -0.3031
      8 C          58.8062   88.4677    6.7919 C.3     1  UNL1        0.1123
      9 C          59.5046   87.4462    7.6884 C.3     1  UNL1        0.1132
     10 N          59.6016   87.9583    9.0628 N.pl3   1  UNL1       -0.2931
     11 C          60.1522   89.3055    9.2780 C.3     1  UNL1        0.1738
     12 CL         61.9135   89.2917    8.9733 Cl      1  UNL1       -0.0910
     13 C          59.4610   90.3172    8.3578 C.3     1  UNL1        0.1277
     14 C          60.1430   92.3234    3.6401 C.ar    1  UNL1        0.0699
     15 C          58.8657   92.2656    4.2239 C.ar    1  UNL1        0.0190
     16 C          58.6251   91.4357    5.3225 C.ar    1  UNL1        0.0160
     17 C          59.6561   90.6517    5.8609 C.ar    1  UNL1        0.0481
     18 C          60.9338   90.7107    5.2826 C.ar    1  UNL1        0.0160
     19 C          61.1759   91.5420    4.1855 C.ar    1  UNL1        0.0190
     20 N          60.3572   94.1349    0.5040 N.ar    1  UNL1       -0.2024
     21 N          61.2830   94.7703    1.2080 N.ar    1  UNL1       -0.1442
     22 C          61.3009   94.1867    2.4262 C.ar    1  UNL1        0.2073
     23 N          60.4000   93.1813    2.5113 N.ar    1  UNL1       -0.2398
     24 C          59.8374   93.1722    1.2865 C.ar    1  UNL1        0.3522
     25 O          58.9671   92.3434    0.9053 O.2     1  UNL1       -0.2444
     26 C          60.0478   94.4080   -0.9031 C.3     1  UNL1        0.1099
     27 C          59.3466   93.1890   -1.5136 C.3     1  UNL1        0.0265
     28 C          62.2430   93.5674   -1.9147 C.3     1  UNL1        0.0021
     29 C          61.3414   94.7754   -1.6588 C.3     1  UNL1        0.0245
     30 O          59.0904   84.3735   13.4177 O.3     1  UNL1       -0.4727
     31 C          59.3452   82.9698   13.3447 C.3     1  UNL1        0.2374
     32 C          59.8516   82.5737   11.9512 C.3     1  UNL1        0.1909
     33 C          60.2419   81.1271   11.8614 C.3     1  UNL1        0.1783
     34 O          61.3370   81.0797   11.0037 O.3     1  UNL1       -0.3271
     35 C          61.7971   82.4123   10.8594 C.3     1  UNL1        0.2232
     36 O          61.0067   83.2834   11.6440 O.3     1  UNL1       -0.3258
     37 C          61.7212   82.8509    9.3902 C.ar    1  UNL1        0.0404
     38 C          62.6748   83.7580    8.8755 C.ar    1  UNL1        0.0021
     39 C          62.6014   84.2077    7.5564 C.ar    1  UNL1        0.0113
     40 C          61.5756   83.7683    6.7221 C.ar    1  UNL1        0.0585
     41 CL         61.4837   84.3414    5.0668 Cl      1  UNL1       -0.0822
     42 C          60.6199   82.8752    7.2067 C.ar    1  UNL1        0.0226
     43 C          60.6788   82.4147    8.5280 C.ar    1  UNL1        0.0591
     44 CL         59.4169   81.2961    9.0393 Cl      1  UNL1       -0.0824
     45 C          63.2554   82.4808   11.3741 C.3     1  UNL1        0.1338
     46 N          63.3328   82.9465   12.7797 N.3     1  UNL1       -0.2659
     47 C          63.6459   81.8314   13.6892 C.3     1  UNL1        0.0898
     48 C          63.4738   82.2754   15.1556 C.3     1  UNL1        0.0897
     49 N          63.7351   83.7186   15.3676 N.3     1  UNL1       -0.2691
     50 C          62.4951   84.5152   15.3669 C.3     1  UNL1        0.0897
     51 C          64.7334   84.2470   14.4189 C.3     1  UNL1        0.0897
     52 C          64.3138   84.0452   12.9454 C.3     1  UNL1        0.0898
@<TRIPOS>BOND
     1    28    29    1
     2    29    26    1
     3    26    27    1
     4    26    20    1
     5    20    21   ar
     6    21    22   ar
     7    22    23   ar
     8    23    14    1
     9    14    15   ar
    10    15    16   ar
    11    16    17   ar
    12    17     7    1
    13     7     8    1
    14     8     9    1
    15     9    10    1
    16    10     1    1
    17     1     2   ar
    18     2     3   ar
    19     3     4   ar
    20     4    30    1
    21    30    31    1
    22    31    32    1
    23    32    33    1
    24    33    34    1
    25    34    35    1
    26    35    45    1
    27    45    46    1
    28    46    47    1
    29    47    48    1
    30    48    49    1
    31    49    50    1
    32    49    51    1
    33    51    52    1
    34    35    37    1
    35    37    38   ar
    36    38    39   ar
    37    39    40   ar
    38    40    41    1
    39    40    42   ar
    40    42    43   ar
    41    43    44    1
    42    35    36    1
    43     4     5   ar
    44     5     6   ar
    45    10    11    1
    46    11    12    1
    47    11    13    1
    48    17    18   ar
    49    18    19   ar
    50    23    24   ar
    51    24    25    2
    52    24    20   ar
    53    19    14   ar
    54    13     7    1
    55     6     1   ar
    56    36    32    1
    57    52    46    1
    58    43    37   ar
@<TRIPOS>MOLECULE
*****
 52 58 0 0 0
SMALL
GASTEIGER

@<TRIPOS>ATOM
      1 C          58.6712   84.0431   11.1512 C.ar    1  UNL1        0.0489
      2 C          58.5976   82.7259   10.6706 C.ar    1  UNL1        0.0177
      3 C          58.4487   81.6575   11.5588 C.ar    1  UNL1        0.0382
      4 C          58.3719   81.8821   12.9380 C.ar    1  UNL1        0.1388
      5 C          58.4343   83.2037   13.4209 C.ar    1  UNL1        0.0382
      6 C          58.5844   84.2725   12.5325 C.ar    1  UNL1        0.0177
      7 N          59.5749   87.2512    8.5881 N.pl3   1  UNL1       -0.3031
      8 C          59.5455   87.4922   10.0345 C.3     1  UNL1        0.1123
      9 C          58.5746   86.5211   10.7049 C.3     1  UNL1        0.1132
     10 N          58.8273   85.1491   10.2421 N.pl3   1  UNL1       -0.2931
     11 C          58.9060   84.8942    8.7953 C.3     1  UNL1        0.1738
     12 CL         57.2766   85.0238    8.0717 Cl      1  UNL1       -0.0910
     13 C          59.8641   85.8880    8.1301 C.3     1  UNL1        0.1277
     14 C          59.6235   90.5107    5.8430 C.ar    1  UNL1        0.0699
     15 C          58.5996   89.5488    5.7942 C.ar    1  UNL1        0.0190
     16 C          58.5859   88.4813    6.6962 C.ar    1  UNL1        0.0160
     17 C          59.5916   88.3568    7.6661 C.ar    1  UNL1        0.0481
     18 C          60.6129   89.3183    7.7200 C.ar    1  UNL1        0.0160
     19 C          60.6262   90.3873    6.8199 C.ar    1  UNL1        0.0190
     20 N          60.2249   93.0689    3.3417 N.ar    1  UNL1       -0.2024
     21 N          59.0634   93.4821    3.8284 N.ar    1  UNL1       -0.1442
     22 C          58.7146   92.5939    4.7846 C.ar    1  UNL1        0.2073
     23 N          59.6407   91.6172    4.9203 N.ar    1  UNL1       -0.2398
     24 C          60.5747   91.9547    4.0091 C.ar    1  UNL1        0.3522
     25 O          61.6577   91.3340    3.8315 O.2     1  UNL1       -0.2444
     26 C          60.9987   93.7788    2.3183 C.3     1  UNL1        0.1099
     27 C          60.1343   94.8885    1.7085 C.3     1  UNL1        0.0265
     28 C          60.4623   92.5058    0.1641 C.3     1  UNL1        0.0021
     29 C          61.4977   92.7782    1.2556 C.3     1  UNL1        0.0245
     30 O          58.2270   80.7693   13.7825 O.3     1  UNL1       -0.4727
     31 C          59.2800   79.8954   14.1927 C.3     1  UNL1        0.2374
     32 C          60.6083   80.2846   13.5301 C.3     1  UNL1        0.1909
     33 C          61.7773   79.5114   14.0675 C.3     1  UNL1        0.1783
     34 O          62.8512   80.3967   14.0714 O.3     1  UNL1       -0.3271
     35 C          62.3089   81.6929   13.8870 C.3     1  UNL1        0.2232
     36 O          60.9001   81.6179   13.7934 O.3     1  UNL1       -0.3258
     37 C          62.8645   82.3306   12.6059 C.ar    1  UNL1        0.0404
     38 C          61.9957   83.0131   11.7245 C.ar    1  UNL1        0.0021
     39 C          62.4671   83.5622   10.5313 C.ar    1  UNL1        0.0113
     40 C          63.8117   83.4407   10.1868 C.ar    1  UNL1        0.0585
     41 CL         64.3983   84.1269    8.6828 Cl      1  UNL1       -0.0822
     42 C          64.6894   82.7692   11.0380 C.ar    1  UNL1        0.0226
     43 C          64.2325   82.2119   12.2388 C.ar    1  UNL1        0.0591
     44 CL         65.4233   81.3782   13.2347 Cl      1  UNL1       -0.0824
     45 C          62.6702   82.5508   15.1239 C.3     1  UNL1        0.1338
     46 N          62.7663   83.9939   14.7969 N.3     1  UNL1       -0.2659
     47 C          61.7467   84.7692   15.5237 C.3     1  UNL1        0.0898
     48 C          61.6930   86.2136   14.9870 C.3     1  UNL1        0.0897
     49 N          62.9922   86.6941   14.4604 N.3     1  UNL1       -0.2691
     50 C          63.0893   86.5460   12.9973 C.3     1  UNL1        0.0897
     51 C          64.1360   86.0757   15.1569 C.3     1  UNL1        0.0897
     52 C          64.1205   84.5332   15.0655 C.3     1  UNL1        0.0898
@<TRIPOS>BOND
     1    28    29    1
     2    29    26    1
     3    26    27    1
     4    26    20    1
     5    20    21   ar
     6    21    22   ar
     7    22    23   ar
     8    23    14    1
     9    14    15   ar
    10    15    16   ar
    11    16    17   ar
    12    17     7    1
    13     7     8    1
    14     8     9    1
    15     9    10    1
    16    10     1    1
    17     1     2   ar
    18     2     3   ar
    19     3     4   ar
    20     4    30    1
    21    30    31    1
    22    31    32    1
    23    32    33    1
    24    33    34    1
    25    34    35    1
    26    35    45    1
    27    45    46    1
    28    46    47    1
    29    47    48    1
    30    48    49    1
    31    49    50    1
    32    49    51    1
    33    51    52    1
    34    35    37    1
    35    37    38   ar
    36    38    39   ar
    37    39    40   ar
    38    40    41    1
    39    40    42   ar
    40    42    43   ar
    41    43    44    1
    42    35    36    1
    43     4     5   ar
    44     5     6   ar
    45    10    11    1
    46    11    12    1
    47    11    13    1
    48    17    18   ar
    49    18    19   ar
    50    23    24   ar
    51    24    25    2
    52    24    20   ar
    53    19    14   ar
    54    13     7    1
    55     6     1   ar
    56    36    32    1
    57    52    46    1
    58    43    37   ar
