@<TRIPOS>MOLECULE
*****
 47 52 0 0 0
SMALL
GASTEIGER

@<TRIPOS>ATOM
      1 C          59.3667   91.0033    5.7242 C.ar    1  UNL1        0.0702
      2 C          58.1553   91.4437    5.1802 C.ar    1  UNL1        0.0191
      3 C          58.1365   92.1341    3.9674 C.ar    1  UNL1        0.0356
      4 C          59.3454   92.4026    3.2992 C.ar    1  UNL1        0.1318
      5 N          60.5130   91.9853    3.8654 N.ar    1  UNL1       -0.2279
      6 C          60.5550   91.3083    5.0430 C.ar    1  UNL1        0.1149
      7 N          59.3695   93.1074    2.0348 N.pl3   1  UNL1       -0.2932
      8 C          59.6467   94.5523    1.9869 C.3     1  UNL1        0.0923
      9 C          60.8031   94.8628    1.0208 C.3     1  UNL1        0.0252
     10 C          60.8557   93.9107   -0.2027 C.3     1  UNL1        0.0472
     11 C          59.4972   93.2300   -0.4534 C.3     1  UNL1        0.0252
     12 C          59.0947   92.3967    0.7726 C.3     1  UNL1        0.0923
     13 C          61.3833   94.6022   -1.4756 C.3     1  UNL1        0.2054
     14 O          62.8135   94.6534   -1.4976 O.3     1  UNL1       -0.4755
     15 C          63.6927   94.2674   -0.4710 C.ar    1  UNL1        0.1388
     16 C          64.9625   94.8461   -0.2792 C.ar    1  UNL1        0.0369
     17 C          65.7792   94.4154    0.7680 C.ar    1  UNL1        0.0033
     18 C          65.3466   93.4089    1.6333 C.ar    1  UNL1        0.0066
     19 C          64.0850   92.8152    1.4576 C.ar    1  UNL1        0.0785
     20 C          63.2637   93.2637    0.4070 C.ar    1  UNL1        0.0433
     21 C          63.6046   91.7490    2.3704 C.2     1  UNL1        0.3381
     22 O          62.5096   91.1718    2.1356 O.2     1  UNL1       -0.2451
     23 O          64.3409   91.3489    3.4850 O.3     1  UNL1       -0.4771
     24 H          65.2722   91.6943    3.6764 H       1  UNL1        0.2954
     25 C          59.5167   88.8903    7.1236 C.2     1  UNL1        0.2839
     26 O          59.3929   88.1395    6.1187 O.2     1  UNL1       -0.2665
     27 N          59.3718   90.3131    6.9859 N.am    1  UNL1       -0.2766
     28 H          59.1740   90.8714    7.8471 H       1  UNL1        0.1553
     29 C          61.1940   90.2059    9.5172 C.3     1  UNL1        0.0345
     30 C          60.5016   88.8763    9.5016 C.ar    1  UNL1        0.0202
     31 C          59.7707   88.3052    8.4538 C.ar    1  UNL1        0.1946
     32 O          59.3093   87.1216    8.8171 O.2     1  UNL1       -0.4492
     33 C          59.7039   86.8953   10.0463 C.ar    1  UNL1        0.1452
     34 C          59.4437   85.7717   10.8228 C.ar    1  UNL1        0.0375
     35 C          59.9656   85.7355   12.1274 C.ar    1  UNL1        0.0031
     36 C          60.7359   86.8168   12.6341 C.ar    1  UNL1        0.0002
     37 C          60.9779   87.9424   11.8104 C.ar    1  UNL1        0.0028
     38 C          60.4448   87.9445   10.5205 C.ar    1  UNL1        0.0337
     39 C          61.2818   86.7670   14.0142 C.ar    1  UNL1       -0.0000
     40 C          62.4941   87.4081   14.3267 C.ar    1  UNL1       -0.0002
     41 C          63.0085   87.3598   15.6256 C.ar    1  UNL1       -0.0019
     42 C          62.3145   86.6813   16.6380 C.ar    1  UNL1        0.0070
     43 C          61.1135   86.0267   16.3279 C.ar    1  UNL1       -0.0019
     44 C          60.5985   86.0733   15.0293 C.ar    1  UNL1       -0.0002
     45 C          62.8861   86.5989   18.0237 C.3     1  UNL1        0.1636
     46 O          62.9957   87.8885   18.5565 O.3     1  UNL1       -0.3772
     47 H          63.3758   87.7789   19.4668 H       1  UNL1        0.2109
@<TRIPOS>BOND
     1    29    30    1
     2    30    31   ar
     3    31    25    1
     4    25    26    2
     5    25    27   am
     6    27     1    1
     7     1     2   ar
     8     2     3   ar
     9     3     4   ar
    10     4     7    1
    11     7     8    1
    12     8     9    1
    13     9    10    1
    14    10    13    1
    15    13    14    1
    16    14    15    1
    17    15    16   ar
    18    16    17   ar
    19    17    18   ar
    20    18    19   ar
    21    19    21    1
    22    21    22    2
    23    21    23    1
    24    19    20   ar
    25    10    11    1
    26    11    12    1
    27     4     5   ar
    28     5     6   ar
    29    31    32   ar
    30    32    33   ar
    31    33    34   ar
    32    34    35   ar
    33    35    36   ar
    34    36    39    1
    35    39    40   ar
    36    40    41   ar
    37    41    42   ar
    38    42    45    1
    39    45    46    1
    40    42    43   ar
    41    43    44   ar
    42    36    37   ar
    43    37    38   ar
    44    38    30   ar
    45     6     1   ar
    46    38    33   ar
    47    12     7    1
    48    44    39   ar
    49    20    15   ar
    50    27    28    1
    51    23    24    1
    52    46    47    1
@<TRIPOS>MOLECULE
*****
 47 52 0 0 0
SMALL
GASTEIGER

@<TRIPOS>ATOM
      1 C          59.8427   90.7820    5.8773 C.ar    1  UNL1        0.0702
      2 C          58.5749   91.2411    5.5042 C.ar    1  UNL1        0.0191
      3 C          58.4111   91.9896    4.3376 C.ar    1  UNL1        0.0356
      4 C          59.5313   92.2977    3.5438 C.ar    1  UNL1        0.1318
      5 N          60.7583   91.8603    3.9454 N.ar    1  UNL1       -0.2279
      6 C          60.9410   91.1271    5.0748 C.ar    1  UNL1        0.1149
      7 N          59.4039   93.0634    2.3218 N.pl3   1  UNL1       -0.2932
      8 C          59.6616   94.5126    2.3146 C.3     1  UNL1        0.0923
      9 C          60.6966   94.8860    1.2392 C.3     1  UNL1        0.0252
     10 C          60.6161   93.9953   -0.0283 C.3     1  UNL1        0.0472
     11 C          59.2435   93.3085   -0.1554 C.3     1  UNL1        0.0252
     12 C          58.9917   92.4111    1.0654 C.3     1  UNL1        0.0923
     13 C          60.9880   94.7552   -1.3171 C.3     1  UNL1        0.2054
     14 O          62.3977   94.7257   -1.5625 O.3     1  UNL1       -0.4755
     15 C          63.4080   94.3405   -0.6640 C.ar    1  UNL1        0.1388
     16 C          64.7089   94.8803   -0.6822 C.ar    1  UNL1        0.0369
     17 C          65.6590   94.4533    0.2473 C.ar    1  UNL1        0.0033
     18 C          65.3299   93.4892    1.2019 C.ar    1  UNL1        0.0066
     19 C          64.0391   92.9348    1.2353 C.ar    1  UNL1        0.0785
     20 C          63.0844   93.3795    0.3024 C.ar    1  UNL1        0.0433
     21 C          63.6681   91.9141    2.2460 C.2     1  UNL1        0.3381
     22 O          62.6401   91.2068    2.0717 O.2     1  UNL1       -0.2451
     23 O          64.4370   91.6983    3.3891 O.3     1  UNL1       -0.4771
     24 H          65.3265   92.1549    3.5427 H       1  UNL1        0.2954
     25 C          59.5517   88.6766    7.2659 C.2     1  UNL1        0.2839
     26 O          58.7651   88.1568    6.4293 O.2     1  UNL1       -0.2665
     27 N          59.9988   90.0312    7.0939 N.am    1  UNL1       -0.2766
     28 H          60.3846   90.5298    7.9276 H       1  UNL1        0.1553
     29 C          60.7210   85.6925    7.2987 C.3     1  UNL1        0.0345
     30 C          60.4955   86.6048    8.4667 C.ar    1  UNL1        0.0202
     31 C          59.9838   87.9071    8.4481 C.ar    1  UNL1        0.1946
     32 O          59.9345   88.3910    9.6766 O.2     1  UNL1       -0.4492
     33 C          60.3871   87.4694   10.4910 C.ar    1  UNL1        0.1452
     34 C          60.5133   87.5528   11.8732 C.ar    1  UNL1        0.0375
     35 C          61.0285   86.4384   12.5575 C.ar    1  UNL1        0.0031
     36 C          61.4079   85.2632   11.8545 C.ar    1  UNL1        0.0002
     37 C          61.2629   85.2193   10.4469 C.ar    1  UNL1        0.0028
     38 C          60.7477   86.3438    9.8000 C.ar    1  UNL1        0.0337
     39 C          61.9512   84.0923   12.5886 C.ar    1  UNL1       -0.0000
     40 C          62.3358   82.9301   11.8958 C.ar    1  UNL1       -0.0002
     41 C          62.8458   81.8275   12.5873 C.ar    1  UNL1       -0.0019
     42 C          62.9927   81.8711   13.9814 C.ar    1  UNL1        0.0070
     43 C          62.5955   83.0215   14.6785 C.ar    1  UNL1       -0.0019
     44 C          62.0844   84.1244   13.9885 C.ar    1  UNL1       -0.0002
     45 C          63.5059   80.6733   14.7266 C.3     1  UNL1        0.1636
     46 O          63.7767   81.0337   16.0517 O.3     1  UNL1       -0.3772
     47 H          64.1107   80.2124   16.4976 H       1  UNL1        0.2109
@<TRIPOS>BOND
     1    29    30    1
     2    30    31   ar
     3    31    25    1
     4    25    26    2
     5    25    27   am
     6    27     1    1
     7     1     2   ar
     8     2     3   ar
     9     3     4   ar
    10     4     7    1
    11     7     8    1
    12     8     9    1
    13     9    10    1
    14    10    13    1
    15    13    14    1
    16    14    15    1
    17    15    16   ar
    18    16    17   ar
    19    17    18   ar
    20    18    19   ar
    21    19    21    1
    22    21    22    2
    23    21    23    1
    24    19    20   ar
    25    10    11    1
    26    11    12    1
    27     4     5   ar
    28     5     6   ar
    29    31    32   ar
    30    32    33   ar
    31    33    34   ar
    32    34    35   ar
    33    35    36   ar
    34    36    39    1
    35    39    40   ar
    36    40    41   ar
    37    41    42   ar
    38    42    45    1
    39    45    46    1
    40    42    43   ar
    41    43    44   ar
    42    36    37   ar
    43    37    38   ar
    44    38    30   ar
    45     6     1   ar
    46    38    33   ar
    47    12     7    1
    48    44    39   ar
    49    20    15   ar
    50    27    28    1
    51    23    24    1
    52    46    47    1
