@<TRIPOS>MOLECULE
*****
 51 56 0 0 0
SMALL
GASTEIGER

@<TRIPOS>ATOM
      1 O          14.7787   82.1947   24.4974 O.2     1  UNL1       -0.2701
      2 C          13.5651   82.5308   24.5754 C.2     1  UNL1        0.2483
      3 N          13.1718   83.8719   24.2407 N.am    1  UNL1       -0.2945
      4 H          12.1623   84.0471   24.0409 H       1  UNL1        0.1501
      5 C          12.5580   81.5190   24.9686 C.ar    1  UNL1        0.0808
      6 C          11.2734   81.9343   25.3579 C.ar    1  UNL1        0.0080
      7 C          10.3103   80.9985   25.7435 C.ar    1  UNL1        0.0148
      8 C          10.6085   79.6283   25.7373 C.ar    1  UNL1        0.0502
      9 C          11.8859   79.2083   25.3340 C.ar    1  UNL1        0.0443
     10 C          12.8526   80.1418   24.9474 C.ar    1  UNL1        0.1457
     11 F          14.0526   79.6904   24.5052 F       1  UNL1       -0.2040
     12 N           9.6128   78.6690   26.1404 N.pl3   1  UNL1       -0.3040
     13 C           9.2328   77.5683   25.2483 C.3     1  UNL1        0.1123
     14 C           8.9928   76.2898   26.0558 C.3     1  UNL1        0.1136
     15 N           8.1448   76.5688   27.2239 N.pl3   1  UNL1       -0.2897
     16 C           8.5276   77.6817   28.1028 C.3     1  UNL1        0.1136
     17 C           8.7376   78.9527   27.2826 C.3     1  UNL1        0.1123
     18 C           7.1486   75.6246   27.6663 C.ar    1  UNL1        0.1318
     19 C           6.8296   74.4884   26.9048 C.ar    1  UNL1        0.0343
     20 C           5.8611   73.5970   27.3688 C.ar    1  UNL1        0.0083
     21 C           5.2260   73.8205   28.5996 C.ar    1  UNL1        0.0906
     22 C           5.5605   74.9765   29.3216 C.ar    1  UNL1        0.1041
     23 N           6.5049   75.8317   28.8483 N.ar    1  UNL1       -0.2292
     24 C           4.1433   72.8924   29.0881 C.3     1  UNL1        0.4200
     25 F           2.9143   73.2592   28.5674 F       1  UNL1       -0.1658
     26 F           4.4057   71.5895   28.7015 F       1  UNL1       -0.1658
     27 F           4.0832   72.9496   30.4680 F       1  UNL1       -0.1658
     28 C          14.1494   84.8956   23.8502 C.3     1  UNL1        0.1535
     29 C          14.4726   84.7949   22.3794 C.2     1  UNL1        0.2443
     30 O          15.1095   83.7973   21.9424 O.2     1  UNL1       -0.2730
     31 N          14.0570   85.8417   21.4874 N.am    1  UNL1       -0.2825
     32 H          13.7568   86.7484   21.9120 H       1  UNL1        0.1549
     33 C          14.1284   85.7626   20.0529 C.ar    1  UNL1        0.0539
     34 C          14.3045   84.5368   19.3877 C.ar    1  UNL1        0.0354
     35 C          14.3399   84.5093   17.9915 C.ar    1  UNL1        0.1007
     36 N          14.1912   85.6586   17.2819 N.ar    1  UNL1       -0.2378
     37 C          14.0014   86.8558   17.8963 C.ar    1  UNL1        0.1043
     38 S          13.8038   88.3347   16.9116 S.3     1  UNL1       -0.1227
     39 C          13.9578   86.9274   19.2920 C.ar    1  UNL1        0.0399
     40 H          15.1887   88.5853   16.9140 H       1  UNL1        0.1086
     41 C          13.6601   86.3083   24.2314 C.3     1  UNL1        0.0569
     42 C          14.5942   87.0372   25.1599 C.ar    1  UNL1       -0.0017
     43 C          14.3715   87.3169   26.5055 C.ar    1  UNL1        0.0681
     44 N          15.4399   87.9498   27.0407 N.ar    1  UNL1       -0.3523
     45 C          16.3347   88.0746   26.0453 C.ar    1  UNL1        0.0563
     46 C          17.5978   88.6608   26.1140 C.ar    1  UNL1        0.0170
     47 C          18.3768   88.6840   24.9427 C.ar    1  UNL1        0.0015
     48 C          17.8800   88.1303   23.7420 C.ar    1  UNL1        0.0001
     49 C          16.6006   87.5474   23.7018 C.ar    1  UNL1        0.0012
     50 C          15.8539   87.5325   24.8805 C.ar    1  UNL1        0.0131
     51 H          15.5447   88.2731   28.0280 H       1  UNL1        0.1660
@<TRIPOS>BOND
     1     1     2    2
     2     2     3   am
     3     3    28    1
     4    28    41    1
     5    41    42    1
     6    42    43   ar
     7    43    44   ar
     8    44    45   ar
     9    45    46   ar
    10    46    47   ar
    11    47    48   ar
    12    48    49   ar
    13    49    50   ar
    14    28    29    1
    15    29    30    2
    16    29    31   am
    17    31    33    1
    18    33    34   ar
    19    34    35   ar
    20    35    36   ar
    21    36    37   ar
    22    37    38    1
    23    37    39   ar
    24     2     5    1
    25     5     6   ar
    26     6     7   ar
    27     7     8   ar
    28     8    12    1
    29    12    13    1
    30    13    14    1
    31    14    15    1
    32    15    18    1
    33    18    19   ar
    34    19    20   ar
    35    20    21   ar
    36    21    24    1
    37    24    25    1
    38    24    26    1
    39    24    27    1
    40    21    22   ar
    41    22    23   ar
    42    15    16    1
    43    16    17    1
    44     8     9   ar
    45     9    10   ar
    46    10    11    1
    47    50    42   ar
    48    39    33   ar
    49    10     5   ar
    50    50    45   ar
    51    17    12    1
    52    23    18   ar
    53     3     4    1
    54    44    51    1
    55    31    32    1
    56    38    40    1
@<TRIPOS>MOLECULE
*****
 51 56 0 0 0
SMALL
GASTEIGER

@<TRIPOS>ATOM
      1 O          14.1165   82.0005   24.3402 O.2     1  UNL1       -0.2701
      2 C          12.9786   82.3919   24.7196 C.2     1  UNL1        0.2483
      3 N          12.6502   83.7901   24.6696 N.am    1  UNL1       -0.2945
      4 H          11.6414   84.0546   24.7144 H       1  UNL1        0.1501
      5 C          11.9824   81.3927   25.1686 C.ar    1  UNL1        0.0808
      6 C          11.6084   80.3498   24.3043 C.ar    1  UNL1        0.0080
      7 C          10.6624   79.4018   24.7020 C.ar    1  UNL1        0.0148
      8 C          10.0793   79.4708   25.9754 C.ar    1  UNL1        0.0502
      9 C          10.4619   80.5021   26.8476 C.ar    1  UNL1        0.0443
     10 C          11.4084   81.4530   26.4534 C.ar    1  UNL1        0.1457
     11 F          11.7959   82.3951   27.3487 F       1  UNL1       -0.2040
     12 N           9.1012   78.4932   26.3776 N.pl3   1  UNL1       -0.3040
     13 C           8.7885   77.3508   25.5122 C.3     1  UNL1        0.1123
     14 C           8.5612   76.0932   26.3552 C.3     1  UNL1        0.1136
     15 N           7.6639   76.3833   27.4832 N.pl3   1  UNL1       -0.2897
     16 C           7.9796   77.5374   28.3351 C.3     1  UNL1        0.1136
     17 C           8.1776   78.7862   27.4786 C.3     1  UNL1        0.1123
     18 C           6.6835   75.4220   27.9240 C.ar    1  UNL1        0.1318
     19 C           5.7968   75.7117   28.9740 C.ar    1  UNL1        0.0343
     20 C           4.8606   74.7552   29.3696 C.ar    1  UNL1        0.0083
     21 C           4.7884   73.5203   28.7078 C.ar    1  UNL1        0.0906
     22 C           5.7037   73.2632   27.6754 C.ar    1  UNL1        0.1041
     23 N           6.6085   74.2091   27.3095 N.ar    1  UNL1       -0.2292
     24 C           3.8156   72.4603   29.1577 C.3     1  UNL1        0.4200
     25 F           2.5546   72.7046   28.6420 F       1  UNL1       -0.1658
     26 F           4.2238   71.2092   28.7290 F       1  UNL1       -0.1658
     27 F           3.7461   72.4630   30.5384 F       1  UNL1       -0.1658
     28 C          13.6193   84.8024   24.2312 C.3     1  UNL1        0.1535
     29 C          12.9764   85.7847   23.2826 C.2     1  UNL1        0.2443
     30 O          11.9381   86.4099   23.6331 O.2     1  UNL1       -0.2730
     31 N          13.5499   85.9956   21.9822 N.am    1  UNL1       -0.2825
     32 H          14.2474   85.2957   21.6417 H       1  UNL1        0.1549
     33 C          13.1505   87.0408   21.0782 C.ar    1  UNL1        0.0539
     34 C          12.3752   88.1326   21.5062 C.ar    1  UNL1        0.0354
     35 C          12.0363   89.1362   20.5956 C.ar    1  UNL1        0.1007
     36 N          12.4653   89.0635   19.3083 N.ar    1  UNL1       -0.2378
     37 C          13.2309   88.0298   18.8697 C.ar    1  UNL1        0.1043
     38 S          13.7734   87.9902   17.1668 S.3     1  UNL1       -0.1227
     39 C          13.5942   87.0053   19.7491 C.ar    1  UNL1        0.0399
     40 H          12.6294   87.2766   16.7635 H       1  UNL1        0.1086
     41 C          14.2665   85.5142   25.4374 C.3     1  UNL1        0.0569
     42 C          14.6766   86.9335   25.1481 C.ar    1  UNL1       -0.0017
     43 C          14.1548   88.0818   25.7375 C.ar    1  UNL1        0.0681
     44 N          14.7855   89.1826   25.2697 N.ar    1  UNL1       -0.3523
     45 C          15.6996   88.7407   24.3887 C.ar    1  UNL1        0.0563
     46 C          16.5976   89.5077   23.6476 C.ar    1  UNL1        0.0170
     47 C          17.4747   88.8351   22.7772 C.ar    1  UNL1        0.0015
     48 C          17.4327   87.4277   22.6657 C.ar    1  UNL1        0.0001
     49 C          16.5142   86.6799   23.4244 C.ar    1  UNL1        0.0012
     50 C          15.6618   87.3735   24.2843 C.ar    1  UNL1        0.0131
     51 H          14.5981   90.1732   25.5417 H       1  UNL1        0.1660
@<TRIPOS>BOND
     1     1     2    2
     2     2     3   am
     3     3    28    1
     4    28    41    1
     5    41    42    1
     6    42    43   ar
     7    43    44   ar
     8    44    45   ar
     9    45    46   ar
    10    46    47   ar
    11    47    48   ar
    12    48    49   ar
    13    49    50   ar
    14    28    29    1
    15    29    30    2
    16    29    31   am
    17    31    33    1
    18    33    34   ar
    19    34    35   ar
    20    35    36   ar
    21    36    37   ar
    22    37    38    1
    23    37    39   ar
    24     2     5    1
    25     5     6   ar
    26     6     7   ar
    27     7     8   ar
    28     8    12    1
    29    12    13    1
    30    13    14    1
    31    14    15    1
    32    15    18    1
    33    18    19   ar
    34    19    20   ar
    35    20    21   ar
    36    21    24    1
    37    24    25    1
    38    24    26    1
    39    24    27    1
    40    21    22   ar
    41    22    23   ar
    42    15    16    1
    43    16    17    1
    44     8     9   ar
    45     9    10   ar
    46    10    11    1
    47    50    42   ar
    48    39    33   ar
    49    10     5   ar
    50    50    45   ar
    51    17    12    1
    52    23    18   ar
    53     3     4    1
    54    44    51    1
    55    31    32    1
    56    38    40    1
@<TRIPOS>MOLECULE
*****
 51 56 0 0 0
SMALL
GASTEIGER

@<TRIPOS>ATOM
      1 O          10.5579   74.7419   25.7784 O.2     1  UNL1       -0.2701
      2 C           9.8937   75.7525   25.4185 C.2     1  UNL1        0.2483
      3 N           8.4938   75.6194   25.1223 N.am    1  UNL1       -0.2945
      4 H           7.9156   76.4884   25.1048 H       1  UNL1        0.1501
      5 C          10.5627   77.0718   25.3519 C.ar    1  UNL1        0.0808
      6 C          10.0677   78.1397   26.1194 C.ar    1  UNL1        0.0080
      7 C          10.6759   79.3963   26.0643 C.ar    1  UNL1        0.0148
      8 C          11.7974   79.6078   25.2496 C.ar    1  UNL1        0.0502
      9 C          12.3044   78.5393   24.4932 C.ar    1  UNL1        0.0443
     10 C          11.6986   77.2800   24.5455 C.ar    1  UNL1        0.1457
     11 F          12.2574   76.2599   23.8482 F       1  UNL1       -0.2040
     12 N          12.4168   80.9067   25.1937 N.pl3   1  UNL1       -0.3040
     13 C          13.8594   81.0556   25.4140 C.3     1  UNL1        0.1123
     14 C          14.4323   82.1207   24.4751 C.3     1  UNL1        0.1136
     15 N          13.5934   83.3280   24.4914 N.pl3   1  UNL1       -0.2897
     16 C          12.1486   83.1655   24.2828 C.3     1  UNL1        0.1136
     17 C          11.5918   82.1182   25.2448 C.3     1  UNL1        0.1123
     18 C          14.1776   84.6445   24.4206 C.ar    1  UNL1        0.1318
     19 C          14.7277   85.1365   23.2256 C.ar    1  UNL1        0.0343
     20 C          15.2817   86.4172   23.1975 C.ar    1  UNL1        0.0083
     21 C          15.2688   87.2187   24.3488 C.ar    1  UNL1        0.0906
     22 C          14.7256   86.6835   25.5271 C.ar    1  UNL1        0.1041
     23 N          14.1942   85.4326   25.5310 N.ar    1  UNL1       -0.2292
     24 C          15.9081   88.5838   24.3450 C.3     1  UNL1        0.4200
     25 F          15.7301   89.2028   23.1198 F       1  UNL1       -0.1658
     26 F          15.3477   89.3883   25.3221 F       1  UNL1       -0.1658
     27 F          17.2621   88.4529   24.5911 F       1  UNL1       -0.1658
     28 C           7.8059   74.3233   25.1779 C.3     1  UNL1        0.1535
     29 C           6.5540   74.4163   26.0158 C.2     1  UNL1        0.2443
     30 O           5.4426   74.6420   25.4629 O.2     1  UNL1       -0.2730
     31 N           6.6392   74.2529   27.4407 N.am    1  UNL1       -0.2825
     32 H           7.5863   74.3129   27.8788 H       1  UNL1        0.1549
     33 C           5.5027   74.1205   28.3125 C.ar    1  UNL1        0.0539
     34 C           4.8877   72.8775   28.5423 C.ar    1  UNL1        0.0354
     35 C           3.8035   72.7968   29.4194 C.ar    1  UNL1        0.1007
     36 N           3.3559   73.9107   30.0562 N.ar    1  UNL1       -0.2378
     37 C           3.9413   75.1227   29.8680 C.ar    1  UNL1        0.1043
     38 S           3.3149   76.5529   30.7386 S.3     1  UNL1       -0.1227
     39 C           5.0302   75.2470   28.9999 C.ar    1  UNL1        0.0399
     40 H           2.4159   76.8578   29.6995 H       1  UNL1        0.1086
     41 C           7.5061   73.7897   23.7616 C.3     1  UNL1        0.0569
     42 C           8.5869   74.1014   22.7612 C.ar    1  UNL1       -0.0017
     43 C           8.5749   75.1312   21.8243 C.ar    1  UNL1        0.0681
     44 N           9.7272   75.1411   21.1167 N.ar    1  UNL1       -0.3523
     45 C          10.4663   74.1259   21.5964 C.ar    1  UNL1        0.0563
     46 C          11.7403   73.7397   21.1820 C.ar    1  UNL1        0.0170
     47 C          12.3360   72.6397   21.8258 C.ar    1  UNL1        0.0015
     48 C          11.6514   71.9561   22.8550 C.ar    1  UNL1        0.0001
     49 C          10.3657   72.3669   23.2506 C.ar    1  UNL1        0.0012
     50 C           9.8032   73.4652   22.5992 C.ar    1  UNL1        0.0131
     51 H           9.9865   75.8055   20.3541 H       1  UNL1        0.1660
@<TRIPOS>BOND
     1     1     2    2
     2     2     3   am
     3     3    28    1
     4    28    41    1
     5    41    42    1
     6    42    43   ar
     7    43    44   ar
     8    44    45   ar
     9    45    46   ar
    10    46    47   ar
    11    47    48   ar
    12    48    49   ar
    13    49    50   ar
    14    28    29    1
    15    29    30    2
    16    29    31   am
    17    31    33    1
    18    33    34   ar
    19    34    35   ar
    20    35    36   ar
    21    36    37   ar
    22    37    38    1
    23    37    39   ar
    24     2     5    1
    25     5     6   ar
    26     6     7   ar
    27     7     8   ar
    28     8    12    1
    29    12    13    1
    30    13    14    1
    31    14    15    1
    32    15    18    1
    33    18    19   ar
    34    19    20   ar
    35    20    21   ar
    36    21    24    1
    37    24    25    1
    38    24    26    1
    39    24    27    1
    40    21    22   ar
    41    22    23   ar
    42    15    16    1
    43    16    17    1
    44     8     9   ar
    45     9    10   ar
    46    10    11    1
    47    50    42   ar
    48    39    33   ar
    49    10     5   ar
    50    50    45   ar
    51    17    12    1
    52    23    18   ar
    53     3     4    1
    54    44    51    1
    55    31    32    1
    56    38    40    1
@<TRIPOS>MOLECULE
*****
 51 56 0 0 0
SMALL
GASTEIGER

@<TRIPOS>ATOM
      1 O          11.0474   75.3220   24.3610 O.2     1  UNL1       -0.2701
      2 C           9.9301   75.3937   24.9427 C.2     1  UNL1        0.2483
      3 N           9.8744   75.6653   26.3528 N.am    1  UNL1       -0.2945
      4 H           8.9666   75.9947   26.7492 H       1  UNL1        0.1501
      5 C           8.6898   75.2409   24.1485 C.ar    1  UNL1        0.0808
      6 C           8.7144   75.4996   22.7676 C.ar    1  UNL1        0.0080
      7 C           7.5541   75.3728   21.9999 C.ar    1  UNL1        0.0148
      8 C           6.3485   74.9742   22.5949 C.ar    1  UNL1        0.0502
      9 C           6.3233   74.6997   23.9714 C.ar    1  UNL1        0.0443
     10 C           7.4825   74.8255   24.7434 C.ar    1  UNL1        0.1457
     11 F           7.4292   74.4902   26.0564 F       1  UNL1       -0.2040
     12 N           5.1548   74.8499   21.7988 N.pl3   1  UNL1       -0.3040
     13 C           4.9851   73.7190   20.8800 C.3     1  UNL1        0.1123
     14 C           3.5297   73.2436   20.8870 C.3     1  UNL1        0.1136
     15 N           2.6130   74.3868   20.7671 N.pl3   1  UNL1       -0.2897
     16 C           2.8006   75.5191   21.6835 C.3     1  UNL1        0.1136
     17 C           4.2513   75.9947   21.6435 C.3     1  UNL1        0.1123
     18 C           1.4005   74.2937   19.9919 C.ar    1  UNL1        0.1318
     19 C           0.8857   75.4050   19.3044 C.ar    1  UNL1        0.0343
     20 C          -0.2894   75.2733   18.5630 C.ar    1  UNL1        0.0083
     21 C          -0.9408   74.0333   18.4844 C.ar    1  UNL1        0.0906
     22 C          -0.4037   72.9521   19.2000 C.ar    1  UNL1        0.1041
     23 N           0.7404   73.1050   19.9176 N.ar    1  UNL1       -0.2292
     24 C          -2.2369   73.8900   17.7281 C.3     1  UNL1        0.4200
     25 F          -2.8057   72.6505   17.9648 F       1  UNL1       -0.1658
     26 F          -3.1406   74.8628   18.1190 F       1  UNL1       -0.1658
     27 F          -1.9907   74.0216   16.3742 F       1  UNL1       -0.1658
     28 C          11.0882   75.8187   27.1648 C.3     1  UNL1        0.1535
     29 C          11.7968   77.1089   26.8314 C.2     1  UNL1        0.2443
     30 O          11.7378   78.0834   27.6305 O.2     1  UNL1       -0.2730
     31 N          12.5294   77.2193   25.6004 N.am    1  UNL1       -0.2825
     32 H          12.3548   76.4956   24.8668 H       1  UNL1        0.1549
     33 C          13.4023   78.3139   25.2700 C.ar    1  UNL1        0.0539
     34 C          14.7404   78.1051   24.8932 C.ar    1  UNL1        0.0354
     35 C          15.5399   79.1995   24.5551 C.ar    1  UNL1        0.1007
     36 N          15.0227   80.4559   24.5776 N.ar    1  UNL1       -0.2378
     37 C          13.7281   80.6875   24.9203 C.ar    1  UNL1        0.1043
     38 S          13.0993   82.3609   24.9248 S.3     1  UNL1       -0.1227
     39 C          12.8931   79.6199   25.2638 C.ar    1  UNL1        0.0399
     40 H          13.4598   82.5491   26.2722 H       1  UNL1        0.1086
     41 C          10.7685   75.7160   28.6707 C.3     1  UNL1        0.0569
     42 C           9.3407   75.3346   28.9570 C.ar    1  UNL1       -0.0017
     43 C           8.8812   74.0776   29.3406 C.ar    1  UNL1        0.0681
     44 N           7.5461   74.1060   29.5530 N.ar    1  UNL1       -0.3523
     45 C           7.1574   75.3687   29.3051 C.ar    1  UNL1        0.0563
     46 C           5.8661   75.8872   29.3928 C.ar    1  UNL1        0.0170
     47 C           5.6815   77.2480   29.0869 C.ar    1  UNL1        0.0015
     48 C           6.7786   78.0499   28.7013 C.ar    1  UNL1        0.0001
     49 C           8.0700   77.4988   28.6193 C.ar    1  UNL1        0.0012
     50 C           8.2237   76.1484   28.9354 C.ar    1  UNL1        0.0131
     51 H           6.9435   73.3069   29.8506 H       1  UNL1        0.1660
@<TRIPOS>BOND
     1     1     2    2
     2     2     3   am
     3     3    28    1
     4    28    41    1
     5    41    42    1
     6    42    43   ar
     7    43    44   ar
     8    44    45   ar
     9    45    46   ar
    10    46    47   ar
    11    47    48   ar
    12    48    49   ar
    13    49    50   ar
    14    28    29    1
    15    29    30    2
    16    29    31   am
    17    31    33    1
    18    33    34   ar
    19    34    35   ar
    20    35    36   ar
    21    36    37   ar
    22    37    38    1
    23    37    39   ar
    24     2     5    1
    25     5     6   ar
    26     6     7   ar
    27     7     8   ar
    28     8    12    1
    29    12    13    1
    30    13    14    1
    31    14    15    1
    32    15    18    1
    33    18    19   ar
    34    19    20   ar
    35    20    21   ar
    36    21    24    1
    37    24    25    1
    38    24    26    1
    39    24    27    1
    40    21    22   ar
    41    22    23   ar
    42    15    16    1
    43    16    17    1
    44     8     9   ar
    45     9    10   ar
    46    10    11    1
    47    50    42   ar
    48    39    33   ar
    49    10     5   ar
    50    50    45   ar
    51    17    12    1
    52    23    18   ar
    53     3     4    1
    54    44    51    1
    55    31    32    1
    56    38    40    1
@<TRIPOS>MOLECULE
*****
 51 56 0 0 0
SMALL
GASTEIGER

@<TRIPOS>ATOM
      1 O          11.9549   76.8351   23.0190 O.2     1  UNL1       -0.2701
      2 C          10.9072   77.4606   23.3399 C.2     1  UNL1        0.2483
      3 N          10.9904   78.5848   24.2313 N.am    1  UNL1       -0.2945
      4 H          10.1820   79.2447   24.2586 H       1  UNL1        0.1501
      5 C           9.6112   77.0503   22.7529 C.ar    1  UNL1        0.0808
      6 C           9.1161   77.7260   21.6247 C.ar    1  UNL1        0.0080
      7 C           7.8906   77.3636   21.0603 C.ar    1  UNL1        0.0148
      8 C           7.1405   76.3117   21.6055 C.ar    1  UNL1        0.0502
      9 C           7.6391   75.6240   22.7231 C.ar    1  UNL1        0.0443
     10 C           8.8653   75.9836   23.2911 C.ar    1  UNL1        0.1457
     11 F           9.3399   75.2531   24.3306 F       1  UNL1       -0.2040
     12 N           5.8757   75.9461   21.0217 N.pl3   1  UNL1       -0.3040
     13 C           5.7370   74.6989   20.2622 C.3     1  UNL1        0.1123
     14 C           4.3772   74.0543   20.5443 C.3     1  UNL1        0.1136
     15 N           3.3031   75.0539   20.4511 N.pl3   1  UNL1       -0.2897
     16 C           3.4588   76.3045   21.2054 C.3     1  UNL1        0.1136
     17 C           4.8093   76.9446   20.8915 C.3     1  UNL1        0.1123
     18 C           2.0185   74.7194   19.8876 C.ar    1  UNL1        0.1318
     19 C           1.2765   75.6581   19.1521 C.ar    1  UNL1        0.0343
     20 C           0.0381   75.2945   18.6209 C.ar    1  UNL1        0.0083
     21 C          -0.4533   73.9927   18.7993 C.ar    1  UNL1        0.0906
     22 C           0.3106   73.0901   19.5553 C.ar    1  UNL1        0.1041
     23 N           1.5125   73.4677   20.0652 N.ar    1  UNL1       -0.2292
     24 C          -1.8111   73.6024   18.2735 C.3     1  UNL1        0.4200
     25 F          -2.8100   74.0529   19.1192 F       1  UNL1       -0.1658
     26 F          -2.0253   74.1497   17.0203 F       1  UNL1       -0.1658
     27 F          -1.8850   72.2250   18.1823 F       1  UNL1       -0.1658
     28 C          12.2615   79.0117   24.8296 C.3     1  UNL1        0.1535
     29 C          12.3012   80.5118   24.9908 C.2     1  UNL1        0.2443
     30 O          11.2260   81.1589   25.1214 O.2     1  UNL1       -0.2730
     31 N          13.5660   81.1934   24.9879 N.am    1  UNL1       -0.2825
     32 H          14.3984   80.6671   24.6377 H       1  UNL1        0.1549
     33 C          13.7428   82.5789   25.3315 C.ar    1  UNL1        0.0539
     34 C          13.6292   83.5994   24.3714 C.ar    1  UNL1        0.0354
     35 C          13.7825   84.9321   24.7608 C.ar    1  UNL1        0.1007
     36 N          14.0263   85.2397   26.0617 N.ar    1  UNL1       -0.2378
     37 C          14.1236   84.2765   27.0155 C.ar    1  UNL1        0.1043
     38 S          14.4378   84.7401   28.7131 S.3     1  UNL1       -0.1227
     39 C          13.9747   82.9302   26.6686 C.ar    1  UNL1        0.0399
     40 H          15.8313   84.6617   28.5323 H       1  UNL1        0.1086
     41 C          12.5197   78.2871   26.1671 C.3     1  UNL1        0.0569
     42 C          11.3363   77.4986   26.6612 C.ar    1  UNL1       -0.0017
     43 C          11.2340   76.1115   26.7230 C.ar    1  UNL1        0.0681
     44 N          10.0466   75.7477   27.2579 N.ar    1  UNL1       -0.3523
     45 C           9.3968   76.8919   27.5327 C.ar    1  UNL1        0.0563
     46 C           8.1305   77.0284   28.0998 C.ar    1  UNL1        0.0170
     47 C           7.6374   78.3303   28.3024 C.ar    1  UNL1        0.0015
     48 C           8.4107   79.4536   27.9345 C.ar    1  UNL1        0.0001
     49 C           9.6844   79.2853   27.3620 C.ar    1  UNL1        0.0012
     50 C          10.1501   77.9826   27.1798 C.ar    1  UNL1        0.0131
     51 H           9.7079   74.7739   27.4233 H       1  UNL1        0.1660
@<TRIPOS>BOND
     1     1     2    2
     2     2     3   am
     3     3    28    1
     4    28    41    1
     5    41    42    1
     6    42    43   ar
     7    43    44   ar
     8    44    45   ar
     9    45    46   ar
    10    46    47   ar
    11    47    48   ar
    12    48    49   ar
    13    49    50   ar
    14    28    29    1
    15    29    30    2
    16    29    31   am
    17    31    33    1
    18    33    34   ar
    19    34    35   ar
    20    35    36   ar
    21    36    37   ar
    22    37    38    1
    23    37    39   ar
    24     2     5    1
    25     5     6   ar
    26     6     7   ar
    27     7     8   ar
    28     8    12    1
    29    12    13    1
    30    13    14    1
    31    14    15    1
    32    15    18    1
    33    18    19   ar
    34    19    20   ar
    35    20    21   ar
    36    21    24    1
    37    24    25    1
    38    24    26    1
    39    24    27    1
    40    21    22   ar
    41    22    23   ar
    42    15    16    1
    43    16    17    1
    44     8     9   ar
    45     9    10   ar
    46    10    11    1
    47    50    42   ar
    48    39    33   ar
    49    10     5   ar
    50    50    45   ar
    51    17    12    1
    52    23    18   ar
    53     3     4    1
    54    44    51    1
    55    31    32    1
    56    38    40    1
@<TRIPOS>MOLECULE
*****
 51 56 0 0 0
SMALL
GASTEIGER

@<TRIPOS>ATOM
      1 O          11.0824   75.2529   24.3771 O.2     1  UNL1       -0.2701
      2 C           9.9494   75.3585   24.9221 C.2     1  UNL1        0.2483
      3 N           9.8558   75.6629   26.3234 N.am    1  UNL1       -0.2945
      4 H           8.9428   76.0181   26.6840 H       1  UNL1        0.1501
      5 C           8.7313   75.2109   24.0932 C.ar    1  UNL1        0.0808
      6 C           7.7825   76.2469   24.0644 C.ar    1  UNL1        0.0080
      7 C           6.6205   76.1254   23.2983 C.ar    1  UNL1        0.0148
      8 C           6.3888   74.9706   22.5373 C.ar    1  UNL1        0.0502
      9 C           7.3417   73.9399   22.5512 C.ar    1  UNL1        0.0443
     10 C           8.5060   74.0576   23.3166 C.ar    1  UNL1        0.1457
     11 F           9.4296   73.0665   23.2526 F       1  UNL1       -0.2040
     12 N           5.1867   74.8496   21.7534 N.pl3   1  UNL1       -0.3040
     13 C           5.0107   73.7271   20.8255 C.3     1  UNL1        0.1123
     14 C           3.5573   73.2463   20.8441 C.3     1  UNL1        0.1136
     15 N           2.6351   74.3871   20.7456 N.pl3   1  UNL1       -0.2897
     16 C           2.8289   75.5112   21.6710 C.3     1  UNL1        0.1136
     17 C           4.2773   75.9925   21.6194 C.3     1  UNL1        0.1123
     18 C           1.4144   74.2971   19.9832 C.ar    1  UNL1        0.1318
     19 C           0.8919   75.4112   19.3061 C.ar    1  UNL1        0.0343
     20 C          -0.2911   75.2824   18.5769 C.ar    1  UNL1        0.0083
     21 C          -0.9430   74.0426   18.5000 C.ar    1  UNL1        0.0906
     22 C          -0.3980   72.9584   19.2051 C.ar    1  UNL1        0.1041
     23 N           0.7537   73.1085   19.9109 N.ar    1  UNL1       -0.2292
     24 C          -2.2472   73.9022   17.7571 C.3     1  UNL1        0.4200
     25 F          -2.0426   73.9892   16.3909 F       1  UNL1       -0.1658
     26 F          -2.8354   72.6793   18.0298 F       1  UNL1       -0.1658
     27 F          -3.1054   74.9124   18.1495 F       1  UNL1       -0.1658
     28 C          11.0468   75.8121   27.1692 C.3     1  UNL1        0.1535
     29 C          11.7655   77.1028   26.8603 C.2     1  UNL1        0.2443
     30 O          11.7585   78.0432   27.7015 O.2     1  UNL1       -0.2730
     31 N          12.4482   77.2530   25.6051 N.am    1  UNL1       -0.2825
     32 H          12.2293   76.5644   24.8499 H       1  UNL1        0.1549
     33 C          13.3273   78.3454   25.2842 C.ar    1  UNL1        0.0539
     34 C          14.6710   78.1337   24.9296 C.ar    1  UNL1        0.0354
     35 C          15.4769   79.2260   24.5999 C.ar    1  UNL1        0.1007
     36 N          14.9607   80.4829   24.6088 N.ar    1  UNL1       -0.2378
     37 C          13.6610   80.7171   24.9298 C.ar    1  UNL1        0.1043
     38 S          13.0340   82.3911   24.9173 S.3     1  UNL1       -0.1227
     39 C          12.8196   79.6518   25.2644 C.ar    1  UNL1        0.0399
     40 H          13.3730   82.5847   26.2695 H       1  UNL1        0.1086
     41 C          10.6856   75.7040   28.6653 C.3     1  UNL1        0.0569
     42 C           9.3127   76.2285   28.9911 C.ar    1  UNL1       -0.0017
     43 C           8.9952   77.5240   29.3902 C.ar    1  UNL1        0.0681
     44 N           7.6598   77.6538   29.5584 N.ar    1  UNL1       -0.3523
     45 C           7.1307   76.4519   29.2713 C.ar    1  UNL1        0.0563
     46 C           5.7835   76.0939   29.2995 C.ar    1  UNL1        0.0170
     47 C           5.4473   74.7709   28.9595 C.ar    1  UNL1        0.0015
     48 C           6.4538   73.8450   28.6064 C.ar    1  UNL1        0.0001
     49 C           7.8053   74.2339   28.5888 C.ar    1  UNL1        0.0012
     50 C           8.1080   75.5542   28.9237 C.ar    1  UNL1        0.0131
     51 H           7.1477   78.5155   29.8508 H       1  UNL1        0.1660
@<TRIPOS>BOND
     1     1     2    2
     2     2     3   am
     3     3    28    1
     4    28    41    1
     5    41    42    1
     6    42    43   ar
     7    43    44   ar
     8    44    45   ar
     9    45    46   ar
    10    46    47   ar
    11    47    48   ar
    12    48    49   ar
    13    49    50   ar
    14    28    29    1
    15    29    30    2
    16    29    31   am
    17    31    33    1
    18    33    34   ar
    19    34    35   ar
    20    35    36   ar
    21    36    37   ar
    22    37    38    1
    23    37    39   ar
    24     2     5    1
    25     5     6   ar
    26     6     7   ar
    27     7     8   ar
    28     8    12    1
    29    12    13    1
    30    13    14    1
    31    14    15    1
    32    15    18    1
    33    18    19   ar
    34    19    20   ar
    35    20    21   ar
    36    21    24    1
    37    24    25    1
    38    24    26    1
    39    24    27    1
    40    21    22   ar
    41    22    23   ar
    42    15    16    1
    43    16    17    1
    44     8     9   ar
    45     9    10   ar
    46    10    11    1
    47    50    42   ar
    48    39    33   ar
    49    10     5   ar
    50    50    45   ar
    51    17    12    1
    52    23    18   ar
    53     3     4    1
    54    44    51    1
    55    31    32    1
    56    38    40    1
@<TRIPOS>MOLECULE
*****
 51 56 0 0 0
SMALL
GASTEIGER

@<TRIPOS>ATOM
      1 O           9.4562   76.8890   26.6943 O.2     1  UNL1       -0.2701
      2 C           9.1280   77.5207   25.6526 C.2     1  UNL1        0.2483
      3 N           9.9124   78.6449   25.2213 N.am    1  UNL1       -0.2945
      4 H           9.7988   78.9674   24.2350 H       1  UNL1        0.1501
      5 C           7.9611   77.0611   24.8653 C.ar    1  UNL1        0.0808
      6 C           6.6973   76.9910   25.4754 C.ar    1  UNL1        0.0080
      7 C           5.5841   76.5499   24.7556 C.ar    1  UNL1        0.0148
      8 C           5.7097   76.1805   23.4087 C.ar    1  UNL1        0.0502
      9 C           6.9677   76.2639   22.7912 C.ar    1  UNL1        0.0443
     10 C           8.0844   76.7049   23.5082 C.ar    1  UNL1        0.1457
     11 F           9.2674   76.8304   22.8571 F       1  UNL1       -0.2040
     12 N           4.5592   75.7222   22.6735 N.pl3   1  UNL1       -0.3040
     13 C           3.2341   76.2985   22.9261 C.3     1  UNL1        0.1123
     14 C           2.4591   76.4420   21.6135 C.3     1  UNL1        0.1136
     15 N           2.5453   75.2039   20.8254 N.pl3   1  UNL1       -0.2897
     16 C           3.8761   74.6287   20.5900 C.3     1  UNL1        0.1136
     17 C           4.6231   74.4700   21.9125 C.3     1  UNL1        0.1123
     18 C           1.4189   74.7232   20.0640 C.ar    1  UNL1        0.1318
     19 C           1.0810   73.3602   20.0405 C.ar    1  UNL1        0.0343
     20 C          -0.0184   72.9352   19.2931 C.ar    1  UNL1        0.0083
     21 C          -0.7965   73.8655   18.5881 C.ar    1  UNL1        0.0906
     22 C          -0.4152   75.2157   18.6232 C.ar    1  UNL1        0.1041
     23 N           0.6611   75.6057   19.3558 N.ar    1  UNL1       -0.2292
     24 C          -1.9561   73.4135   17.7374 C.3     1  UNL1        0.4200
     25 F          -3.1412   73.9614   18.1968 F       1  UNL1       -0.1658
     26 F          -1.7789   73.8059   16.4220 F       1  UNL1       -0.1658
     27 F          -2.0474   72.0350   17.7881 F       1  UNL1       -0.1658
     28 C          11.0724   79.1234   25.9838 C.3     1  UNL1        0.1535
     29 C          10.6345   79.7831   27.2687 C.2     1  UNL1        0.2443
     30 O          10.5206   81.0384   27.3240 O.2     1  UNL1       -0.2730
     31 N          10.3562   78.9746   28.4233 N.am    1  UNL1       -0.2825
     32 H          10.6919   77.9848   28.4132 H       1  UNL1        0.1549
     33 C           9.7444   79.4644   29.6295 C.ar    1  UNL1        0.0539
     34 C           9.0492   78.6121   30.5049 C.ar    1  UNL1        0.0354
     35 C           8.4962   79.1314   31.6779 C.ar    1  UNL1        0.1007
     36 N           8.6418   80.4490   31.9764 N.ar    1  UNL1       -0.2378
     37 C           9.3238   81.2937   31.1588 C.ar    1  UNL1        0.1043
     38 S           9.4905   83.0164   31.6061 S.3     1  UNL1       -0.1227
     39 C           9.8945   80.8143   29.9758 C.ar    1  UNL1        0.0399
     40 H           8.3065   83.3619   30.9281 H       1  UNL1        0.1086
     41 C          12.0791   77.9831   26.2421 C.3     1  UNL1        0.0569
     42 C          12.9285   77.6491   25.0451 C.ar    1  UNL1       -0.0017
     43 C          12.6365   76.7100   24.0596 C.ar    1  UNL1        0.0681
     44 N          13.6016   76.7017   23.1126 N.ar    1  UNL1       -0.3523
     45 C          14.5018   77.6253   23.4916 C.ar    1  UNL1        0.0563
     46 C          15.6760   77.9814   22.8294 C.ar    1  UNL1        0.0170
     47 C          16.4792   78.9817   23.4068 C.ar    1  UNL1        0.0015
     48 C          16.0971   79.5940   24.6210 C.ar    1  UNL1        0.0001
     49 C          14.9079   79.2127   25.2680 C.ar    1  UNL1        0.0012
     50 C          14.1280   78.2232   24.6682 C.ar    1  UNL1        0.0131
     51 H          13.6358   76.0992   22.2604 H       1  UNL1        0.1660
@<TRIPOS>BOND
     1     1     2    2
     2     2     3   am
     3     3    28    1
     4    28    41    1
     5    41    42    1
     6    42    43   ar
     7    43    44   ar
     8    44    45   ar
     9    45    46   ar
    10    46    47   ar
    11    47    48   ar
    12    48    49   ar
    13    49    50   ar
    14    28    29    1
    15    29    30    2
    16    29    31   am
    17    31    33    1
    18    33    34   ar
    19    34    35   ar
    20    35    36   ar
    21    36    37   ar
    22    37    38    1
    23    37    39   ar
    24     2     5    1
    25     5     6   ar
    26     6     7   ar
    27     7     8   ar
    28     8    12    1
    29    12    13    1
    30    13    14    1
    31    14    15    1
    32    15    18    1
    33    18    19   ar
    34    19    20   ar
    35    20    21   ar
    36    21    24    1
    37    24    25    1
    38    24    26    1
    39    24    27    1
    40    21    22   ar
    41    22    23   ar
    42    15    16    1
    43    16    17    1
    44     8     9   ar
    45     9    10   ar
    46    10    11    1
    47    50    42   ar
    48    39    33   ar
    49    10     5   ar
    50    50    45   ar
    51    17    12    1
    52    23    18   ar
    53     3     4    1
    54    44    51    1
    55    31    32    1
    56    38    40    1
@<TRIPOS>MOLECULE
*****
 51 56 0 0 0
SMALL
GASTEIGER

@<TRIPOS>ATOM
      1 O           9.2934   75.5213   26.6168 O.2     1  UNL1       -0.2701
      2 C           9.1649   76.2488   25.5939 C.2     1  UNL1        0.2483
      3 N           8.2028   75.9001   24.5850 N.am    1  UNL1       -0.2945
      4 H           7.9172   76.6419   23.9082 H       1  UNL1        0.1501
      5 C           9.9803   77.4789   25.4740 C.ar    1  UNL1        0.0808
      6 C           9.5543   78.6578   26.1089 C.ar    1  UNL1        0.0080
      7 C          10.3015   79.8333   26.0007 C.ar    1  UNL1        0.0148
      8 C          11.4950   79.8513   25.2648 C.ar    1  UNL1        0.0502
      9 C          11.9321   78.6717   24.6418 C.ar    1  UNL1        0.0443
     10 C          11.1871   77.4930   24.7477 C.ar    1  UNL1        0.1457
     11 F          11.6767   76.3610   24.1836 F       1  UNL1       -0.2040
     12 N          12.2582   81.0676   25.1532 N.pl3   1  UNL1       -0.3040
     13 C          13.7191   81.0464   25.2841 C.3     1  UNL1        0.1123
     14 C          14.3544   82.0297   24.2973 C.3     1  UNL1        0.1136
     15 N          13.6658   83.3277   24.3468 N.pl3   1  UNL1       -0.2897
     16 C          12.2018   83.3356   24.2279 C.3     1  UNL1        0.1136
     17 C          11.5860   82.3684   25.2366 C.3     1  UNL1        0.1123
     18 C          14.3953   84.5654   24.2221 C.ar    1  UNL1        0.1318
     19 C          15.1616   84.8501   23.0800 C.ar    1  UNL1        0.0343
     20 C          15.8513   86.0606   22.9966 C.ar    1  UNL1        0.0083
     21 C          15.7617   86.9986   24.0359 C.ar    1  UNL1        0.0906
     22 C          14.9998   86.6685   25.1674 C.ar    1  UNL1        0.1041
     23 N          14.3391   85.4823   25.2274 N.ar    1  UNL1       -0.2292
     24 C          16.5411   88.2877   23.9802 C.3     1  UNL1        0.4200
     25 F          17.3528   88.4159   25.0940 F       1  UNL1       -0.1658
     26 F          17.3437   88.3248   22.8531 F       1  UNL1       -0.1658
     27 F          15.6591   89.3514   23.9406 F       1  UNL1       -0.1658
     28 C           7.3831   74.6853   24.6772 C.3     1  UNL1        0.1535
     29 C           5.9277   75.0340   24.8718 C.2     1  UNL1        0.2443
     30 O           5.2730   74.5002   25.8090 O.2     1  UNL1       -0.2730
     31 N           5.2960   75.9687   23.9821 N.am    1  UNL1       -0.2825
     32 H           5.7897   76.1962   23.0893 H       1  UNL1        0.1549
     33 C           3.9862   76.5270   24.1868 C.ar    1  UNL1        0.0539
     34 C           3.4831   76.7797   25.4748 C.ar    1  UNL1        0.0354
     35 C           2.2156   77.3486   25.6201 C.ar    1  UNL1        0.1007
     36 N           1.4804   77.6678   24.5227 N.ar    1  UNL1       -0.2378
     37 C           1.9475   77.4520   23.2648 C.ar    1  UNL1        0.1043
     38 S           0.9398   77.8991   21.8576 S.3     1  UNL1       -0.1227
     39 C           3.2119   76.8862   23.0749 C.ar    1  UNL1        0.0399
     40 H           0.3348   76.6289   21.8201 H       1  UNL1        0.1086
     41 C           7.5927   73.7764   23.4482 C.3     1  UNL1        0.0569
     42 C           8.7777   74.1681   22.6065 C.ar    1  UNL1       -0.0017
     43 C           8.8962   75.3165   21.8283 C.ar    1  UNL1        0.0681
     44 N          10.1123   75.3657   21.2390 N.ar    1  UNL1       -0.3523
     45 C          10.7625   74.2582   21.6361 C.ar    1  UNL1        0.0563
     46 C          12.0561   73.8691   21.2908 C.ar    1  UNL1        0.0170
     47 C          12.5443   72.6623   21.8242 C.ar    1  UNL1        0.0015
     48 C          11.7368   71.8788   22.6781 C.ar    1  UNL1        0.0001
     49 C          10.4343   72.2954   23.0073 C.ar    1  UNL1        0.0012
     50 C           9.9798   73.4999   22.4692 C.ar    1  UNL1        0.0131
     51 H          10.4700   76.1149   20.6058 H       1  UNL1        0.1660
@<TRIPOS>BOND
     1     1     2    2
     2     2     3   am
     3     3    28    1
     4    28    41    1
     5    41    42    1
     6    42    43   ar
     7    43    44   ar
     8    44    45   ar
     9    45    46   ar
    10    46    47   ar
    11    47    48   ar
    12    48    49   ar
    13    49    50   ar
    14    28    29    1
    15    29    30    2
    16    29    31   am
    17    31    33    1
    18    33    34   ar
    19    34    35   ar
    20    35    36   ar
    21    36    37   ar
    22    37    38    1
    23    37    39   ar
    24     2     5    1
    25     5     6   ar
    26     6     7   ar
    27     7     8   ar
    28     8    12    1
    29    12    13    1
    30    13    14    1
    31    14    15    1
    32    15    18    1
    33    18    19   ar
    34    19    20   ar
    35    20    21   ar
    36    21    24    1
    37    24    25    1
    38    24    26    1
    39    24    27    1
    40    21    22   ar
    41    22    23   ar
    42    15    16    1
    43    16    17    1
    44     8     9   ar
    45     9    10   ar
    46    10    11    1
    47    50    42   ar
    48    39    33   ar
    49    10     5   ar
    50    50    45   ar
    51    17    12    1
    52    23    18   ar
    53     3     4    1
    54    44    51    1
    55    31    32    1
    56    38    40    1
