@<TRIPOS>MOLECULE
*****
 38 42 0 0 0
SMALL
GASTEIGER

@<TRIPOS>ATOM
      1 C         -23.0232   -8.8070  -10.8690 C.2     1  UNL1        0.2491
      2 O         -24.1002   -9.4452  -10.7195 O.2     1  UNL1       -0.2699
      3 N         -22.7649   -8.1086  -12.1038 N.am    1  UNL1       -0.2680
      4 C         -21.9827   -6.8668  -12.1002 C.3     1  UNL1        0.1412
      5 C         -20.5552   -7.1440  -12.5678 C.3     1  UNL1        0.2269
      6 O         -20.5256   -8.1160  -13.6112 O.3     1  UNL1       -0.4708
      7 C         -21.3487   -8.0274  -14.7364 C.ar    1  UNL1        0.1696
      8 C         -20.7624   -7.8069  -15.9939 C.ar    1  UNL1        0.1675
      9 O         -19.3793   -7.6913  -16.1327 O.3     1  UNL1       -0.5029
     10 C         -21.5658   -7.6865  -17.1296 C.ar    1  UNL1        0.0398
     11 C         -22.9616   -7.7938  -17.0347 C.ar    1  UNL1        0.0030
     12 C         -23.5425   -8.0379  -15.7793 C.ar    1  UNL1        0.0006
     13 C         -22.7533   -8.1512  -14.6223 C.ar    1  UNL1        0.0347
     14 C         -23.4378   -8.5675  -13.3301 C.3     1  UNL1        0.1237
     15 H         -18.7492   -7.7658  -15.3431 H       1  UNL1        0.2923
     16 C         -23.8119   -7.6676  -18.2456 C.ar    1  UNL1        0.0016
     17 C         -24.5567   -6.4783  -18.4834 C.ar    1  UNL1        0.0016
     18 C         -25.3657   -6.3502  -19.6281 C.ar    1  UNL1        0.0206
     19 C         -25.4103   -7.4220  -20.5131 C.ar    1  UNL1        0.0985
     20 N         -26.1112   -7.5168  -21.6573 N.ar    1  UNL1       -0.2241
     21 C         -25.7894   -8.7588  -22.1063 C.ar    1  UNL1        0.1750
     22 N         -24.9306   -9.4214  -21.2945 N.ar    1  UNL1       -0.3349
     23 C         -24.7016   -8.5623  -20.2947 C.ar    1  UNL1        0.0757
     24 C         -23.8893   -8.7318  -19.1771 C.ar    1  UNL1        0.0185
     25 H         -24.5396  -10.3811  -21.4229 H       1  UNL1        0.1675
     26 C         -20.7644   -9.3663   -9.8790 C.ar    1  UNL1       -0.0165
     27 C         -19.8781   -9.2891   -8.7905 C.ar    1  UNL1        0.0142
     28 C         -20.2584   -8.6611   -7.5987 C.ar    1  UNL1        0.1054
     29 C         -21.5343   -8.0997   -7.4884 C.ar    1  UNL1        0.0185
     30 C         -22.4263   -8.1680   -8.5590 C.ar    1  UNL1        0.0055
     31 C         -22.0513   -8.7854   -9.7607 C.ar    1  UNL1        0.0497
     32 S         -19.1248   -8.5591   -6.2558 S.O2    1  UNL1        0.0104
     33 C         -20.0024   -8.7876   -4.7263 C.3     1  UNL1        0.1816
     34 O         -18.0706   -9.6218   -6.3927 O.2     1  UNL1       -0.1686
     35 O         -18.4558   -7.2132   -6.2573 O.2     1  UNL1       -0.1686
     36 C         -20.3247  -10.1242  -11.1155 C.3     1  UNL1        0.0265
     37 C         -21.4360  -11.9353  -12.5168 C.3     1  UNL1        0.0004
     38 C         -20.8837  -11.5537  -11.1446 C.3     1  UNL1        0.0047
@<TRIPOS>BOND
     1    37    38    1
     2    38    36    1
     3    36    26    1
     4    26    27   ar
     5    27    28   ar
     6    28    32    1
     7    32    33    1
     8    32    34    2
     9    32    35    2
    10    28    29   ar
    11    29    30   ar
    12    30    31   ar
    13    31     1    1
    14     1     2    2
    15     1     3   am
    16     3     4    1
    17     4     5    1
    18     5     6    1
    19     6     7    1
    20     7     8   ar
    21     8     9    1
    22     8    10   ar
    23    10    11   ar
    24    11    16    1
    25    16    17   ar
    26    17    18   ar
    27    18    19   ar
    28    19    20   ar
    29    20    21   ar
    30    21    22   ar
    31    22    23   ar
    32    23    24   ar
    33    11    12   ar
    34    12    13   ar
    35    13    14    1
    36    31    26   ar
    37    14     3    1
    38    13     7   ar
    39    24    16   ar
    40    23    19   ar
    41     9    15    1
    42    22    25    1
@<TRIPOS>MOLECULE
*****
 38 42 0 0 0
SMALL
GASTEIGER

@<TRIPOS>ATOM
      1 C         -22.3734   -8.6784  -10.0778 C.2     1  UNL1        0.2491
      2 O         -23.2877   -8.7382   -9.2117 O.2     1  UNL1       -0.2699
      3 N         -22.5542   -7.8765  -11.2624 N.am    1  UNL1       -0.2680
      4 C         -21.4037   -7.2153  -11.8893 C.3     1  UNL1        0.1412
      5 C         -20.9561   -7.9977  -13.1226 C.3     1  UNL1        0.2269
      6 O         -22.0696   -8.5326  -13.8357 O.3     1  UNL1       -0.4708
      7 C         -23.1752   -7.7535  -14.1851 C.ar    1  UNL1        0.1696
      8 C         -23.4283   -7.5002  -15.5436 C.ar    1  UNL1        0.1675
      9 O         -22.6044   -8.0253  -16.5391 O.3     1  UNL1       -0.5029
     10 C         -24.5108   -6.7012  -15.9170 C.ar    1  UNL1        0.0398
     11 C         -25.3634   -6.1509  -14.9479 C.ar    1  UNL1        0.0030
     12 C         -25.1210   -6.4260  -13.5919 C.ar    1  UNL1        0.0006
     13 C         -24.0309   -7.2183  -13.1939 C.ar    1  UNL1        0.0347
     14 C         -23.9235   -7.5976  -11.7255 C.3     1  UNL1        0.1237
     15 H         -21.8033   -8.6073  -16.3259 H       1  UNL1        0.2923
     16 C         -26.5149   -5.3038  -15.3497 C.ar    1  UNL1        0.0016
     17 C         -26.3500   -4.2749  -16.3191 C.ar    1  UNL1        0.0016
     18 C         -27.4357   -3.4667  -16.7055 C.ar    1  UNL1        0.0206
     19 C         -28.6684   -3.7091  -16.1091 C.ar    1  UNL1        0.0985
     20 N         -29.8287   -3.0637  -16.3243 N.ar    1  UNL1       -0.2241
     21 C         -30.6888   -3.7020  -15.4874 C.ar    1  UNL1        0.1750
     22 N         -30.1108   -4.7000  -14.7764 N.ar    1  UNL1       -0.3349
     23 C         -28.8359   -4.6905  -15.1823 C.ar    1  UNL1        0.0757
     24 C         -27.7908   -5.5129  -14.7711 C.ar    1  UNL1        0.0185
     25 H         -30.5598   -5.3294  -14.0746 H       1  UNL1        0.1675
     26 C         -20.8166  -10.6090  -10.5724 C.ar    1  UNL1       -0.0165
     27 C         -19.5995  -11.2653  -10.3190 C.ar    1  UNL1        0.0142
     28 C         -18.7080  -10.7773   -9.3565 C.ar    1  UNL1        0.1054
     29 C         -19.0285   -9.6205   -8.6391 C.ar    1  UNL1        0.0185
     30 C         -20.2325   -8.9572   -8.8780 C.ar    1  UNL1        0.0055
     31 C         -21.1273   -9.4318   -9.8475 C.ar    1  UNL1        0.0497
     32 S         -17.1808  -11.6046   -9.0700 S.O2    1  UNL1        0.0104
     33 C         -16.9277  -11.7832   -7.3191 C.3     1  UNL1        0.1816
     34 O         -17.2044  -12.9624   -9.7144 O.2     1  UNL1       -0.1686
     35 O         -16.0529  -10.8084   -9.6641 O.2     1  UNL1       -0.1686
     36 C         -21.7750  -11.2258  -11.5713 C.3     1  UNL1        0.0265
     37 C         -21.6309  -12.1826  -13.9255 C.3     1  UNL1        0.0004
     38 C         -21.0727  -12.2225  -12.5041 C.3     1  UNL1        0.0047
@<TRIPOS>BOND
     1    37    38    1
     2    38    36    1
     3    36    26    1
     4    26    27   ar
     5    27    28   ar
     6    28    32    1
     7    32    33    1
     8    32    34    2
     9    32    35    2
    10    28    29   ar
    11    29    30   ar
    12    30    31   ar
    13    31     1    1
    14     1     2    2
    15     1     3   am
    16     3     4    1
    17     4     5    1
    18     5     6    1
    19     6     7    1
    20     7     8   ar
    21     8     9    1
    22     8    10   ar
    23    10    11   ar
    24    11    16    1
    25    16    17   ar
    26    17    18   ar
    27    18    19   ar
    28    19    20   ar
    29    20    21   ar
    30    21    22   ar
    31    22    23   ar
    32    23    24   ar
    33    11    12   ar
    34    12    13   ar
    35    13    14    1
    36    31    26   ar
    37    14     3    1
    38    13     7   ar
    39    24    16   ar
    40    23    19   ar
    41     9    15    1
    42    22    25    1
@<TRIPOS>MOLECULE
*****
 38 42 0 0 0
SMALL
GASTEIGER

@<TRIPOS>ATOM
      1 C         -22.0976   -9.0081   -9.8363 C.2     1  UNL1        0.2491
      2 O         -22.9978   -9.2036   -8.9754 O.2     1  UNL1       -0.2699
      3 N         -22.3577   -8.1560  -10.9700 N.am    1  UNL1       -0.2680
      4 C         -21.2760   -7.3555  -11.5557 C.3     1  UNL1        0.1412
      5 C         -20.7657   -8.0176  -12.8342 C.3     1  UNL1        0.2269
      6 O         -21.8296   -8.6081  -13.5784 O.3     1  UNL1       -0.4708
      7 C         -23.0038   -7.9140  -13.8799 C.ar    1  UNL1        0.1696
      8 C         -23.2866   -7.6033  -15.2204 C.ar    1  UNL1        0.1675
      9 O         -22.4237   -7.9895  -16.2461 O.3     1  UNL1       -0.5029
     10 C         -24.4397   -6.8857  -15.5445 C.ar    1  UNL1        0.0398
     11 C         -25.3336   -6.4755  -14.5438 C.ar    1  UNL1        0.0030
     12 C         -25.0594   -6.8086  -13.2070 C.ar    1  UNL1        0.0006
     13 C         -23.8993   -7.5203  -12.8580 C.ar    1  UNL1        0.0347
     14 C         -23.7493   -7.9762  -11.4153 C.3     1  UNL1        0.1237
     15 H         -21.5716   -8.5075  -16.0685 H       1  UNL1        0.2923
     16 C         -26.5600   -5.7147  -14.8934 C.ar    1  UNL1        0.0016
     17 C         -26.4708   -4.5047  -15.6375 C.ar    1  UNL1        0.0016
     18 C         -27.6279   -3.7768  -15.9728 C.ar    1  UNL1        0.0206
     19 C         -28.8544   -4.2802  -15.5530 C.ar    1  UNL1        0.0985
     20 N         -30.0748   -3.7531  -15.7578 N.ar    1  UNL1       -0.2241
     21 C         -30.8955   -4.6427  -15.1391 C.ar    1  UNL1        0.1750
     22 N         -30.2367   -5.6808  -14.5702 N.ar    1  UNL1       -0.3349
     23 C         -28.9497   -5.4360  -14.8421 C.ar    1  UNL1        0.0757
     24 C         -27.8325   -6.1876  -14.4891 C.ar    1  UNL1        0.0185
     25 H         -30.6429   -6.4850  -14.0423 H       1  UNL1        0.1675
     26 C         -19.8665   -9.2238   -8.6655 C.ar    1  UNL1       -0.0165
     27 C         -18.6432   -9.9028   -8.5282 C.ar    1  UNL1        0.0142
     28 C         -18.3251  -10.9832   -9.3594 C.ar    1  UNL1        0.1054
     29 C         -19.2356  -11.3964  -10.3369 C.ar    1  UNL1        0.0185
     30 C         -20.4540  -10.7332  -10.4867 C.ar    1  UNL1        0.0055
     31 C         -20.7866   -9.6567   -9.6522 C.ar    1  UNL1        0.0497
     32 S         -16.7957  -11.8308   -9.1563 S.O2    1  UNL1        0.0104
     33 C         -16.5342  -12.1675   -7.4301 C.3     1  UNL1        0.1816
     34 O         -16.8208  -13.1244   -9.9215 O.2     1  UNL1       -0.1686
     35 O         -15.6714  -10.9822   -9.6807 O.2     1  UNL1       -0.1686
     36 C         -20.1232   -8.0147   -7.7886 C.3     1  UNL1        0.0265
     37 C         -19.6769   -8.4268   -5.3168 C.3     1  UNL1        0.0004
     38 C         -19.1112   -7.9112   -6.6389 C.3     1  UNL1        0.0047
@<TRIPOS>BOND
     1    37    38    1
     2    38    36    1
     3    36    26    1
     4    26    27   ar
     5    27    28   ar
     6    28    32    1
     7    32    33    1
     8    32    34    2
     9    32    35    2
    10    28    29   ar
    11    29    30   ar
    12    30    31   ar
    13    31     1    1
    14     1     2    2
    15     1     3   am
    16     3     4    1
    17     4     5    1
    18     5     6    1
    19     6     7    1
    20     7     8   ar
    21     8     9    1
    22     8    10   ar
    23    10    11   ar
    24    11    16    1
    25    16    17   ar
    26    17    18   ar
    27    18    19   ar
    28    19    20   ar
    29    20    21   ar
    30    21    22   ar
    31    22    23   ar
    32    23    24   ar
    33    11    12   ar
    34    12    13   ar
    35    13    14    1
    36    31    26   ar
    37    14     3    1
    38    13     7   ar
    39    24    16   ar
    40    23    19   ar
    41     9    15    1
    42    22    25    1
@<TRIPOS>MOLECULE
*****
 38 42 0 0 0
SMALL
GASTEIGER

@<TRIPOS>ATOM
      1 C         -22.5908   -8.5438  -12.3963 C.2     1  UNL1        0.2491
      2 O         -22.9796   -7.3447  -12.3697 O.2     1  UNL1       -0.2699
      3 N         -22.0020   -9.1367  -11.2212 N.am    1  UNL1       -0.2680
      4 C         -22.1869  -10.5658  -10.9434 C.3     1  UNL1        0.1412
      5 C         -20.9280  -11.3422  -11.3254 C.3     1  UNL1        0.2269
      6 O         -19.7457  -10.6049  -11.0206 O.3     1  UNL1       -0.4708
      7 C         -19.5369  -10.0130   -9.7726 C.ar    1  UNL1        0.1696
      8 C         -18.5033  -10.4968   -8.9534 C.ar    1  UNL1        0.1675
      9 O         -17.6809  -11.5420   -9.3742 O.3     1  UNL1       -0.5029
     10 C         -18.2926   -9.9406   -7.6901 C.ar    1  UNL1        0.0398
     11 C         -19.0981   -8.8895   -7.2264 C.ar    1  UNL1        0.0030
     12 C         -20.1153   -8.3926   -8.0579 C.ar    1  UNL1        0.0006
     13 C         -20.3514   -8.9453   -9.3281 C.ar    1  UNL1        0.0347
     14 C         -21.3643   -8.2562  -10.2285 C.3     1  UNL1        0.1237
     15 H         -17.7911  -11.9855  -10.2781 H       1  UNL1        0.2923
     16 C         -18.8688   -8.2993   -5.8832 C.ar    1  UNL1        0.0016
     17 C         -17.6447   -7.6370   -5.5855 C.ar    1  UNL1        0.0016
     18 C         -17.4185   -7.0753   -4.3149 C.ar    1  UNL1        0.0206
     19 C         -18.4289   -7.1904   -3.3664 C.ar    1  UNL1        0.0985
     20 N         -18.4267   -6.7345   -2.1010 N.ar    1  UNL1       -0.2241
     21 C         -19.6451   -7.1211   -1.6387 C.ar    1  UNL1        0.1750
     22 N         -20.3853   -7.7873   -2.5573 N.ar    1  UNL1       -0.3349
     23 C         -19.6024   -7.8209   -3.6418 C.ar    1  UNL1        0.0757
     24 C         -19.8686   -8.3900   -4.8839 C.ar    1  UNL1        0.0185
     25 H         -21.3452   -8.1818   -2.4420 H       1  UNL1        0.1675
     26 C         -23.9992   -9.9022  -13.9982 C.ar    1  UNL1       -0.0165
     27 C         -24.0963  -10.6069  -15.2108 C.ar    1  UNL1        0.0142
     28 C         -22.9856  -10.7449  -16.0513 C.ar    1  UNL1        0.1054
     29 C         -21.7638  -10.1724  -15.6840 C.ar    1  UNL1        0.0185
     30 C         -21.6502   -9.4702  -14.4838 C.ar    1  UNL1        0.0055
     31 C         -22.7595   -9.3171  -13.6400 C.ar    1  UNL1        0.0497
     32 S         -23.1357  -11.6149  -17.5743 S.O2    1  UNL1        0.0104
     33 C         -21.6452  -12.5366  -17.8749 C.3     1  UNL1        0.1816
     34 O         -24.3048  -12.5577  -17.5132 O.2     1  UNL1       -0.1686
     35 O         -23.3608  -10.6399  -18.6959 O.2     1  UNL1       -0.1686
     36 C         -25.2144   -9.8506  -13.0941 C.3     1  UNL1        0.0265
     37 C         -26.6181   -7.9170  -12.2168 C.3     1  UNL1        0.0004
     38 C         -26.1490   -8.6860  -13.4506 C.3     1  UNL1        0.0047
@<TRIPOS>BOND
     1    37    38    1
     2    38    36    1
     3    36    26    1
     4    26    27   ar
     5    27    28   ar
     6    28    32    1
     7    32    33    1
     8    32    34    2
     9    32    35    2
    10    28    29   ar
    11    29    30   ar
    12    30    31   ar
    13    31     1    1
    14     1     2    2
    15     1     3   am
    16     3     4    1
    17     4     5    1
    18     5     6    1
    19     6     7    1
    20     7     8   ar
    21     8     9    1
    22     8    10   ar
    23    10    11   ar
    24    11    16    1
    25    16    17   ar
    26    17    18   ar
    27    18    19   ar
    28    19    20   ar
    29    20    21   ar
    30    21    22   ar
    31    22    23   ar
    32    23    24   ar
    33    11    12   ar
    34    12    13   ar
    35    13    14    1
    36    31    26   ar
    37    14     3    1
    38    13     7   ar
    39    24    16   ar
    40    23    19   ar
    41     9    15    1
    42    22    25    1
@<TRIPOS>MOLECULE
*****
 38 42 0 0 0
SMALL
GASTEIGER

@<TRIPOS>ATOM
      1 C         -22.2225   -9.3987  -10.7781 C.2     1  UNL1        0.2491
      2 O         -23.2216   -9.5227  -10.0191 O.2     1  UNL1       -0.2699
      3 N         -22.2717   -8.4821  -11.8901 N.am    1  UNL1       -0.2680
      4 C         -21.0555   -7.7878  -12.3292 C.3     1  UNL1        0.1412
      5 C         -20.4924   -8.4563  -13.5819 C.3     1  UNL1        0.2269
      6 O         -21.5326   -8.8958  -14.4532 O.3     1  UNL1       -0.4708
      7 C         -22.5877   -8.0633  -14.8342 C.ar    1  UNL1        0.1696
      8 C         -22.6971   -7.6742  -16.1797 C.ar    1  UNL1        0.1675
      9 O         -21.7812   -8.1177  -17.1337 O.3     1  UNL1       -0.5029
     10 C         -23.7265   -6.8199  -16.5801 C.ar    1  UNL1        0.0398
     11 C         -24.6679   -6.3482  -15.6527 C.ar    1  UNL1        0.0030
     12 C         -24.5692   -6.7584  -14.3128 C.ar    1  UNL1        0.0006
     13 C         -23.5347   -7.6086  -13.8868 C.ar    1  UNL1        0.0347
     14 C         -23.5829   -8.1306  -12.4596 C.3     1  UNL1        0.1237
     15 H         -21.0128   -8.7345  -16.8989 H       1  UNL1        0.2923
     16 C         -25.7624   -5.4419  -16.0835 C.ar    1  UNL1        0.0016
     17 C         -26.7781   -5.0505  -15.1664 C.ar    1  UNL1        0.0016
     18 C         -27.8197   -4.1923  -15.5662 C.ar    1  UNL1        0.0206
     19 C         -27.8200   -3.7434  -16.8824 C.ar    1  UNL1        0.0985
     20 N         -28.7106   -2.9271  -17.4741 N.ar    1  UNL1       -0.2241
     21 C         -28.2326   -2.8278  -18.7426 C.ar    1  UNL1        0.1750
     22 N         -27.0995   -3.5407  -18.9508 N.ar    1  UNL1       -0.3349
     23 C         -26.8534   -4.1113  -17.7658 C.ar    1  UNL1        0.0757
     24 C         -25.8055   -4.9572  -17.4137 C.ar    1  UNL1        0.0185
     25 H         -26.5480   -3.6234  -19.8336 H       1  UNL1        0.1675
     26 C         -19.9845   -9.7271   -9.6473 C.ar    1  UNL1       -0.0165
     27 C         -18.8711  -10.5504   -9.4047 C.ar    1  UNL1        0.0142
     28 C         -18.7679  -11.8120  -10.0023 C.ar    1  UNL1        0.1054
     29 C         -19.7856  -12.2626  -10.8487 C.ar    1  UNL1        0.0185
     30 C         -20.8972  -11.4579  -11.1004 C.ar    1  UNL1        0.0055
     31 C         -21.0152  -10.1971  -10.4984 C.ar    1  UNL1        0.0497
     32 S         -17.3738  -12.8337   -9.6685 S.O2    1  UNL1        0.0104
     33 C         -15.9632  -11.8090   -9.3197 C.3     1  UNL1        0.1816
     34 O         -17.6569  -13.7170   -8.4856 O.2     1  UNL1       -0.1686
     35 O         -17.0840  -13.7023  -10.8604 O.2     1  UNL1       -0.1686
     36 C         -20.0052   -8.3417   -9.0333 C.3     1  UNL1        0.0265
     37 C         -19.1485   -8.1236   -6.6464 C.3     1  UNL1        0.0004
     38 C         -20.3608   -8.3782   -7.5403 C.3     1  UNL1        0.0047
@<TRIPOS>BOND
     1    37    38    1
     2    38    36    1
     3    36    26    1
     4    26    27   ar
     5    27    28   ar
     6    28    32    1
     7    32    33    1
     8    32    34    2
     9    32    35    2
    10    28    29   ar
    11    29    30   ar
    12    30    31   ar
    13    31     1    1
    14     1     2    2
    15     1     3   am
    16     3     4    1
    17     4     5    1
    18     5     6    1
    19     6     7    1
    20     7     8   ar
    21     8     9    1
    22     8    10   ar
    23    10    11   ar
    24    11    16    1
    25    16    17   ar
    26    17    18   ar
    27    18    19   ar
    28    19    20   ar
    29    20    21   ar
    30    21    22   ar
    31    22    23   ar
    32    23    24   ar
    33    11    12   ar
    34    12    13   ar
    35    13    14    1
    36    31    26   ar
    37    14     3    1
    38    13     7   ar
    39    24    16   ar
    40    23    19   ar
    41     9    15    1
    42    22    25    1
@<TRIPOS>MOLECULE
*****
 38 42 0 0 0
SMALL
GASTEIGER

@<TRIPOS>ATOM
      1 C         -21.9550   -6.6096  -11.4171 C.2     1  UNL1        0.2491
      2 O         -21.1853   -5.6129  -11.3544 O.2     1  UNL1       -0.2699
      3 N         -21.5825   -7.8488  -10.7811 N.am    1  UNL1       -0.2680
      4 C         -22.6131   -8.7284  -10.2171 C.3     1  UNL1        0.1412
      5 C         -22.8780   -9.8997  -11.1612 C.3     1  UNL1        0.2269
      6 O         -21.6765  -10.3546  -11.7808 O.3     1  UNL1       -0.4708
      7 C         -20.5187  -10.6308  -11.0496 C.ar    1  UNL1        0.1696
      8 C         -20.0564  -11.9556  -10.9803 C.ar    1  UNL1        0.1675
      9 O         -20.7257  -12.9867  -11.6395 O.3     1  UNL1       -0.5029
     10 C         -18.9175  -12.2615  -10.2326 C.ar    1  UNL1        0.0398
     11 C         -18.2154  -11.2553   -9.5519 C.ar    1  UNL1        0.0030
     12 C         -18.6671   -9.9283   -9.6430 C.ar    1  UNL1        0.0006
     13 C         -19.8171   -9.6005  -10.3808 C.ar    1  UNL1        0.0347
     14 C         -20.1543   -8.1287  -10.5593 C.3     1  UNL1        0.1237
     15 H         -21.5587  -12.8233  -12.1920 H       1  UNL1        0.2923
     16 C         -17.0032  -11.5849   -8.7600 C.ar    1  UNL1        0.0016
     17 C         -15.8943  -12.2322   -9.3740 C.ar    1  UNL1        0.0016
     18 C         -14.7416  -12.5489   -8.6310 C.ar    1  UNL1        0.0206
     19 C         -14.7258  -12.2082   -7.2829 C.ar    1  UNL1        0.0985
     20 N         -13.7394  -12.4159   -6.3922 N.ar    1  UNL1       -0.2241
     21 C         -14.2530  -11.8955   -5.2463 C.ar    1  UNL1        0.1750
     22 N         -15.4984  -11.3836   -5.3957 N.ar    1  UNL1       -0.3349
     23 C         -15.7804  -11.5889   -6.6875 C.ar    1  UNL1        0.0757
     24 C         -16.9392  -11.2569   -7.3836 C.ar    1  UNL1        0.0185
     25 H         -16.0971  -10.9332   -4.6683 H       1  UNL1        0.1675
     26 C         -23.4650   -7.1180  -13.3809 C.ar    1  UNL1       -0.0165
     27 C         -24.7156   -6.9662  -14.0048 C.ar    1  UNL1        0.0142
     28 C         -25.7177   -6.1819  -13.4218 C.ar    1  UNL1        0.1054
     29 C         -25.4753   -5.5431  -12.2018 C.ar    1  UNL1        0.0185
     30 C         -24.2394   -5.6830  -11.5695 C.ar    1  UNL1        0.0055
     31 C         -23.2328   -6.4750  -12.1398 C.ar    1  UNL1        0.0497
     32 S         -27.2829   -6.0221  -14.2115 S.O2    1  UNL1        0.0104
     33 C         -28.2382   -7.4946  -13.9278 C.3     1  UNL1        0.1816
     34 O         -28.0175   -4.8332  -13.6580 O.2     1  UNL1       -0.1686
     35 O         -27.0884   -5.8238  -15.6886 O.2     1  UNL1       -0.1686
     36 C         -22.3939   -7.9170  -14.0959 C.3     1  UNL1        0.0265
     37 C         -21.2871   -8.1751  -16.3734 C.3     1  UNL1        0.0004
     38 C         -22.5881   -7.9078  -15.6187 C.3     1  UNL1        0.0047
@<TRIPOS>BOND
     1    37    38    1
     2    38    36    1
     3    36    26    1
     4    26    27   ar
     5    27    28   ar
     6    28    32    1
     7    32    33    1
     8    32    34    2
     9    32    35    2
    10    28    29   ar
    11    29    30   ar
    12    30    31   ar
    13    31     1    1
    14     1     2    2
    15     1     3   am
    16     3     4    1
    17     4     5    1
    18     5     6    1
    19     6     7    1
    20     7     8   ar
    21     8     9    1
    22     8    10   ar
    23    10    11   ar
    24    11    16    1
    25    16    17   ar
    26    17    18   ar
    27    18    19   ar
    28    19    20   ar
    29    20    21   ar
    30    21    22   ar
    31    22    23   ar
    32    23    24   ar
    33    11    12   ar
    34    12    13   ar
    35    13    14    1
    36    31    26   ar
    37    14     3    1
    38    13     7   ar
    39    24    16   ar
    40    23    19   ar
    41     9    15    1
    42    22    25    1
@<TRIPOS>MOLECULE
*****
 38 42 0 0 0
SMALL
GASTEIGER

@<TRIPOS>ATOM
      1 C         -21.7005   -6.8118  -10.0575 C.2     1  UNL1        0.2491
      2 O         -22.5190   -5.8707   -9.8731 O.2     1  UNL1       -0.2699
      3 N         -21.4538   -7.3012  -11.3911 N.am    1  UNL1       -0.2680
      4 C         -20.1277   -7.8132  -11.7564 C.3     1  UNL1        0.1412
      5 C         -20.1377   -9.3407  -11.7619 C.3     1  UNL1        0.2269
      6 O         -21.3699   -9.8542  -12.2642 O.3     1  UNL1       -0.4708
      7 C         -21.9321   -9.4054  -13.4617 C.ar    1  UNL1        0.1696
      8 C         -22.0247  -10.2937  -14.5461 C.ar    1  UNL1        0.1675
      9 O         -21.5796  -11.6112  -14.4371 O.3     1  UNL1       -0.5029
     10 C         -22.5568   -9.8609  -15.7623 C.ar    1  UNL1        0.0398
     11 C         -23.0140   -8.5432  -15.9161 C.ar    1  UNL1        0.0030
     12 C         -22.9416   -7.6648  -14.8224 C.ar    1  UNL1        0.0006
     13 C         -22.3995   -8.0767  -13.5932 C.ar    1  UNL1        0.0347
     14 C         -22.4960   -7.1206  -12.4151 C.3     1  UNL1        0.1237
     15 H         -21.1812  -11.9775  -13.5809 H       1  UNL1        0.2923
     16 C         -23.5815   -8.0880  -17.2106 C.ar    1  UNL1        0.0016
     17 C         -23.9907   -6.7358  -17.3833 C.ar    1  UNL1        0.0016
     18 C         -24.5302   -6.2958  -18.6066 C.ar    1  UNL1        0.0206
     19 C         -24.6480   -7.2251  -19.6344 C.ar    1  UNL1        0.0985
     20 N         -25.1329   -7.0262  -20.8732 N.ar    1  UNL1       -0.2241
     21 C         -25.0160   -8.2543  -21.4439 C.ar    1  UNL1        0.1750
     22 N         -24.4860   -9.1867  -20.6163 N.ar    1  UNL1       -0.3349
     23 C         -24.2591   -8.5192  -19.4791 C.ar    1  UNL1        0.0757
     24 C         -23.7205   -8.9972  -18.2878 C.ar    1  UNL1        0.0185
     25 H         -24.2988  -10.1932  -20.8219 H       1  UNL1        0.1675
     26 C         -21.5962   -8.3858   -8.0809 C.ar    1  UNL1       -0.0165
     27 C         -20.8668   -8.9065   -6.9979 C.ar    1  UNL1        0.0142
     28 C         -19.5792   -8.4395   -6.7093 C.ar    1  UNL1        0.1054
     29 C         -19.0078   -7.4449   -7.5091 C.ar    1  UNL1        0.0185
     30 C         -19.7184   -6.9171   -8.5876 C.ar    1  UNL1        0.0055
     31 C         -21.0044   -7.3856   -8.8915 C.ar    1  UNL1        0.0497
     32 S         -18.6768   -9.1202   -5.3597 S.O2    1  UNL1        0.0104
     33 C         -17.5162   -7.9141   -4.7599 C.3     1  UNL1        0.1816
     34 O         -19.6196   -9.5027   -4.2533 O.2     1  UNL1       -0.1686
     35 O         -17.9390  -10.3495   -5.8110 O.2     1  UNL1       -0.1686
     36 C         -23.0137   -8.8758   -8.2987 C.3     1  UNL1        0.0265
     37 C         -24.2745   -9.9189  -10.2484 C.3     1  UNL1        0.0004
     38 C         -23.0756  -10.0307   -9.3082 C.3     1  UNL1        0.0047
@<TRIPOS>BOND
     1    37    38    1
     2    38    36    1
     3    36    26    1
     4    26    27   ar
     5    27    28   ar
     6    28    32    1
     7    32    33    1
     8    32    34    2
     9    32    35    2
    10    28    29   ar
    11    29    30   ar
    12    30    31   ar
    13    31     1    1
    14     1     2    2
    15     1     3   am
    16     3     4    1
    17     4     5    1
    18     5     6    1
    19     6     7    1
    20     7     8   ar
    21     8     9    1
    22     8    10   ar
    23    10    11   ar
    24    11    16    1
    25    16    17   ar
    26    17    18   ar
    27    18    19   ar
    28    19    20   ar
    29    20    21   ar
    30    21    22   ar
    31    22    23   ar
    32    23    24   ar
    33    11    12   ar
    34    12    13   ar
    35    13    14    1
    36    31    26   ar
    37    14     3    1
    38    13     7   ar
    39    24    16   ar
    40    23    19   ar
    41     9    15    1
    42    22    25    1
@<TRIPOS>MOLECULE
*****
 38 42 0 0 0
SMALL
GASTEIGER

@<TRIPOS>ATOM
      1 C         -26.2732   -5.8965  -15.0699 C.2     1  UNL1        0.2491
      2 O         -25.7251   -6.2126  -16.1604 O.2     1  UNL1       -0.2699
      3 N         -25.6373   -6.2319  -13.8200 N.am    1  UNL1       -0.2680
      4 C         -25.7928   -5.3549  -12.6536 C.3     1  UNL1        0.1412
      5 C         -26.8191   -5.9431  -11.6872 C.3     1  UNL1        0.2269
      6 O         -26.7234   -7.3648  -11.6237 O.3     1  UNL1       -0.4708
      7 C         -25.5065   -8.0223  -11.4282 C.ar    1  UNL1        0.1696
      8 C         -25.3030   -8.7397  -10.2376 C.ar    1  UNL1        0.1675
      9 O         -26.2988   -8.8148   -9.2637 O.3     1  UNL1       -0.5029
     10 C         -24.0849   -9.3818  -10.0065 C.ar    1  UNL1        0.0398
     11 C         -23.0553   -9.3298  -10.9584 C.ar    1  UNL1        0.0030
     12 C         -23.2711   -8.6314  -12.1579 C.ar    1  UNL1        0.0006
     13 C         -24.4852   -7.9689  -12.4057 C.ar    1  UNL1        0.0347
     14 C         -24.7006   -7.3671  -13.7852 C.3     1  UNL1        0.1237
     15 H         -27.1993   -8.3650   -9.3763 H       1  UNL1        0.2923
     16 C         -21.7624  -10.0163  -10.7095 C.ar    1  UNL1        0.0016
     17 C         -21.4630  -11.2478  -11.3571 C.ar    1  UNL1        0.0016
     18 C         -20.2403  -11.9059  -11.1266 C.ar    1  UNL1        0.0206
     19 C         -19.3406  -11.3121  -10.2481 C.ar    1  UNL1        0.0985
     20 N         -18.1268  -11.7623   -9.8829 N.ar    1  UNL1       -0.2241
     21 C         -17.6973  -10.8052   -9.0186 C.ar    1  UNL1        0.1750
     22 N         -18.5868   -9.7989   -8.8408 N.ar    1  UNL1       -0.3349
     23 C         -19.6174  -10.1351   -9.6250 C.ar    1  UNL1        0.0757
     24 C         -20.8130   -9.4503   -9.8237 C.ar    1  UNL1        0.0185
     25 H         -18.4875   -8.9567   -8.2316 H       1  UNL1        0.1675
     26 C         -27.7799   -4.0743  -15.9668 C.ar    1  UNL1       -0.0165
     27 C         -29.0387   -3.4482  -15.9658 C.ar    1  UNL1        0.0142
     28 C         -30.0603   -3.8925  -15.1183 C.ar    1  UNL1        0.1054
     29 C         -29.8293   -4.9748  -14.2636 C.ar    1  UNL1        0.0185
     30 C         -28.5857   -5.6071  -14.2518 C.ar    1  UNL1        0.0055
     31 C         -27.5592   -5.1766  -15.1044 C.ar    1  UNL1        0.0497
     32 S         -31.6347   -3.1056  -15.1483 S.O2    1  UNL1        0.0104
     33 C         -32.8736   -4.2464  -14.5781 C.3     1  UNL1        0.1816
     34 O         -31.6198   -1.8948  -14.2578 O.2     1  UNL1       -0.1686
     35 O         -31.9576   -2.6694  -16.5500 O.2     1  UNL1       -0.1686
     36 C         -26.6898   -3.5019  -16.8505 C.3     1  UNL1        0.0265
     37 C         -26.1090   -4.7402  -18.9971 C.3     1  UNL1        0.0004
     38 C         -27.0008   -3.6868  -18.3424 C.3     1  UNL1        0.0047
@<TRIPOS>BOND
     1    37    38    1
     2    38    36    1
     3    36    26    1
     4    26    27   ar
     5    27    28   ar
     6    28    32    1
     7    32    33    1
     8    32    34    2
     9    32    35    2
    10    28    29   ar
    11    29    30   ar
    12    30    31   ar
    13    31     1    1
    14     1     2    2
    15     1     3   am
    16     3     4    1
    17     4     5    1
    18     5     6    1
    19     6     7    1
    20     7     8   ar
    21     8     9    1
    22     8    10   ar
    23    10    11   ar
    24    11    16    1
    25    16    17   ar
    26    17    18   ar
    27    18    19   ar
    28    19    20   ar
    29    20    21   ar
    30    21    22   ar
    31    22    23   ar
    32    23    24   ar
    33    11    12   ar
    34    12    13   ar
    35    13    14    1
    36    31    26   ar
    37    14     3    1
    38    13     7   ar
    39    24    16   ar
    40    23    19   ar
    41     9    15    1
    42    22    25    1
@<TRIPOS>MOLECULE
*****
 38 42 0 0 0
SMALL
GASTEIGER

@<TRIPOS>ATOM
      1 C         -26.0927   -6.0334  -14.9321 C.2     1  UNL1        0.2491
      2 O         -25.4790   -6.3107  -15.9980 O.2     1  UNL1       -0.2699
      3 N         -25.4863   -6.3208  -13.6559 N.am    1  UNL1       -0.2680
      4 C         -25.7520   -5.4557  -12.5005 C.3     1  UNL1        0.1412
      5 C         -26.7724   -6.1149  -11.5744 C.3     1  UNL1        0.2269
      6 O         -26.5777   -7.5260  -11.5010 O.3     1  UNL1       -0.4708
      7 C         -25.3259   -8.0942  -11.2532 C.ar    1  UNL1        0.1696
      8 C         -25.1206   -8.7936  -10.0523 C.ar    1  UNL1        0.1675
      9 O         -26.1476   -8.9387   -9.1196 O.3     1  UNL1       -0.5029
     10 C         -23.8701   -9.3464   -9.7689 C.ar    1  UNL1        0.0398
     11 C         -22.8087   -9.2217  -10.6781 C.ar    1  UNL1        0.0030
     12 C         -23.0245   -8.5421  -11.8883 C.ar    1  UNL1        0.0006
     13 C         -24.2718   -7.9688  -12.1883 C.ar    1  UNL1        0.0347
     14 C         -24.4729   -7.3858  -13.5779 C.3     1  UNL1        0.1237
     15 H         -27.0727   -8.5549   -9.2708 H       1  UNL1        0.2923
     16 C         -21.4812   -9.8134  -10.3736 C.ar    1  UNL1        0.0016
     17 C         -20.5259   -9.0870   -9.6084 C.ar    1  UNL1        0.0016
     18 C         -19.2650   -9.6397   -9.3156 C.ar    1  UNL1        0.0206
     19 C         -18.9883  -10.9142   -9.7983 C.ar    1  UNL1        0.0985
     20 N         -17.8585  -11.6271   -9.6416 N.ar    1  UNL1       -0.2241
     21 C         -18.1328  -12.7783  -10.3102 C.ar    1  UNL1        0.1750
     22 N         -19.3692  -12.8005  -10.8637 N.ar    1  UNL1       -0.3349
     23 C         -19.8951  -11.6163  -10.5298 C.ar    1  UNL1        0.0757
     24 C         -21.1530  -11.1090  -10.8425 C.ar    1  UNL1        0.0185
     25 H         -19.8075  -13.5668  -11.4215 H       1  UNL1        0.1675
     26 C         -27.6781   -4.2998  -15.8682 C.ar    1  UNL1       -0.0165
     27 C         -28.9778   -3.7667  -15.9236 C.ar    1  UNL1        0.0142
     28 C         -30.0090   -4.3081  -15.1472 C.ar    1  UNL1        0.1054
     29 C         -29.7462   -5.3951  -14.3077 C.ar    1  UNL1        0.0185
     30 C         -28.4619   -5.9359  -14.2405 C.ar    1  UNL1        0.0055
     31 C         -27.4245   -5.4078  -15.0222 C.ar    1  UNL1        0.0497
     32 S         -31.6332   -3.6366  -15.2476 S.O2    1  UNL1        0.0104
     33 C         -31.8161   -2.3543  -14.0296 C.3     1  UNL1        0.1816
     34 O         -31.8676   -3.0643  -16.6176 O.2     1  UNL1       -0.1686
     35 O         -32.6461   -4.7185  -14.9972 O.2     1  UNL1       -0.1686
     36 C         -26.5861   -3.6248  -16.6736 C.3     1  UNL1        0.0265
     37 C         -26.0672   -4.8044  -18.8686 C.3     1  UNL1        0.0004
     38 C         -26.8581   -3.6917  -18.1830 C.3     1  UNL1        0.0047
@<TRIPOS>BOND
     1    37    38    1
     2    38    36    1
     3    36    26    1
     4    26    27   ar
     5    27    28   ar
     6    28    32    1
     7    32    33    1
     8    32    34    2
     9    32    35    2
    10    28    29   ar
    11    29    30   ar
    12    30    31   ar
    13    31     1    1
    14     1     2    2
    15     1     3   am
    16     3     4    1
    17     4     5    1
    18     5     6    1
    19     6     7    1
    20     7     8   ar
    21     8     9    1
    22     8    10   ar
    23    10    11   ar
    24    11    16    1
    25    16    17   ar
    26    17    18   ar
    27    18    19   ar
    28    19    20   ar
    29    20    21   ar
    30    21    22   ar
    31    22    23   ar
    32    23    24   ar
    33    11    12   ar
    34    12    13   ar
    35    13    14    1
    36    31    26   ar
    37    14     3    1
    38    13     7   ar
    39    24    16   ar
    40    23    19   ar
    41     9    15    1
    42    22    25    1
