@<TRIPOS>MOLECULE
*****
 28 30 0 0 0
SMALL
GASTEIGER

@<TRIPOS>ATOM
      1 C         -15.2466    1.4037  -13.1420 C.ar    1  UNL1        0.3134
      2 N         -16.2573    2.2920  -13.0756 N.ar    1  UNL1       -0.1854
      3 C         -16.9105    1.8637  -11.9756 C.ar    1  UNL1        0.2051
      4 N         -16.3402    0.7760  -11.4221 N.ar    1  UNL1       -0.0582
      5 O         -15.3098    0.5262  -12.1706 O.2     1  UNL1       -0.3279
      6 O         -13.1045    1.9743  -13.9389 O.2     1  UNL1       -0.2649
      7 C         -14.2061    1.4102  -14.1777 C.2     1  UNL1        0.3025
      8 N         -14.4373    0.7833  -15.4480 N.am    1  UNL1       -0.2930
      9 H         -15.3717    0.3618  -15.6508 H       1  UNL1        0.1502
     10 C         -13.4091    0.7106  -16.4837 C.3     1  UNL1        0.1168
     11 C         -14.0453    0.6293  -17.8443 C.ar    1  UNL1        0.0005
     12 C         -14.5568    1.7778  -18.4663 C.ar    1  UNL1        0.0181
     13 C         -15.1232    1.6757  -19.7394 C.ar    1  UNL1        0.0986
     14 N         -15.1731    0.4721  -20.3696 N.ar    1  UNL1       -0.2423
     15 C         -14.6805   -0.6557  -19.7920 C.ar    1  UNL1        0.0986
     16 C         -14.1056   -0.5980  -18.5201 C.ar    1  UNL1        0.0181
     17 C         -18.1746    2.4797  -11.4741 C.3     1  UNL1        0.2245
     18 S         -19.5390    2.0291  -12.5286 S.O2    1  UNL1        0.0163
     19 O         -19.3388    0.6344  -13.0533 O.2     1  UNL1       -0.1682
     20 O         -19.6184    2.9762  -13.6936 O.2     1  UNL1       -0.1682
     21 C         -21.0329    2.1052  -11.6012 C.ar    1  UNL1        0.1092
     22 C         -22.2477    1.7240  -12.1882 C.ar    1  UNL1        0.0186
     23 C         -23.4314    1.7708  -11.4459 C.ar    1  UNL1        0.0044
     24 C         -23.4070    2.1926  -10.1135 C.ar    1  UNL1        0.0367
     25 C         -22.1947    2.5667   -9.5173 C.ar    1  UNL1        0.1350
     26 O         -22.1559    2.9839   -8.1888 O.3     1  UNL1       -0.5055
     27 C         -21.0103    2.5198  -10.2616 C.ar    1  UNL1        0.0550
     28 H         -22.9955    3.0284   -7.6231 H       1  UNL1        0.2922
@<TRIPOS>BOND
     1     6     7    2
     2     7     8   am
     3     8    10    1
     4    10    11    1
     5    11    12   ar
     6    12    13   ar
     7    13    14   ar
     8    14    15   ar
     9    15    16   ar
    10     7     1    1
    11     1     2   ar
    12     2     3   ar
    13     3    17    1
    14    17    18    1
    15    18    19    2
    16    18    20    2
    17    18    21    1
    18    21    22   ar
    19    22    23   ar
    20    23    24   ar
    21    24    25   ar
    22    25    26    1
    23    25    27   ar
    24     3     4   ar
    25     4     5   ar
    26    16    11   ar
    27     5     1   ar
    28    27    21   ar
    29     8     9    1
    30    26    28    1
@<TRIPOS>MOLECULE
*****
 28 30 0 0 0
SMALL
GASTEIGER

@<TRIPOS>ATOM
      1 C         -13.9744    0.7017  -15.6130 C.ar    1  UNL1        0.3134
      2 N         -14.7985    0.6147  -16.6753 N.ar    1  UNL1       -0.1854
      3 C         -13.9727    0.0919  -17.6052 C.ar    1  UNL1        0.2051
      4 N         -12.7249   -0.1089  -17.1392 N.ar    1  UNL1       -0.0582
      5 O         -12.7688    0.2760  -15.9006 O.2     1  UNL1       -0.3279
      6 O         -14.0716    2.3998  -13.9832 O.2     1  UNL1       -0.2649
      7 C         -14.3725    1.2167  -14.2970 C.2     1  UNL1        0.3025
      8 N         -15.0951    0.3856  -13.3766 N.am    1  UNL1       -0.2930
      9 H         -15.2957   -0.6081  -13.6297 H       1  UNL1        0.1502
     10 C         -15.5660    0.8759  -12.0832 C.3     1  UNL1        0.1168
     11 C         -16.8604    1.6240  -12.2497 C.ar    1  UNL1        0.0005
     12 C         -17.9436    1.0412  -12.9240 C.ar    1  UNL1        0.0181
     13 C         -19.1405    1.7516  -13.0451 C.ar    1  UNL1        0.0986
     14 N         -19.2530    2.9958  -12.5090 N.ar    1  UNL1       -0.2423
     15 C         -18.2208    3.5822  -11.8464 C.ar    1  UNL1        0.0986
     16 C         -17.0065    2.9068  -11.7023 C.ar    1  UNL1        0.0181
     17 C         -14.3772   -0.1603  -19.0200 C.3     1  UNL1        0.2245
     18 S         -14.6072    1.3846  -19.8786 S.O2    1  UNL1        0.0163
     19 O         -13.2971    1.8493  -20.4517 O.2     1  UNL1       -0.1682
     20 O         -15.1137    2.4293  -18.9233 O.2     1  UNL1       -0.1682
     21 C         -15.7738    1.1539  -21.1762 C.ar    1  UNL1        0.1092
     22 C         -15.9483   -0.1130  -21.7507 C.ar    1  UNL1        0.0186
     23 C         -16.8858   -0.2980  -22.7711 C.ar    1  UNL1        0.0044
     24 C         -17.6567    0.7786  -23.2185 C.ar    1  UNL1        0.0367
     25 C         -17.4939    2.0463  -22.6424 C.ar    1  UNL1        0.1350
     26 O         -18.2595    3.1264  -23.0755 O.3     1  UNL1       -0.5055
     27 C         -16.5547    2.2305  -21.6212 C.ar    1  UNL1        0.0550
     28 H         -18.9480    3.0258  -23.8122 H       1  UNL1        0.2922
@<TRIPOS>BOND
     1     6     7    2
     2     7     8   am
     3     8    10    1
     4    10    11    1
     5    11    12   ar
     6    12    13   ar
     7    13    14   ar
     8    14    15   ar
     9    15    16   ar
    10     7     1    1
    11     1     2   ar
    12     2     3   ar
    13     3    17    1
    14    17    18    1
    15    18    19    2
    16    18    20    2
    17    18    21    1
    18    21    22   ar
    19    22    23   ar
    20    23    24   ar
    21    24    25   ar
    22    25    26    1
    23    25    27   ar
    24     3     4   ar
    25     4     5   ar
    26    16    11   ar
    27     5     1   ar
    28    27    21   ar
    29     8     9    1
    30    26    28    1
@<TRIPOS>MOLECULE
*****
 28 30 0 0 0
SMALL
GASTEIGER

@<TRIPOS>ATOM
      1 C         -20.4404   -7.4967   -8.7065 C.ar    1  UNL1        0.3134
      2 N         -20.4424   -7.7399  -10.0316 N.ar    1  UNL1       -0.1854
      3 C         -21.1232   -6.6705  -10.4931 C.ar    1  UNL1        0.2051
      4 N         -21.5213   -5.8423   -9.5080 N.ar    1  UNL1       -0.0582
      5 O         -21.0740   -6.3864   -8.4180 O.2     1  UNL1       -0.3279
      6 O         -19.1508   -9.3698   -8.0919 O.2     1  UNL1       -0.2649
      7 C         -19.8136   -8.3696   -7.7061 C.2     1  UNL1        0.3025
      8 N         -19.9525   -8.0905   -6.3050 N.am    1  UNL1       -0.2930
      9 H         -20.5446   -7.2865   -5.9973 H       1  UNL1        0.1502
     10 C         -19.2943   -8.8946   -5.2778 C.3     1  UNL1        0.1168
     11 C         -17.8699   -8.4456   -5.0982 C.ar    1  UNL1        0.0005
     12 C         -16.8984   -9.3256   -4.5991 C.ar    1  UNL1        0.0181
     13 C         -15.5788   -8.8872   -4.4628 C.ar    1  UNL1        0.0986
     14 N         -15.2412   -7.6185   -4.8159 N.ar    1  UNL1       -0.2423
     15 C         -16.1616   -6.7466   -5.3067 C.ar    1  UNL1        0.0986
     16 C         -17.4922   -7.1442   -5.4592 C.ar    1  UNL1        0.0181
     17 C         -21.4681   -6.4695  -11.9317 C.3     1  UNL1        0.2245
     18 S         -22.7074   -7.6465  -12.4373 S.O2    1  UNL1        0.0163
     19 O         -24.0040   -6.9359  -12.7102 O.2     1  UNL1       -0.1682
     20 O         -22.9304   -8.6545  -11.3443 O.2     1  UNL1       -0.1682
     21 C         -22.1617   -8.4662  -13.8961 C.ar    1  UNL1        0.1092
     22 C         -22.5456   -9.7913  -14.1460 C.ar    1  UNL1        0.0186
     23 C         -22.1237  -10.4363  -15.3124 C.ar    1  UNL1        0.0044
     24 C         -21.3219   -9.7603  -16.2364 C.ar    1  UNL1        0.0367
     25 C         -20.9417   -8.4323  -15.9973 C.ar    1  UNL1        0.1350
     26 O         -20.1473   -7.7456  -16.9127 O.3     1  UNL1       -0.5055
     27 C         -21.3644   -7.7877  -14.8291 C.ar    1  UNL1        0.0550
     28 H         -19.8254   -8.1838  -17.7678 H       1  UNL1        0.2922
@<TRIPOS>BOND
     1     6     7    2
     2     7     8   am
     3     8    10    1
     4    10    11    1
     5    11    12   ar
     6    12    13   ar
     7    13    14   ar
     8    14    15   ar
     9    15    16   ar
    10     7     1    1
    11     1     2   ar
    12     2     3   ar
    13     3    17    1
    14    17    18    1
    15    18    19    2
    16    18    20    2
    17    18    21    1
    18    21    22   ar
    19    22    23   ar
    20    23    24   ar
    21    24    25   ar
    22    25    26    1
    23    25    27   ar
    24     3     4   ar
    25     4     5   ar
    26    16    11   ar
    27     5     1   ar
    28    27    21   ar
    29     8     9    1
    30    26    28    1
@<TRIPOS>MOLECULE
*****
 28 30 0 0 0
SMALL
GASTEIGER

@<TRIPOS>ATOM
      1 C         -13.8045    0.0494  -17.3559 C.ar    1  UNL1        0.3134
      2 N         -14.6327    0.9303  -16.7618 N.ar    1  UNL1       -0.1854
      3 C         -13.9432    1.2222  -15.6395 C.ar    1  UNL1        0.2051
      4 N         -12.7801    0.5482  -15.5533 N.ar    1  UNL1       -0.0582
      5 O         -12.7288   -0.1626  -16.6379 O.2     1  UNL1       -0.3279
      6 O         -14.2726   -1.8447  -18.6759 O.2     1  UNL1       -0.2649
      7 C         -14.0742   -0.6004  -18.6446 C.2     1  UNL1        0.3025
      8 N         -14.1116    0.1688  -19.8558 N.am    1  UNL1       -0.2930
      9 H         -13.8974    1.1910  -19.8224 H       1  UNL1        0.1502
     10 C         -14.4383   -0.4250  -21.1503 C.3     1  UNL1        0.1168
     11 C         -15.6627    0.2296  -21.7293 C.ar    1  UNL1        0.0005
     12 C         -16.6255   -0.5281  -22.4121 C.ar    1  UNL1        0.0181
     13 C         -17.7631    0.1035  -22.9209 C.ar    1  UNL1        0.0986
     14 N         -17.9348    1.4413  -22.7505 N.ar    1  UNL1       -0.2423
     15 C         -17.0199    2.1985  -22.0886 C.ar    1  UNL1        0.0986
     16 C         -15.8684    1.6068  -21.5639 C.ar    1  UNL1        0.0181
     17 C         -14.4528    2.1316  -14.5708 C.3     1  UNL1        0.2245
     18 S         -15.0825    1.1797  -13.2019 S.O2    1  UNL1        0.0163
     19 O         -14.1640    1.3178  -12.0196 O.2     1  UNL1       -0.1682
     20 O         -15.1628   -0.2723  -13.5836 O.2     1  UNL1       -0.1682
     21 C         -16.6859    1.7700  -12.7795 C.ar    1  UNL1        0.1092
     22 C         -16.8349    3.0038  -12.1304 C.ar    1  UNL1        0.0186
     23 C         -18.1099    3.4785  -11.8088 C.ar    1  UNL1        0.0044
     24 C         -19.2414    2.7269  -12.1384 C.ar    1  UNL1        0.0367
     25 C         -19.1005    1.4966  -12.7954 C.ar    1  UNL1        0.1350
     26 O         -20.2203    0.7404  -13.1341 O.3     1  UNL1       -0.5055
     27 C         -17.8235    1.0222  -13.1165 C.ar    1  UNL1        0.0550
     28 H         -21.1581    1.0562  -12.9161 H       1  UNL1        0.2922
@<TRIPOS>BOND
     1     6     7    2
     2     7     8   am
     3     8    10    1
     4    10    11    1
     5    11    12   ar
     6    12    13   ar
     7    13    14   ar
     8    14    15   ar
     9    15    16   ar
    10     7     1    1
    11     1     2   ar
    12     2     3   ar
    13     3    17    1
    14    17    18    1
    15    18    19    2
    16    18    20    2
    17    18    21    1
    18    21    22   ar
    19    22    23   ar
    20    23    24   ar
    21    24    25   ar
    22    25    26    1
    23    25    27   ar
    24     3     4   ar
    25     4     5   ar
    26    16    11   ar
    27     5     1   ar
    28    27    21   ar
    29     8     9    1
    30    26    28    1
@<TRIPOS>MOLECULE
*****
 28 30 0 0 0
SMALL
GASTEIGER

@<TRIPOS>ATOM
      1 C         -20.5034   -7.5261   -8.6277 C.ar    1  UNL1        0.3134
      2 N         -20.7095   -7.8387   -9.9218 N.ar    1  UNL1       -0.1854
      3 C         -21.3525   -6.7359  -10.3584 C.ar    1  UNL1        0.2051
      4 N         -21.5376   -5.8222   -9.3861 N.ar    1  UNL1       -0.0582
      5 O         -20.9927   -6.3469   -8.3315 O.2     1  UNL1       -0.3279
      6 O         -19.1261   -9.3600   -8.0898 O.2     1  UNL1       -0.2649
      7 C         -19.8223   -8.3994   -7.6639 C.2     1  UNL1        0.3025
      8 N         -19.9461   -8.1655   -6.2532 N.am    1  UNL1       -0.2930
      9 H         -20.5651   -7.3958   -5.9122 H       1  UNL1        0.1502
     10 C         -19.2360   -8.9696   -5.2612 C.3     1  UNL1        0.1168
     11 C         -17.8165   -8.4914   -5.1227 C.ar    1  UNL1        0.0005
     12 C         -17.4698   -7.1715   -5.4472 C.ar    1  UNL1        0.0181
     13 C         -16.1475   -6.7493   -5.2885 C.ar    1  UNL1        0.0986
     14 N         -15.2072   -7.6118   -4.8192 N.ar    1  UNL1       -0.2423
     15 C         -15.5169   -8.8947   -4.4925 C.ar    1  UNL1        0.0986
     16 C         -16.8271   -9.3577   -4.6358 C.ar    1  UNL1        0.0181
     17 C         -21.8741   -6.5807  -11.7487 C.3     1  UNL1        0.2245
     18 S         -22.7124   -8.0680  -12.2607 S.O2    1  UNL1        0.0163
     19 O         -21.8016   -9.2517  -12.0881 O.2     1  UNL1       -0.1682
     20 O         -23.0984   -7.9633  -13.7100 O.2     1  UNL1       -0.1682
     21 C         -24.1565   -8.2823  -11.2776 C.ar    1  UNL1        0.1092
     22 C         -25.3734   -7.7128  -11.6782 C.ar    1  UNL1        0.0186
     23 C         -26.5229   -7.8963  -10.9041 C.ar    1  UNL1        0.0044
     24 C         -26.4643   -8.6531   -9.7305 C.ar    1  UNL1        0.0367
     25 C         -25.2530   -9.2330   -9.3285 C.ar    1  UNL1        0.1350
     26 O         -25.1822   -9.9939   -8.1638 O.3     1  UNL1       -0.5055
     27 C         -24.1026   -9.0483  -10.1041 C.ar    1  UNL1        0.0550
     28 H         -25.9969  -10.1467   -7.5809 H       1  UNL1        0.2922
@<TRIPOS>BOND
     1     6     7    2
     2     7     8   am
     3     8    10    1
     4    10    11    1
     5    11    12   ar
     6    12    13   ar
     7    13    14   ar
     8    14    15   ar
     9    15    16   ar
    10     7     1    1
    11     1     2   ar
    12     2     3   ar
    13     3    17    1
    14    17    18    1
    15    18    19    2
    16    18    20    2
    17    18    21    1
    18    21    22   ar
    19    22    23   ar
    20    23    24   ar
    21    24    25   ar
    22    25    26    1
    23    25    27   ar
    24     3     4   ar
    25     4     5   ar
    26    16    11   ar
    27     5     1   ar
    28    27    21   ar
    29     8     9    1
    30    26    28    1
@<TRIPOS>MOLECULE
*****
 28 30 0 0 0
SMALL
GASTEIGER

@<TRIPOS>ATOM
      1 C         -20.3529   -8.7601   -9.6398 C.ar    1  UNL1        0.3134
      2 N         -20.8828   -9.9898   -9.7885 N.ar    1  UNL1       -0.1854
      3 C         -20.8972  -10.1081  -11.1323 C.ar    1  UNL1        0.2051
      4 N         -20.4214   -9.0131  -11.7562 N.ar    1  UNL1       -0.0582
      5 O         -20.0898   -8.2041  -10.7971 O.2     1  UNL1       -0.3279
      6 O         -20.5302   -6.9456   -8.1481 O.2     1  UNL1       -0.2649
      7 C         -20.1066   -8.1165   -8.3434 C.2     1  UNL1        0.3025
      8 N         -19.3920   -8.8092   -7.3091 N.am    1  UNL1       -0.2930
      9 H         -19.0042   -9.7603   -7.5008 H       1  UNL1        0.1502
     10 C         -19.1792   -8.2323   -5.9837 C.3     1  UNL1        0.1168
     11 C         -17.8247   -8.6215   -5.4577 C.ar    1  UNL1        0.0005
     12 C         -17.4419   -9.9692   -5.3904 C.ar    1  UNL1        0.0181
     13 C         -16.1696  -10.2997   -4.9172 C.ar    1  UNL1        0.0986
     14 N         -15.3099   -9.3203   -4.5298 N.ar    1  UNL1       -0.2423
     15 C         -15.6532   -8.0062   -4.5892 C.ar    1  UNL1        0.0986
     16 C         -16.9156   -7.6321   -5.0562 C.ar    1  UNL1        0.0181
     17 C         -21.4556  -11.2916  -11.8508 C.3     1  UNL1        0.2245
     18 S         -22.8714  -10.8106  -12.8208 S.O2    1  UNL1        0.0163
     19 O         -22.4530   -9.8319  -13.8827 O.2     1  UNL1       -0.1682
     20 O         -23.8967  -10.1555  -11.9377 O.2     1  UNL1       -0.1682
     21 C         -23.5664  -12.2416  -13.5737 C.ar    1  UNL1        0.1092
     22 C         -22.7523  -13.1227  -14.2995 C.ar    1  UNL1        0.0186
     23 C         -23.3029  -14.2668  -14.8844 C.ar    1  UNL1        0.0044
     24 C         -24.6665  -14.5394  -14.7430 C.ar    1  UNL1        0.0367
     25 C         -25.4848  -13.6676  -14.0112 C.ar    1  UNL1        0.1350
     26 O         -26.8443  -13.9305  -13.8583 O.3     1  UNL1       -0.5055
     27 C         -24.9326  -12.5223  -13.4263 C.ar    1  UNL1        0.0550
     28 H         -27.2742  -14.7512  -14.2688 H       1  UNL1        0.2922
@<TRIPOS>BOND
     1     6     7    2
     2     7     8   am
     3     8    10    1
     4    10    11    1
     5    11    12   ar
     6    12    13   ar
     7    13    14   ar
     8    14    15   ar
     9    15    16   ar
    10     7     1    1
    11     1     2   ar
    12     2     3   ar
    13     3    17    1
    14    17    18    1
    15    18    19    2
    16    18    20    2
    17    18    21    1
    18    21    22   ar
    19    22    23   ar
    20    23    24   ar
    21    24    25   ar
    22    25    26    1
    23    25    27   ar
    24     3     4   ar
    25     4     5   ar
    26    16    11   ar
    27     5     1   ar
    28    27    21   ar
    29     8     9    1
    30    26    28    1
@<TRIPOS>MOLECULE
*****
 28 30 0 0 0
SMALL
GASTEIGER

@<TRIPOS>ATOM
      1 C         -20.0451   -7.5809   -8.0631 C.ar    1  UNL1        0.3134
      2 N         -19.9250   -8.4614   -9.0757 N.ar    1  UNL1       -0.1854
      3 C         -20.7071   -7.8893  -10.0144 C.ar    1  UNL1        0.2051
      4 N         -21.2764   -6.7445   -9.5902 N.ar    1  UNL1       -0.0582
      5 O         -20.8370   -6.5857   -8.3794 O.2     1  UNL1       -0.3279
      6 O         -18.3480   -7.0355   -6.5230 O.2     1  UNL1       -0.2649
      7 C         -19.3789   -7.7202   -6.7622 C.2     1  UNL1        0.3025
      8 N         -19.8923   -8.6245   -5.7728 N.am    1  UNL1       -0.2930
      9 H         -20.7186   -9.2216   -6.0017 H       1  UNL1        0.1502
     10 C         -19.2994   -8.7485   -4.4431 C.3     1  UNL1        0.1168
     11 C         -17.8579   -9.1645   -4.5525 C.ar    1  UNL1        0.0005
     12 C         -17.5104  -10.4095   -5.0971 C.ar    1  UNL1        0.0181
     13 C         -16.1624  -10.7602   -5.2056 C.ar    1  UNL1        0.0986
     14 N         -15.1972   -9.8979   -4.7896 N.ar    1  UNL1       -0.2423
     15 C         -15.5058   -8.6832   -4.2627 C.ar    1  UNL1        0.0986
     16 C         -16.8412   -8.2929   -4.1363 C.ar    1  UNL1        0.0181
     17 C         -20.9765   -8.5014  -11.3492 C.3     1  UNL1        0.2245
     18 S         -22.1319   -9.8486  -11.1861 S.O2    1  UNL1        0.0163
     19 O         -23.4117   -9.5118  -11.8997 O.2     1  UNL1       -0.1682
     20 O         -22.4376  -10.0862   -9.7333 O.2     1  UNL1       -0.1682
     21 C         -21.4261  -11.3004  -11.8874 C.ar    1  UNL1        0.1092
     22 C         -21.8466  -11.7518  -13.1464 C.ar    1  UNL1        0.0186
     23 C         -21.2745  -12.8966  -13.7089 C.ar    1  UNL1        0.0044
     24 C         -20.2769  -13.5924  -13.0202 C.ar    1  UNL1        0.0367
     25 C         -19.8451  -13.1418  -11.7649 C.ar    1  UNL1        0.1350
     26 O         -18.8481  -13.8231  -11.0705 O.3     1  UNL1       -0.5055
     27 C         -20.4189  -11.9957  -11.2026 C.ar    1  UNL1        0.0550
     28 H         -18.4125  -14.6555  -11.4504 H       1  UNL1        0.2922
@<TRIPOS>BOND
     1     6     7    2
     2     7     8   am
     3     8    10    1
     4    10    11    1
     5    11    12   ar
     6    12    13   ar
     7    13    14   ar
     8    14    15   ar
     9    15    16   ar
    10     7     1    1
    11     1     2   ar
    12     2     3   ar
    13     3    17    1
    14    17    18    1
    15    18    19    2
    16    18    20    2
    17    18    21    1
    18    21    22   ar
    19    22    23   ar
    20    23    24   ar
    21    24    25   ar
    22    25    26    1
    23    25    27   ar
    24     3     4   ar
    25     4     5   ar
    26    16    11   ar
    27     5     1   ar
    28    27    21   ar
    29     8     9    1
    30    26    28    1
@<TRIPOS>MOLECULE
*****
 28 30 0 0 0
SMALL
GASTEIGER

@<TRIPOS>ATOM
      1 C         -20.2341   -9.0431   -9.0809 C.ar    1  UNL1        0.3134
      2 N         -21.4481   -9.4668   -9.4829 N.ar    1  UNL1       -0.1854
      3 C         -21.1484  -10.0310  -10.6711 C.ar    1  UNL1        0.2051
      4 N         -19.8393   -9.9395  -10.9752 N.ar    1  UNL1       -0.0582
      5 O         -19.3069   -9.3263   -9.9628 O.2     1  UNL1       -0.3279
      6 O         -20.1257   -7.0925   -7.7646 O.2     1  UNL1       -0.2649
      7 C         -19.9791   -8.3433   -7.8156 C.2     1  UNL1        0.3025
      8 N         -19.5673   -9.0716   -6.6494 N.am    1  UNL1       -0.2930
      9 H         -19.4025  -10.1011   -6.7179 H       1  UNL1        0.1502
     10 C         -19.3639   -8.4256   -5.3546 C.3     1  UNL1        0.1168
     11 C         -17.8978   -8.1873   -5.1162 C.ar    1  UNL1        0.0005
     12 C         -17.0925   -9.1853   -4.5479 C.ar    1  UNL1        0.0181
     13 C         -15.7297   -8.9433   -4.3577 C.ar    1  UNL1        0.0986
     14 N         -15.1904   -7.7507   -4.7252 N.ar    1  UNL1       -0.2423
     15 C         -15.9469   -6.7681   -5.2826 C.ar    1  UNL1        0.0986
     16 C         -17.3137   -6.9686   -5.4905 C.ar    1  UNL1        0.0181
     17 C         -22.1703  -10.6201  -11.5863 C.3     1  UNL1        0.2245
     18 S         -23.2301   -9.3400  -12.2303 S.O2    1  UNL1        0.0163
     19 O         -23.7121   -9.7197  -13.6029 O.2     1  UNL1       -0.1682
     20 O         -22.4687   -8.0471  -12.3267 O.2     1  UNL1       -0.1682
     21 C         -24.6072   -9.1368  -11.1532 C.ar    1  UNL1        0.1092
     22 C         -25.6513   -8.2675  -11.4996 C.ar    1  UNL1        0.0186
     23 C         -26.7516   -8.1184  -10.6502 C.ar    1  UNL1        0.0044
     24 C         -26.8174   -8.8398   -9.4549 C.ar    1  UNL1        0.0367
     25 C         -25.7813   -9.7176   -9.1065 C.ar    1  UNL1        0.1350
     26 O         -25.8371  -10.4465   -7.9206 O.3     1  UNL1       -0.5055
     27 C         -24.6800   -9.8659   -9.9574 C.ar    1  UNL1        0.0550
     28 H         -26.6207  -10.3620   -7.2836 H       1  UNL1        0.2922
@<TRIPOS>BOND
     1     6     7    2
     2     7     8   am
     3     8    10    1
     4    10    11    1
     5    11    12   ar
     6    12    13   ar
     7    13    14   ar
     8    14    15   ar
     9    15    16   ar
    10     7     1    1
    11     1     2   ar
    12     2     3   ar
    13     3    17    1
    14    17    18    1
    15    18    19    2
    16    18    20    2
    17    18    21    1
    18    21    22   ar
    19    22    23   ar
    20    23    24   ar
    21    24    25   ar
    22    25    26    1
    23    25    27   ar
    24     3     4   ar
    25     4     5   ar
    26    16    11   ar
    27     5     1   ar
    28    27    21   ar
    29     8     9    1
    30    26    28    1
@<TRIPOS>MOLECULE
*****
 28 30 0 0 0
SMALL
GASTEIGER

@<TRIPOS>ATOM
      1 C         -22.1193   -8.3216  -14.1025 C.ar    1  UNL1        0.3134
      2 N         -22.9558   -7.9864  -13.1010 N.ar    1  UNL1       -0.1854
      3 C         -22.1371   -7.2674  -12.3055 C.ar    1  UNL1        0.2051
      4 N         -20.8818   -7.1872  -12.7874 N.ar    1  UNL1       -0.0582
      5 O         -20.9136   -7.8479  -13.9040 O.2     1  UNL1       -0.3279
      6 O         -22.0029   -8.8566  -16.3936 O.2     1  UNL1       -0.2649
      7 C         -22.5055   -9.1247  -15.2693 C.2     1  UNL1        0.3025
      8 N         -23.4440  -10.2023  -15.1348 N.am    1  UNL1       -0.2930
      9 H         -23.8899  -10.3829  -14.2073 H       1  UNL1        0.1502
     10 C         -23.8087  -11.0669  -16.2548 C.3     1  UNL1        0.1168
     11 C         -24.5100  -12.2999  -15.7540 C.ar    1  UNL1        0.0005
     12 C         -24.2515  -13.5540  -16.3267 C.ar    1  UNL1        0.0181
     13 C         -24.9019  -14.6850  -15.8269 C.ar    1  UNL1        0.0986
     14 N         -25.7747  -14.5686  -14.7911 N.ar    1  UNL1       -0.2423
     15 C         -26.0398  -13.3663  -14.2144 C.ar    1  UNL1        0.0986
     16 C         -25.4111  -12.2103  -14.6833 C.ar    1  UNL1        0.0181
     17 C         -22.5570   -6.6925  -10.9932 C.3     1  UNL1        0.2245
     18 S         -22.7478   -7.9899   -9.7861 S.O2    1  UNL1        0.0163
     19 O         -24.1303   -8.5736   -9.8792 O.2     1  UNL1       -0.1682
     20 O         -22.5509   -7.4337   -8.4032 O.2     1  UNL1       -0.1682
     21 C         -21.5523   -9.2441  -10.0953 C.ar    1  UNL1        0.1092
     22 C         -21.8956  -10.3753  -10.8491 C.ar    1  UNL1        0.0186
     23 C         -20.9410  -11.3636  -11.1065 C.ar    1  UNL1        0.0044
     24 C         -19.6389  -11.2247  -10.6178 C.ar    1  UNL1        0.0367
     25 C         -19.2861  -10.0920   -9.8709 C.ar    1  UNL1        0.1350
     26 O         -17.9905   -9.9390   -9.3825 O.3     1  UNL1       -0.5055
     27 C         -20.2428   -9.1034   -9.6135 C.ar    1  UNL1        0.0550
     28 H         -17.2750  -10.6363   -9.5520 H       1  UNL1        0.2922
@<TRIPOS>BOND
     1     6     7    2
     2     7     8   am
     3     8    10    1
     4    10    11    1
     5    11    12   ar
     6    12    13   ar
     7    13    14   ar
     8    14    15   ar
     9    15    16   ar
    10     7     1    1
    11     1     2   ar
    12     2     3   ar
    13     3    17    1
    14    17    18    1
    15    18    19    2
    16    18    20    2
    17    18    21    1
    18    21    22   ar
    19    22    23   ar
    20    23    24   ar
    21    24    25   ar
    22    25    26    1
    23    25    27   ar
    24     3     4   ar
    25     4     5   ar
    26    16    11   ar
    27     5     1   ar
    28    27    21   ar
    29     8     9    1
    30    26    28    1
