@<TRIPOS>MOLECULE
*****
 40 44 0 0 0
SMALL
GASTEIGER

@<TRIPOS>ATOM
      1 C          51.9997   12.3576  -24.8122 C.2     1  UNL1        0.2506
      2 O          53.0699   12.1499  -24.1779 O.2     1  UNL1       -0.2699
      3 N          51.2993   13.6066  -24.6430 N.am    1  UNL1       -0.2680
      4 C          50.6422   14.2584  -25.7822 C.3     1  UNL1        0.1412
      5 C          49.3706   14.9932  -25.3520 C.3     1  UNL1        0.2268
      6 O          48.5405   14.1655  -24.5407 O.3     1  UNL1       -0.4739
      7 C          48.7670   13.8070  -23.1974 C.ar    1  UNL1        0.1363
      8 C          47.6439   13.3963  -22.4778 C.ar    1  UNL1        0.0366
      9 C          47.7400   13.0330  -21.1411 C.ar    1  UNL1        0.0032
     10 C          48.9745   13.0456  -20.4887 C.ar    1  UNL1        0.0027
     11 C          50.1388   13.4348  -21.1934 C.ar    1  UNL1        0.0353
     12 C          50.0448   13.8193  -22.5627 C.ar    1  UNL1        0.0344
     13 C          51.2771   14.2575  -23.3306 C.3     1  UNL1        0.1237
     14 C          49.0199   12.6326  -19.0686 C.ar    1  UNL1        0.0016
     15 C          49.4218   11.3167  -18.7183 C.ar    1  UNL1        0.0016
     16 C          49.4625   10.9145  -17.3701 C.ar    1  UNL1        0.0206
     17 C          49.0879   11.8453  -16.4055 C.ar    1  UNL1        0.0985
     18 N          49.0485   11.6787  -15.0714 N.ar    1  UNL1       -0.2241
     19 C          48.6134   12.8880  -14.6286 C.ar    1  UNL1        0.1750
     20 N          48.3860   13.7787  -15.6239 N.ar    1  UNL1       -0.3349
     21 C          48.6904   13.1039  -16.7383 C.ar    1  UNL1        0.0757
     22 C          48.6361   13.5427  -18.0586 C.ar    1  UNL1        0.0185
     23 H          48.0503   14.7637  -15.5375 H       1  UNL1        0.1675
     24 C          50.3168   10.5242  -25.2929 C.ar    1  UNL1        0.0503
     25 C          49.8062    9.5694  -26.1959 C.ar    1  UNL1        0.0328
     26 C          50.4102    9.3627  -27.4416 C.ar    1  UNL1        0.1069
     27 C          51.5428   10.1010  -27.7933 C.ar    1  UNL1        0.0186
     28 C          52.0562   11.0562  -26.9179 C.ar    1  UNL1        0.0071
     29 C          51.4536   11.2830  -25.6700 C.ar    1  UNL1        0.0667
     30 S          49.7702    8.1458  -28.5414 S.O2    1  UNL1        0.0105
     31 C          50.9758    7.7976  -29.8009 C.3     1  UNL1        0.1816
     32 O          48.5064    8.6480  -29.1817 O.2     1  UNL1       -0.1686
     33 O          49.4580    6.8876  -27.7806 O.2     1  UNL1       -0.1686
     34 N          49.7250   10.6838  -23.9857 N.pl3   1  UNL1       -0.3325
     35 H          49.0468   11.4630  -23.8293 H       1  UNL1        0.1468
     36 C          48.7686    9.5049  -22.0429 C.3     1  UNL1        0.0229
     37 C          50.0231    9.7925  -22.8620 C.3     1  UNL1        0.0871
     38 C          51.4321   13.4718  -20.4742 C.2     1  UNL1        0.1733
     39 C          52.0549   14.7730  -20.0757 C.3     1  UNL1        0.0773
     40 O          52.0408   12.3947  -20.2371 O.2     1  UNL1       -0.2913
@<TRIPOS>BOND
     1    36    37    1
     2    37    34    1
     3    34    24    1
     4    24    25   ar
     5    25    26   ar
     6    26    30    1
     7    30    31    1
     8    30    32    2
     9    30    33    2
    10    26    27   ar
    11    27    28   ar
    12    28    29   ar
    13    29     1    1
    14     1     2    2
    15     1     3   am
    16     3     4    1
    17     4     5    1
    18     5     6    1
    19     6     7    1
    20     7     8   ar
    21     8     9   ar
    22     9    10   ar
    23    10    14    1
    24    14    15   ar
    25    15    16   ar
    26    16    17   ar
    27    17    18   ar
    28    18    19   ar
    29    19    20   ar
    30    20    21   ar
    31    21    22   ar
    32    10    11   ar
    33    11    38    1
    34    38    39    1
    35    38    40    2
    36    11    12   ar
    37    12    13    1
    38    29    24   ar
    39    13     3    1
    40    12     7   ar
    41    22    14   ar
    42    21    17   ar
    43    34    35    1
    44    20    23    1
@<TRIPOS>MOLECULE
*****
 40 44 0 0 0
SMALL
GASTEIGER

@<TRIPOS>ATOM
      1 C          48.8664   12.7633  -25.0027 C.2     1  UNL1        0.2506
      2 O          47.7642   12.1914  -24.7816 O.2     1  UNL1       -0.2699
      3 N          50.0990   12.0934  -24.6694 N.am    1  UNL1       -0.2680
      4 C          51.2777   12.2170  -25.5353 C.3     1  UNL1        0.1412
      5 C          52.5751   12.1997  -24.7237 C.3     1  UNL1        0.2268
      6 O          52.5114   13.1014  -23.6214 O.3     1  UNL1       -0.4739
      7 C          51.7834   12.9214  -22.4289 C.ar    1  UNL1        0.1363
      8 C          52.2142   13.6695  -21.3323 C.ar    1  UNL1        0.0366
      9 C          51.5847   13.5650  -20.0990 C.ar    1  UNL1        0.0032
     10 C          50.4831   12.7231  -19.9329 C.ar    1  UNL1        0.0027
     11 C          50.0043   11.9663  -21.0292 C.ar    1  UNL1        0.0353
     12 C          50.6531   12.0611  -22.2948 C.ar    1  UNL1        0.0344
     13 C          50.1676   11.2446  -23.4772 C.3     1  UNL1        0.1237
     14 C          49.8416   12.6644  -18.6010 C.ar    1  UNL1        0.0016
     15 C          48.6954   13.4548  -18.3229 C.ar    1  UNL1        0.0016
     16 C          48.0825   13.4086  -17.0567 C.ar    1  UNL1        0.0206
     17 C          48.6448   12.5734  -16.0957 C.ar    1  UNL1        0.0985
     18 N          48.2307   12.3768  -14.8312 N.ar    1  UNL1       -0.2241
     19 C          49.1343   11.4807  -14.3533 C.ar    1  UNL1        0.1750
     20 N          50.0749   11.1243  -15.2610 N.ar    1  UNL1       -0.3349
     21 C          49.7509   11.8234  -16.3548 C.ar    1  UNL1        0.0757
     22 C          50.3875   11.8388  -17.5929 C.ar    1  UNL1        0.0185
     23 H          50.8684   10.4577  -15.1330 H       1  UNL1        0.1675
     24 C          47.7830   14.6478  -26.3064 C.ar    1  UNL1        0.0503
     25 C          47.8162   15.9946  -26.7221 C.ar    1  UNL1        0.0328
     26 C          48.8983   16.8209  -26.3972 C.ar    1  UNL1        0.1069
     27 C          49.9684   16.3042  -25.6630 C.ar    1  UNL1        0.0186
     28 C          49.9491   14.9780  -25.2349 C.ar    1  UNL1        0.0071
     29 C          48.8647   14.1407  -25.5428 C.ar    1  UNL1        0.0667
     30 S          48.9294   18.4922  -26.9505 S.O2    1  UNL1        0.0105
     31 C          48.2631   19.5452  -25.6822 C.3     1  UNL1        0.1816
     32 O          48.1087   18.6328  -28.2019 O.2     1  UNL1       -0.1686
     33 O          50.3439   18.9007  -27.2534 O.2     1  UNL1       -0.1686
     34 N          46.6929   13.7875  -26.7015 N.pl3   1  UNL1       -0.3325
     35 H          46.0880   13.3654  -25.9615 H       1  UNL1        0.1468
     36 C          46.3632   11.9780  -28.3435 C.3     1  UNL1        0.0229
     37 C          46.3844   13.4840  -28.1011 C.3     1  UNL1        0.0871
     38 C          48.8553   11.0561  -20.8233 C.2     1  UNL1        0.1733
     39 C          49.0638    9.6363  -20.3986 C.3     1  UNL1        0.0773
     40 O          47.6880   11.4686  -21.0560 O.2     1  UNL1       -0.2913
@<TRIPOS>BOND
     1    36    37    1
     2    37    34    1
     3    34    24    1
     4    24    25   ar
     5    25    26   ar
     6    26    30    1
     7    30    31    1
     8    30    32    2
     9    30    33    2
    10    26    27   ar
    11    27    28   ar
    12    28    29   ar
    13    29     1    1
    14     1     2    2
    15     1     3   am
    16     3     4    1
    17     4     5    1
    18     5     6    1
    19     6     7    1
    20     7     8   ar
    21     8     9   ar
    22     9    10   ar
    23    10    14    1
    24    14    15   ar
    25    15    16   ar
    26    16    17   ar
    27    17    18   ar
    28    18    19   ar
    29    19    20   ar
    30    20    21   ar
    31    21    22   ar
    32    10    11   ar
    33    11    38    1
    34    38    39    1
    35    38    40    2
    36    11    12   ar
    37    12    13    1
    38    29    24   ar
    39    13     3    1
    40    12     7   ar
    41    22    14   ar
    42    21    17   ar
    43    34    35    1
    44    20    23    1
@<TRIPOS>MOLECULE
*****
 40 44 0 0 0
SMALL
GASTEIGER

@<TRIPOS>ATOM
      1 C          49.7657    9.8256  -27.3527 C.2     1  UNL1        0.2506
      2 O          48.7635   10.1053  -28.0654 O.2     1  UNL1       -0.2699
      3 N          49.6754    9.9348  -25.9177 N.am    1  UNL1       -0.2680
      4 C          50.3419    8.9584  -25.0477 C.3     1  UNL1        0.1412
      5 C          50.8412    9.6071  -23.7547 C.3     1  UNL1        0.2268
      6 O          51.5658   10.8057  -24.0200 O.3     1  UNL1       -0.4739
      7 C          51.0250   12.0457  -24.4127 C.ar    1  UNL1        0.1363
      8 C          51.8246   13.1640  -24.1719 C.ar    1  UNL1        0.0366
      9 C          51.3920   14.4415  -24.5019 C.ar    1  UNL1        0.0032
     10 C          50.1499   14.6358  -25.1095 C.ar    1  UNL1        0.0027
     11 C          49.3216   13.5226  -25.3896 C.ar    1  UNL1        0.0353
     12 C          49.7556   12.2097  -25.0432 C.ar    1  UNL1        0.0344
     13 C          48.8755   11.0054  -25.3175 C.3     1  UNL1        0.1237
     14 C          49.7479   16.0174  -25.4543 C.ar    1  UNL1        0.0016
     15 C          50.3980   16.7100  -26.5095 C.ar    1  UNL1        0.0016
     16 C          50.0250   18.0263  -26.8401 C.ar    1  UNL1        0.0206
     17 C          49.0110   18.6185  -26.0929 C.ar    1  UNL1        0.0985
     18 N          48.5013   19.8556  -26.2307 N.ar    1  UNL1       -0.2241
     19 C          47.5581   19.9044  -25.2530 C.ar    1  UNL1        0.1750
     20 N          47.4697   18.7625  -24.5291 N.ar    1  UNL1       -0.3349
     21 C          48.3937   17.9620  -25.0726 C.ar    1  UNL1        0.0757
     22 C          48.7313   16.6600  -24.7131 C.ar    1  UNL1        0.0185
     23 H          46.8275   18.5580  -23.7315 H       1  UNL1        0.1675
     24 C          51.0953    8.4457  -29.0119 C.ar    1  UNL1        0.0503
     25 C          52.3257    8.1969  -29.6536 C.ar    1  UNL1        0.0328
     26 C          53.4742    8.9205  -29.3119 C.ar    1  UNL1        0.1069
     27 C          53.4076    9.8939  -28.3122 C.ar    1  UNL1        0.0186
     28 C          52.1979   10.1608  -27.6734 C.ar    1  UNL1        0.0071
     29 C          51.0350    9.4514  -28.0143 C.ar    1  UNL1        0.0667
     30 S          55.0054    8.5734  -30.1087 S.O2    1  UNL1        0.0105
     31 C          54.8735    7.0376  -30.9949 C.3     1  UNL1        0.1816
     32 O          56.1028    8.4702  -29.0866 O.2     1  UNL1       -0.1686
     33 O          55.3420    9.6813  -31.0670 O.2     1  UNL1       -0.1686
     34 N          49.9326    7.6498  -29.3268 N.pl3   1  UNL1       -0.3325
     35 H          49.6025    6.9405  -28.6342 H       1  UNL1        0.1468
     36 C          49.5234    6.6809  -31.5569 C.3     1  UNL1        0.0229
     37 C          49.1804    7.7972  -30.5752 C.3     1  UNL1        0.0871
     38 C          47.9954   13.7538  -26.0049 C.2     1  UNL1        0.1733
     39 C          46.7470   13.7184  -25.1803 C.3     1  UNL1        0.0773
     40 O          47.9119   13.9347  -27.2487 O.2     1  UNL1       -0.2913
@<TRIPOS>BOND
     1    36    37    1
     2    37    34    1
     3    34    24    1
     4    24    25   ar
     5    25    26   ar
     6    26    30    1
     7    30    31    1
     8    30    32    2
     9    30    33    2
    10    26    27   ar
    11    27    28   ar
    12    28    29   ar
    13    29     1    1
    14     1     2    2
    15     1     3   am
    16     3     4    1
    17     4     5    1
    18     5     6    1
    19     6     7    1
    20     7     8   ar
    21     8     9   ar
    22     9    10   ar
    23    10    14    1
    24    14    15   ar
    25    15    16   ar
    26    16    17   ar
    27    17    18   ar
    28    18    19   ar
    29    19    20   ar
    30    20    21   ar
    31    21    22   ar
    32    10    11   ar
    33    11    38    1
    34    38    39    1
    35    38    40    2
    36    11    12   ar
    37    12    13    1
    38    29    24   ar
    39    13     3    1
    40    12     7   ar
    41    22    14   ar
    42    21    17   ar
    43    34    35    1
    44    20    23    1
@<TRIPOS>MOLECULE
*****
 40 44 0 0 0
SMALL
GASTEIGER

@<TRIPOS>ATOM
      1 C          48.2649   11.6186  -24.4293 C.2     1  UNL1        0.2506
      2 O          47.3668   10.8256  -24.0353 O.2     1  UNL1       -0.2699
      3 N          49.6474   11.3389  -24.1295 N.am    1  UNL1       -0.2680
      4 C          50.7007   11.6275  -25.1101 C.3     1  UNL1        0.1412
      5 C          52.0008   12.0587  -24.4275 C.3     1  UNL1        0.2268
      6 O          51.7645   13.0673  -23.4482 O.3     1  UNL1       -0.4739
      7 C          51.1787   12.8869  -22.1798 C.ar    1  UNL1        0.1363
      8 C          51.4587   13.8729  -21.2326 C.ar    1  UNL1        0.0366
      9 C          50.9501   13.7957  -19.9428 C.ar    1  UNL1        0.0032
     10 C          50.1205   12.7365  -19.5687 C.ar    1  UNL1        0.0027
     11 C          49.7965   11.7302  -20.5100 C.ar    1  UNL1        0.0353
     12 C          50.3245   11.7982  -21.8323 C.ar    1  UNL1        0.0344
     13 C          50.0048   10.7205  -22.8503 C.3     1  UNL1        0.1237
     14 C          49.5938   12.7146  -18.1862 C.ar    1  UNL1        0.0016
     15 C          48.5003   13.5442  -17.8234 C.ar    1  UNL1        0.0016
     16 C          47.9969   13.5330  -16.5091 C.ar    1  UNL1        0.0206
     17 C          48.6137   12.6923  -15.5871 C.ar    1  UNL1        0.0985
     18 N          48.3036   12.5245  -14.2891 N.ar    1  UNL1       -0.2241
     19 C          49.2171   11.6062  -13.8765 C.ar    1  UNL1        0.1750
     20 N          50.0653   11.2091  -14.8557 N.ar    1  UNL1       -0.3349
     21 C          49.6702   11.9046  -15.9281 C.ar    1  UNL1        0.0757
     22 C          50.1987   11.8846  -17.2161 C.ar    1  UNL1        0.0185
     23 H          50.8461   10.5194  -14.7857 H       1  UNL1        0.1675
     24 C          47.0939   12.8273  -26.3247 C.ar    1  UNL1        0.0503
     25 C          46.6894   14.0482  -26.9022 C.ar    1  UNL1        0.0328
     26 C          47.0499   15.2712  -26.3246 C.ar    1  UNL1        0.1069
     27 C          47.8328   15.2869  -25.1678 C.ar    1  UNL1        0.0186
     28 C          48.2341   14.0901  -24.5770 C.ar    1  UNL1        0.0071
     29 C          47.8697   12.8556  -25.1382 C.ar    1  UNL1        0.0667
     30 S          46.5551   16.7832  -27.0791 S.O2    1  UNL1        0.0105
     31 C          44.9879   16.5534  -27.8868 C.3     1  UNL1        0.1816
     32 O          47.5823   17.2116  -28.0895 O.2     1  UNL1       -0.1686
     33 O          46.4310   17.8559  -26.0335 O.2     1  UNL1       -0.1686
     34 N          46.7709   11.5738  -26.9640 N.pl3   1  UNL1       -0.3325
     35 H          46.7962   10.6960  -26.3978 H       1  UNL1        0.1468
     36 C          47.0736   10.2786  -29.0401 C.3     1  UNL1        0.0229
     37 C          46.3954   11.4732  -28.3765 C.3     1  UNL1        0.0871
     38 C          48.9415   10.5996  -20.0835 C.2     1  UNL1        0.1733
     39 C          47.4556   10.6504  -20.2547 C.3     1  UNL1        0.0773
     40 O          49.4674    9.6011  -19.5241 O.2     1  UNL1       -0.2913
@<TRIPOS>BOND
     1    36    37    1
     2    37    34    1
     3    34    24    1
     4    24    25   ar
     5    25    26   ar
     6    26    30    1
     7    30    31    1
     8    30    32    2
     9    30    33    2
    10    26    27   ar
    11    27    28   ar
    12    28    29   ar
    13    29     1    1
    14     1     2    2
    15     1     3   am
    16     3     4    1
    17     4     5    1
    18     5     6    1
    19     6     7    1
    20     7     8   ar
    21     8     9   ar
    22     9    10   ar
    23    10    14    1
    24    14    15   ar
    25    15    16   ar
    26    16    17   ar
    27    17    18   ar
    28    18    19   ar
    29    19    20   ar
    30    20    21   ar
    31    21    22   ar
    32    10    11   ar
    33    11    38    1
    34    38    39    1
    35    38    40    2
    36    11    12   ar
    37    12    13    1
    38    29    24   ar
    39    13     3    1
    40    12     7   ar
    41    22    14   ar
    42    21    17   ar
    43    34    35    1
    44    20    23    1
@<TRIPOS>MOLECULE
*****
 40 44 0 0 0
SMALL
GASTEIGER

@<TRIPOS>ATOM
      1 C          48.2523   12.4413  -23.2922 C.2     1  UNL1        0.2506
      2 O          47.3685   11.6577  -22.8500 O.2     1  UNL1       -0.2699
      3 N          49.6323   12.0237  -23.3135 N.am    1  UNL1       -0.2680
      4 C          50.5113   12.3953  -24.4288 C.3     1  UNL1        0.1412
      5 C          51.9501   12.6210  -23.9587 C.3     1  UNL1        0.2268
      6 O          51.9966   13.4712  -22.8154 O.3     1  UNL1       -0.4739
      7 C          51.6383   13.1278  -21.4971 C.ar    1  UNL1        0.1363
      8 C          52.1818   13.9259  -20.4894 C.ar    1  UNL1        0.0366
      9 C          51.9129   13.6754  -19.1504 C.ar    1  UNL1        0.0032
     10 C          51.0667   12.6283  -18.7798 C.ar    1  UNL1        0.0027
     11 C          50.4792   11.8121  -19.7760 C.ar    1  UNL1        0.0353
     12 C          50.7601   12.0576  -21.1517 C.ar    1  UNL1        0.0344
     13 C          50.1559   11.1833  -22.2337 C.3     1  UNL1        0.1237
     14 C          50.8025   12.4183  -17.3392 C.ar    1  UNL1        0.0016
     15 C          51.8303   12.6343  -16.3839 C.ar    1  UNL1        0.0016
     16 C          51.5885   12.4316  -15.0122 C.ar    1  UNL1        0.0206
     17 C          50.3180   12.0063  -14.6351 C.ar    1  UNL1        0.0985
     18 N          49.8702   11.7495  -13.3930 N.ar    1  UNL1       -0.2241
     19 C          48.5827   11.3704  -13.6084 C.ar    1  UNL1        0.1750
     20 N          48.2265   11.3828  -14.9156 N.ar    1  UNL1       -0.3349
     21 C          49.3336   11.7863  -15.5492 C.ar    1  UNL1        0.0757
     22 C          49.5301   11.9750  -16.9146 C.ar    1  UNL1        0.0185
     23 H          47.3007   11.1340  -15.3295 H       1  UNL1        0.1675
     24 C          47.0483   14.0229  -24.8650 C.ar    1  UNL1        0.0503
     25 C          46.6465   15.3398  -25.1685 C.ar    1  UNL1        0.0328
     26 C          47.0408   16.4154  -24.3642 C.ar    1  UNL1        0.1069
     27 C          47.8550   16.1868  -23.2523 C.ar    1  UNL1        0.0186
     28 C          48.2544   14.8908  -22.9307 C.ar    1  UNL1        0.0071
     29 C          47.8565   13.8007  -23.7214 C.ar    1  UNL1        0.0667
     30 S          46.5483   18.0542  -24.7787 S.O2    1  UNL1        0.0105
     31 C          47.9826   19.0051  -25.2258 C.3     1  UNL1        0.1816
     32 O          45.8665   18.6970  -23.6033 O.2     1  UNL1       -0.1686
     33 O          45.5867   18.0188  -25.9335 O.2     1  UNL1       -0.1686
     34 N          46.6893   12.9298  -25.7371 N.pl3   1  UNL1       -0.3325
     35 H          47.4464   12.4136  -26.2390 H       1  UNL1        0.1468
     36 C          44.5044   12.5799  -24.6495 C.3     1  UNL1        0.0229
     37 C          45.3049   12.4984  -25.9456 C.3     1  UNL1        0.0871
     38 C          49.6106   10.6880  -19.3600 C.2     1  UNL1        0.1733
     39 C          48.1205   10.7899  -19.4550 C.3     1  UNL1        0.0773
     40 O          50.1313    9.6492  -18.8737 O.2     1  UNL1       -0.2913
@<TRIPOS>BOND
     1    36    37    1
     2    37    34    1
     3    34    24    1
     4    24    25   ar
     5    25    26   ar
     6    26    30    1
     7    30    31    1
     8    30    32    2
     9    30    33    2
    10    26    27   ar
    11    27    28   ar
    12    28    29   ar
    13    29     1    1
    14     1     2    2
    15     1     3   am
    16     3     4    1
    17     4     5    1
    18     5     6    1
    19     6     7    1
    20     7     8   ar
    21     8     9   ar
    22     9    10   ar
    23    10    14    1
    24    14    15   ar
    25    15    16   ar
    26    16    17   ar
    27    17    18   ar
    28    18    19   ar
    29    19    20   ar
    30    20    21   ar
    31    21    22   ar
    32    10    11   ar
    33    11    38    1
    34    38    39    1
    35    38    40    2
    36    11    12   ar
    37    12    13    1
    38    29    24   ar
    39    13     3    1
    40    12     7   ar
    41    22    14   ar
    42    21    17   ar
    43    34    35    1
    44    20    23    1
@<TRIPOS>MOLECULE
*****
 40 44 0 0 0
SMALL
GASTEIGER

@<TRIPOS>ATOM
      1 C          48.6886   13.1403  -25.7530 C.2     1  UNL1        0.2506
      2 O          49.5898   14.0216  -25.7108 O.2     1  UNL1       -0.2699
      3 N          47.4705   13.3270  -25.0043 N.am    1  UNL1       -0.2680
      4 C          46.1782   12.9034  -25.5565 C.3     1  UNL1        0.1412
      5 C          45.2329   12.4099  -24.4588 C.3     1  UNL1        0.2268
      6 O          45.8797   11.4783  -23.5952 O.3     1  UNL1       -0.4739
      7 C          46.8420   11.7734  -22.6097 C.ar    1  UNL1        0.1363
      8 C          46.9926   10.8221  -21.5996 C.ar    1  UNL1        0.0366
      9 C          47.8994   11.0097  -20.5649 C.ar    1  UNL1        0.0032
     10 C          48.7051   12.1495  -20.5246 C.ar    1  UNL1        0.0027
     11 C          48.5959   13.1248  -21.5447 C.ar    1  UNL1        0.0353
     12 C          47.6590   12.9431  -22.6035 C.ar    1  UNL1        0.0344
     13 C          47.5131   13.9850  -23.6959 C.3     1  UNL1        0.1237
     14 C          49.6655   12.2886  -19.4077 C.ar    1  UNL1        0.0016
     15 C          51.0625   12.2905  -19.6607 C.ar    1  UNL1        0.0016
     16 C          51.9826   12.4170  -18.6031 C.ar    1  UNL1        0.0206
     17 C          51.4736   12.5292  -17.3125 C.ar    1  UNL1        0.0985
     18 N          52.1616   12.6558  -16.1637 N.ar    1  UNL1       -0.2241
     19 C          51.1779   12.7174  -15.2276 C.ar    1  UNL1        0.1750
     20 N          49.9297   12.6339  -15.7481 N.ar    1  UNL1       -0.3349
     21 C          50.1351   12.5155  -17.0648 C.ar    1  UNL1        0.0757
     22 C          49.1913   12.3929  -18.0810 C.ar    1  UNL1        0.0185
     23 H          49.0197   12.6569  -15.2366 H       1  UNL1        0.1675
     24 C          50.0773   11.0936  -26.3071 C.ar    1  UNL1        0.0503
     25 C          50.2036    9.8861  -27.0238 C.ar    1  UNL1        0.0328
     26 C          49.2235    9.4881  -27.9405 C.ar    1  UNL1        0.1069
     27 C          48.1102   10.3025  -28.1614 C.ar    1  UNL1        0.0186
     28 C          47.9631   11.4950  -27.4552 C.ar    1  UNL1        0.0071
     29 C          48.9320   11.9010  -26.5235 C.ar    1  UNL1        0.0667
     30 S          49.4166    7.9888  -28.8432 S.O2    1  UNL1        0.0105
     31 C          51.0298    7.9543  -29.5899 C.3     1  UNL1        0.1816
     32 O          48.3659    7.8969  -29.9142 O.2     1  UNL1       -0.1686
     33 O          49.2645    6.8150  -27.9168 O.2     1  UNL1       -0.1686
     34 N          51.1247   11.5254  -25.4120 N.pl3   1  UNL1       -0.3325
     35 H          51.6153   12.4274  -25.6054 H       1  UNL1        0.1468
     36 C          50.3113   10.2606  -23.4580 C.3     1  UNL1        0.0229
     37 C          51.5287   10.7598  -24.2302 C.3     1  UNL1        0.0871
     38 C          49.4366   14.3406  -21.4656 C.2     1  UNL1        0.1733
     39 C          50.6498   14.4955  -22.3282 C.3     1  UNL1        0.0773
     40 O          49.1545   15.2360  -20.6258 O.2     1  UNL1       -0.2913
@<TRIPOS>BOND
     1    36    37    1
     2    37    34    1
     3    34    24    1
     4    24    25   ar
     5    25    26   ar
     6    26    30    1
     7    30    31    1
     8    30    32    2
     9    30    33    2
    10    26    27   ar
    11    27    28   ar
    12    28    29   ar
    13    29     1    1
    14     1     2    2
    15     1     3   am
    16     3     4    1
    17     4     5    1
    18     5     6    1
    19     6     7    1
    20     7     8   ar
    21     8     9   ar
    22     9    10   ar
    23    10    14    1
    24    14    15   ar
    25    15    16   ar
    26    16    17   ar
    27    17    18   ar
    28    18    19   ar
    29    19    20   ar
    30    20    21   ar
    31    21    22   ar
    32    10    11   ar
    33    11    38    1
    34    38    39    1
    35    38    40    2
    36    11    12   ar
    37    12    13    1
    38    29    24   ar
    39    13     3    1
    40    12     7   ar
    41    22    14   ar
    42    21    17   ar
    43    34    35    1
    44    20    23    1
@<TRIPOS>MOLECULE
*****
 40 44 0 0 0
SMALL
GASTEIGER

@<TRIPOS>ATOM
      1 C          47.9492   11.4838  -24.0191 C.2     1  UNL1        0.2506
      2 O          47.0950   10.7834  -23.4104 O.2     1  UNL1       -0.2699
      3 N          49.3366   11.0912  -24.0053 N.am    1  UNL1       -0.2680
      4 C          50.1759   11.2606  -25.1974 C.3     1  UNL1        0.1412
      5 C          51.6222   11.5930  -24.8234 C.3     1  UNL1        0.2268
      6 O          51.6827   12.6432  -23.8614 O.3     1  UNL1       -0.4739
      7 C          51.3687   12.5477  -22.4915 C.ar    1  UNL1        0.1363
      8 C          51.9232   13.5291  -21.6685 C.ar    1  UNL1        0.0366
      9 C          51.6973   13.5300  -20.2984 C.ar    1  UNL1        0.0032
     10 C          50.8841   12.5580  -19.7121 C.ar    1  UNL1        0.0027
     11 C          50.2864   11.5603  -20.5190 C.ar    1  UNL1        0.0353
     12 C          50.5235   11.5477  -21.9246 C.ar    1  UNL1        0.0344
     13 C          49.9079   10.4766  -22.8043 C.3     1  UNL1        0.1237
     14 C          50.6649   12.6179  -18.2500 C.ar    1  UNL1        0.0016
     15 C          49.3519   12.7571  -17.7281 C.ar    1  UNL1        0.0016
     16 C          49.1356   12.8202  -16.3388 C.ar    1  UNL1        0.0206
     17 C          50.2492   12.7511  -15.5067 C.ar    1  UNL1        0.0985
     18 N          50.2772   12.7945  -14.1626 N.ar    1  UNL1       -0.2241
     19 C          51.6040   12.6932  -13.8847 C.ar    1  UNL1        0.1750
     20 N          52.3819   12.5916  -14.9893 N.ar    1  UNL1       -0.3349
     21 C          51.5106   12.6299  -16.0038 C.ar    1  UNL1        0.0757
     22 C          51.7689   12.5634  -17.3703 C.ar    1  UNL1        0.0185
     23 H          53.4214   12.5039  -15.0346 H       1  UNL1        0.1675
     24 C          47.1888   13.9007  -23.9473 C.ar    1  UNL1        0.0503
     25 C          46.8558   15.0763  -24.6508 C.ar    1  UNL1        0.0328
     26 C          46.8356   15.0955  -26.0503 C.ar    1  UNL1        0.1069
     27 C          47.1354   13.9323  -26.7633 C.ar    1  UNL1        0.0186
     28 C          47.4764   12.7632  -26.0856 C.ar    1  UNL1        0.0071
     29 C          47.5127   12.7323  -24.6823 C.ar    1  UNL1        0.0667
     30 S          46.3906   16.5685  -26.9061 S.O2    1  UNL1        0.0105
     31 C          44.9262   16.2707  -27.8694 C.3     1  UNL1        0.1816
     32 O          47.5112   16.9915  -27.8144 O.2     1  UNL1       -0.1686
     33 O          46.1289   17.6706  -25.9181 O.2     1  UNL1       -0.1686
     34 N          47.1440   13.8748  -22.5045 N.pl3   1  UNL1       -0.3325
     35 H          46.3016   13.4769  -22.0317 H       1  UNL1        0.1468
     36 C          48.9590   15.5353  -22.3378 C.3     1  UNL1        0.0229
     37 C          48.2359   14.3730  -21.6644 C.3     1  UNL1        0.0871
     38 C          49.4539   10.5208  -19.8730 C.2     1  UNL1        0.1733
     39 C          47.9626   10.5418  -19.9962 C.3     1  UNL1        0.0773
     40 O          50.0055    9.6336  -19.1692 O.2     1  UNL1       -0.2913
@<TRIPOS>BOND
     1    36    37    1
     2    37    34    1
     3    34    24    1
     4    24    25   ar
     5    25    26   ar
     6    26    30    1
     7    30    31    1
     8    30    32    2
     9    30    33    2
    10    26    27   ar
    11    27    28   ar
    12    28    29   ar
    13    29     1    1
    14     1     2    2
    15     1     3   am
    16     3     4    1
    17     4     5    1
    18     5     6    1
    19     6     7    1
    20     7     8   ar
    21     8     9   ar
    22     9    10   ar
    23    10    14    1
    24    14    15   ar
    25    15    16   ar
    26    16    17   ar
    27    17    18   ar
    28    18    19   ar
    29    19    20   ar
    30    20    21   ar
    31    21    22   ar
    32    10    11   ar
    33    11    38    1
    34    38    39    1
    35    38    40    2
    36    11    12   ar
    37    12    13    1
    38    29    24   ar
    39    13     3    1
    40    12     7   ar
    41    22    14   ar
    42    21    17   ar
    43    34    35    1
    44    20    23    1
@<TRIPOS>MOLECULE
*****
 40 44 0 0 0
SMALL
GASTEIGER

@<TRIPOS>ATOM
      1 C          50.6363   11.7618  -20.2355 C.2     1  UNL1        0.2506
      2 O          51.7548   12.1924  -20.6283 O.2     1  UNL1       -0.2699
      3 N          49.8710   10.8820  -21.0837 N.am    1  UNL1       -0.2680
      4 C          49.1047    9.7682  -20.5121 C.3     1  UNL1        0.1412
      5 C          47.8189    9.5082  -21.3002 C.3     1  UNL1        0.2268
      6 O          47.0945   10.7149  -21.5268 O.3     1  UNL1       -0.4739
      7 C          47.4262   11.7362  -22.4385 C.ar    1  UNL1        0.1363
      8 C          46.3780   12.5723  -22.8262 C.ar    1  UNL1        0.0366
      9 C          46.5798   13.6051  -23.7320 C.ar    1  UNL1        0.0032
     10 C          47.8494   13.8490  -24.2598 C.ar    1  UNL1        0.0027
     11 C          48.9409   13.0355  -23.8718 C.ar    1  UNL1        0.0353
     12 C          48.7378   11.9668  -22.9506 C.ar    1  UNL1        0.0344
     13 C          49.8900   11.0718  -22.5363 C.3     1  UNL1        0.1237
     14 C          48.0090   14.9736  -25.2079 C.ar    1  UNL1        0.0016
     15 C          47.6333   14.8217  -26.5686 C.ar    1  UNL1        0.0016
     16 C          47.7870   15.8850  -27.4779 C.ar    1  UNL1        0.0206
     17 C          48.3252   17.0751  -26.9969 C.ar    1  UNL1        0.0985
     18 N          48.5615   18.2084  -27.6817 N.ar    1  UNL1       -0.2241
     19 C          49.0874   19.0296  -26.7345 C.ar    1  UNL1        0.1750
     20 N          49.1832   18.4536  -25.5119 N.ar    1  UNL1       -0.3349
     21 C          48.6979   17.2205  -25.6958 C.ar    1  UNL1        0.0757
     22 C          48.5627   16.1951  -24.7637 C.ar    1  UNL1        0.0185
     23 H          49.5516   18.8773  -24.6315 H       1  UNL1        0.1675
     24 C          49.0900   13.2085  -18.8424 C.ar    1  UNL1        0.0503
     25 C          48.5792   13.5428  -17.5716 C.ar    1  UNL1        0.0328
     26 C          49.0670   12.9236  -16.4149 C.ar    1  UNL1        0.1069
     27 C          50.0835   11.9707  -16.5155 C.ar    1  UNL1        0.0186
     28 C          50.5942   11.6200  -17.7639 C.ar    1  UNL1        0.0071
     29 C          50.1061   12.2239  -18.9339 C.ar    1  UNL1        0.0667
     30 S          48.4319   13.3772  -14.8366 S.O2    1  UNL1        0.0105
     31 C          49.7526   14.0143  -13.8310 C.3     1  UNL1        0.1816
     32 O          47.8238   12.1777  -14.1651 O.2     1  UNL1       -0.1686
     33 O          47.3699   14.4284  -14.9994 O.2     1  UNL1       -0.1686
     34 N          48.6250   13.8991  -20.0220 N.pl3   1  UNL1       -0.3325
     35 H          47.6477   13.7340  -20.3525 H       1  UNL1        0.1468
     36 C          48.6097   15.9152  -21.4413 C.3     1  UNL1        0.0229
     37 C          49.4599   14.8362  -20.7776 C.3     1  UNL1        0.0871
     38 C          50.2716   13.2911  -24.4676 C.2     1  UNL1        0.1733
     39 C          50.7109   12.5761  -25.7068 C.3     1  UNL1        0.0773
     40 O          51.0646   14.0856  -23.8961 O.2     1  UNL1       -0.2913
@<TRIPOS>BOND
     1    36    37    1
     2    37    34    1
     3    34    24    1
     4    24    25   ar
     5    25    26   ar
     6    26    30    1
     7    30    31    1
     8    30    32    2
     9    30    33    2
    10    26    27   ar
    11    27    28   ar
    12    28    29   ar
    13    29     1    1
    14     1     2    2
    15     1     3   am
    16     3     4    1
    17     4     5    1
    18     5     6    1
    19     6     7    1
    20     7     8   ar
    21     8     9   ar
    22     9    10   ar
    23    10    14    1
    24    14    15   ar
    25    15    16   ar
    26    16    17   ar
    27    17    18   ar
    28    18    19   ar
    29    19    20   ar
    30    20    21   ar
    31    21    22   ar
    32    10    11   ar
    33    11    38    1
    34    38    39    1
    35    38    40    2
    36    11    12   ar
    37    12    13    1
    38    29    24   ar
    39    13     3    1
    40    12     7   ar
    41    22    14   ar
    42    21    17   ar
    43    34    35    1
    44    20    23    1
@<TRIPOS>MOLECULE
*****
 40 44 0 0 0
SMALL
GASTEIGER

@<TRIPOS>ATOM
      1 C          50.6487   11.9326  -20.3282 C.2     1  UNL1        0.2506
      2 O          51.5528   12.6503  -20.8364 O.2     1  UNL1       -0.2699
      3 N          50.0870   10.8445  -21.0896 N.am    1  UNL1       -0.2680
      4 C          49.7315    9.5781  -20.4382 C.3     1  UNL1        0.1412
      5 C          48.5024    8.9381  -21.0876 C.3     1  UNL1        0.2268
      6 O          47.4445    9.8812  -21.2410 O.3     1  UNL1       -0.4739
      7 C          47.3784   10.9246  -22.1851 C.ar    1  UNL1        0.1363
      8 C          46.1020   11.4153  -22.4640 C.ar    1  UNL1        0.0366
      9 C          45.9094   12.4330  -23.3888 C.ar    1  UNL1        0.0032
     10 C          46.9976   13.0103  -24.0465 C.ar    1  UNL1        0.0027
     11 C          48.3089   12.5534  -23.7719 C.ar    1  UNL1        0.0353
     12 C          48.5120   11.5015  -22.8316 C.ar    1  UNL1        0.0344
     13 C          49.9071   10.9847  -22.5369 C.3     1  UNL1        0.1237
     14 C          46.7344   14.1025  -25.0093 C.ar    1  UNL1        0.0016
     15 C          46.7219   15.4536  -24.5733 C.ar    1  UNL1        0.0016
     16 C          46.4670   16.4979  -25.4819 C.ar    1  UNL1        0.0206
     17 C          46.2210   16.1559  -26.8084 C.ar    1  UNL1        0.0985
     18 N          45.9538   16.9815  -27.8361 N.ar    1  UNL1       -0.2241
     19 C          45.7961   16.1243  -28.8792 C.ar    1  UNL1        0.1750
     20 N          45.9526   14.8224  -28.5380 N.ar    1  UNL1       -0.3349
     21 C          46.2200   14.8608  -27.2277 C.ar    1  UNL1        0.0757
     22 C          46.4677   13.7982  -26.3628 C.ar    1  UNL1        0.0185
     23 H          45.8801   13.9849  -29.1574 H       1  UNL1        0.1675
     24 C          48.7618   12.4865  -18.7289 C.ar    1  UNL1        0.0503
     25 C          48.3409   12.7241  -17.4045 C.ar    1  UNL1        0.0328
     26 C          49.2623   12.7521  -16.3512 C.ar    1  UNL1        0.1069
     27 C          50.6203   12.5561  -16.6135 C.ar    1  UNL1        0.0186
     28 C          51.0543   12.3101  -17.9149 C.ar    1  UNL1        0.0071
     29 C          50.1399   12.2669  -18.9798 C.ar    1  UNL1        0.0667
     30 S          48.7159   13.0774  -14.7093 S.O2    1  UNL1        0.0105
     31 C          50.1095   13.5343  -13.7042 C.3     1  UNL1        0.1816
     32 O          48.0631   11.8514  -14.1345 O.2     1  UNL1       -0.1686
     33 O          47.7132   14.1971  -14.7201 O.2     1  UNL1       -0.1686
     34 N          47.8119   12.5234  -19.8156 N.pl3   1  UNL1       -0.3325
     35 H          48.1103   12.1899  -20.7597 H       1  UNL1        0.1468
     36 C          45.5350   11.8964  -19.1073 C.3     1  UNL1        0.0229
     37 C          46.4357   12.9992  -19.6550 C.3     1  UNL1        0.0871
     38 C          49.4452   13.1571  -24.5036 C.2     1  UNL1        0.1733
     39 C          50.2109   14.3056  -23.9251 C.3     1  UNL1        0.0773
     40 O          49.7412   12.7298  -25.6510 O.2     1  UNL1       -0.2913
@<TRIPOS>BOND
     1    36    37    1
     2    37    34    1
     3    34    24    1
     4    24    25   ar
     5    25    26   ar
     6    26    30    1
     7    30    31    1
     8    30    32    2
     9    30    33    2
    10    26    27   ar
    11    27    28   ar
    12    28    29   ar
    13    29     1    1
    14     1     2    2
    15     1     3   am
    16     3     4    1
    17     4     5    1
    18     5     6    1
    19     6     7    1
    20     7     8   ar
    21     8     9   ar
    22     9    10   ar
    23    10    14    1
    24    14    15   ar
    25    15    16   ar
    26    16    17   ar
    27    17    18   ar
    28    18    19   ar
    29    19    20   ar
    30    20    21   ar
    31    21    22   ar
    32    10    11   ar
    33    11    38    1
    34    38    39    1
    35    38    40    2
    36    11    12   ar
    37    12    13    1
    38    29    24   ar
    39    13     3    1
    40    12     7   ar
    41    22    14   ar
    42    21    17   ar
    43    34    35    1
    44    20    23    1
