@<TRIPOS>MOLECULE
*****
 46 51 0 0 0
SMALL
GASTEIGER

@<TRIPOS>ATOM
      1 C          -9.0698  -12.3236   29.8950 C.ar    1  UNL1       -0.0044
      2 C          -8.6230  -11.3010   30.7460 C.ar    1  UNL1        0.0313
      3 C          -7.3044  -10.8268   30.6476 C.ar    1  UNL1        0.1315
      4 N          -6.4761  -11.3692   29.7140 N.ar    1  UNL1       -0.2279
      5 C          -6.8762  -12.3543   28.8702 C.ar    1  UNL1        0.1146
      6 C          -8.1816  -12.8635   28.9390 C.ar    1  UNL1        0.0661
      7 N          -6.8160   -9.7793   31.5142 N.pl3   1  UNL1       -0.2933
      8 C          -6.0799   -8.6428   30.9395 C.3     1  UNL1        0.0923
      9 C          -5.0246   -8.1429   31.9308 C.3     1  UNL1        0.0252
     10 C          -5.6281   -7.7544   33.3080 C.3     1  UNL1        0.0472
     11 C          -7.0248   -8.3764   33.5492 C.3     1  UNL1        0.0252
     12 C          -7.1381   -9.7828   32.9517 C.3     1  UNL1        0.0923
     13 C          -5.6811   -6.2268   33.4753 C.3     1  UNL1        0.2054
     14 O          -7.0189   -5.7629   33.3022 O.3     1  UNL1       -0.4755
     15 C          -7.6825   -5.6955   32.0686 C.ar    1  UNL1        0.1388
     16 C          -7.1111   -5.0844   30.9371 C.ar    1  UNL1        0.0369
     17 C          -7.8138   -5.0443   29.7312 C.ar    1  UNL1        0.0033
     18 C          -9.0876   -5.6096   29.6396 C.ar    1  UNL1        0.0066
     19 C          -9.6745   -6.2243   30.7597 C.ar    1  UNL1        0.0785
     20 C          -8.9604   -6.2605   31.9706 C.ar    1  UNL1        0.0433
     21 C         -11.0237   -6.8253   30.6698 C.2     1  UNL1        0.3381
     22 O         -11.3029   -7.8684   31.3209 O.2     1  UNL1       -0.2451
     23 O         -11.9993   -6.2436   29.8640 O.3     1  UNL1       -0.4771
     24 H         -12.9260   -6.6470   29.7954 H       1  UNL1        0.2954
     25 N          -8.6179  -13.8702   28.0087 N.am    1  UNL1       -0.2769
     26 C          -7.7614  -14.9133   27.5131 C.2     1  UNL1        0.2839
     27 O          -6.5651  -14.9902   27.9019 O.2     1  UNL1       -0.2665
     28 H          -9.5989  -13.8150   27.6622 H       1  UNL1        0.1553
     29 C          -8.2405  -15.8916   26.5206 C.ar    1  UNL1        0.1946
     30 O          -8.8854  -16.9907   26.8704 O.2     1  UNL1       -0.4492
     31 C          -9.1704  -17.6563   25.7781 C.ar    1  UNL1        0.1452
     32 C          -9.8388  -18.8716   25.6784 C.ar    1  UNL1        0.0375
     33 C         -10.0416  -19.4098   24.3955 C.ar    1  UNL1        0.0031
     34 C          -9.5764  -18.7292   23.2377 C.ar    1  UNL1        0.0002
     35 C          -8.9012  -17.4936   23.3841 C.ar    1  UNL1        0.0028
     36 C          -8.7164  -16.9907   24.6723 C.ar    1  UNL1        0.0337
     37 C          -8.1229  -15.8298   25.1260 C.ar    1  UNL1        0.0202
     38 C          -7.5316  -14.7398   24.2846 C.3     1  UNL1        0.0345
     39 C          -9.7960  -19.3073   21.8876 C.ar    1  UNL1        0.0000
     40 C          -8.7570  -19.3224   20.9377 C.ar    1  UNL1        0.0000
     41 C          -8.9664  -19.8685   19.6676 C.ar    1  UNL1        0.0000
     42 C         -10.2117  -20.4037   19.3312 C.ar    1  UNL1        0.0000
     43 C         -11.2505  -20.3945   20.2645 C.ar    1  UNL1        0.0000
     44 C         -11.0466  -19.8506   21.5364 C.ar    1  UNL1        0.0000
     45 C         -11.3602  -11.7728   30.7356 C.3     1  UNL1        0.0051
     46 C         -10.4959  -12.8055   30.0187 C.3     1  UNL1        0.0278
@<TRIPOS>BOND
     1    45    46    1
     2    46     1    1
     3     1     2   ar
     4     2     3   ar
     5     3     7    1
     6     7     8    1
     7     8     9    1
     8     9    10    1
     9    10    13    1
    10    13    14    1
    11    14    15    1
    12    15    16   ar
    13    16    17   ar
    14    17    18   ar
    15    18    19   ar
    16    19    21    1
    17    21    22    2
    18    21    23    1
    19    19    20   ar
    20    10    11    1
    21    11    12    1
    22     3     4   ar
    23     4     5   ar
    24     5     6   ar
    25     6    25    1
    26    25    26   am
    27    26    27    2
    28    26    29    1
    29    29    30   ar
    30    30    31   ar
    31    31    32   ar
    32    32    33   ar
    33    33    34   ar
    34    34    39    1
    35    39    40   ar
    36    40    41   ar
    37    41    42   ar
    38    42    43   ar
    39    43    44   ar
    40    34    35   ar
    41    35    36   ar
    42    36    37   ar
    43    37    38    1
    44     6     1   ar
    45    37    29   ar
    46    12     7    1
    47    36    31   ar
    48    20    15   ar
    49    44    39   ar
    50    23    24    1
    51    25    28    1
@<TRIPOS>MOLECULE
*****
 46 51 0 0 0
SMALL
GASTEIGER

@<TRIPOS>ATOM
      1 C          -6.9151  -12.7260   28.5568 C.ar    1  UNL1       -0.0044
      2 C          -7.8097  -12.3053   29.5528 C.ar    1  UNL1        0.0313
      3 C          -9.0298  -12.9771   29.7349 C.ar    1  UNL1        0.1315
      4 N          -9.3232  -14.0400   28.9374 N.ar    1  UNL1       -0.2279
      5 C          -8.4791  -14.4785   27.9691 C.ar    1  UNL1        0.1146
      6 C          -7.2539  -13.8323   27.7471 C.ar    1  UNL1        0.0661
      7 N          -9.9719  -12.5623   30.7485 N.pl3   1  UNL1       -0.2933
      8 C          -9.7003  -11.3561   31.5453 C.3     1  UNL1        0.0923
      9 C         -10.2661  -11.5200   32.9593 C.3     1  UNL1        0.0252
     10 C         -11.7856  -11.8412   32.9666 C.3     1  UNL1        0.0472
     11 C         -12.2918  -12.3830   31.6079 C.3     1  UNL1        0.0252
     12 C         -11.2509  -13.2728   30.9205 C.3     1  UNL1        0.0923
     13 C         -12.6060  -10.6145   33.3984 C.3     1  UNL1        0.2054
     14 O         -13.1072   -9.9335   32.2495 O.3     1  UNL1       -0.4755
     15 C         -12.5291   -8.7832   31.6932 C.ar    1  UNL1        0.1388
     16 C         -12.8715   -7.4861   32.1180 C.ar    1  UNL1        0.0369
     17 C         -12.2660   -6.3730   31.5317 C.ar    1  UNL1        0.0033
     18 C         -11.3172   -6.5389   30.5204 C.ar    1  UNL1        0.0066
     19 C         -10.9626   -7.8272   30.0829 C.ar    1  UNL1        0.0785
     20 C         -11.5772   -8.9432   30.6784 C.ar    1  UNL1        0.0433
     21 C          -9.9581   -8.0104   29.0119 C.2     1  UNL1        0.3381
     22 O          -8.8149   -7.4879   29.1123 O.2     1  UNL1       -0.2451
     23 O         -10.2664   -8.7628   27.8814 O.3     1  UNL1       -0.4771
     24 H          -9.5860   -8.8945   27.1425 H       1  UNL1        0.2954
     25 N          -6.3391  -14.3319   26.7558 N.am    1  UNL1       -0.2769
     26 C          -6.7546  -14.8047   25.4631 C.2     1  UNL1        0.2839
     27 O          -7.9728  -14.7825   25.1409 O.2     1  UNL1       -0.2665
     28 H          -5.3290  -14.3740   27.0082 H       1  UNL1        0.1553
     29 C          -5.7846  -15.3558   24.5003 C.ar    1  UNL1        0.1946
     30 O          -5.8020  -15.0308   23.2196 O.2     1  UNL1       -0.4492
     31 C          -4.8331  -15.6823   22.6246 C.ar    1  UNL1        0.1452
     32 C          -4.4902  -15.6433   21.2775 C.ar    1  UNL1        0.0375
     33 C          -3.4037  -16.4266   20.8502 C.ar    1  UNL1        0.0031
     34 C          -2.6797  -17.2325   21.7704 C.ar    1  UNL1        0.0002
     35 C          -3.0618  -17.2423   23.1335 C.ar    1  UNL1        0.0028
     36 C          -4.1457  -16.4541   23.5211 C.ar    1  UNL1        0.0337
     37 C          -4.7330  -16.2464   24.7531 C.ar    1  UNL1        0.0202
     38 C          -4.2920  -16.8251   26.0630 C.3     1  UNL1        0.0345
     39 C          -1.5340  -18.0561   21.3078 C.ar    1  UNL1        0.0000
     40 C          -0.5782  -17.5205   20.4236 C.ar    1  UNL1        0.0000
     41 C           0.5002  -18.2981   19.9906 C.ar    1  UNL1        0.0000
     42 C           0.6367  -19.6157   20.4328 C.ar    1  UNL1        0.0000
     43 C          -0.3048  -20.1587   21.3097 C.ar    1  UNL1        0.0000
     44 C          -1.3847  -19.3855   21.7469 C.ar    1  UNL1        0.0000
     45 C          -5.6442  -10.6440   29.1105 C.3     1  UNL1        0.0051
     46 C          -5.6069  -11.9893   28.3919 C.3     1  UNL1        0.0278
@<TRIPOS>BOND
     1    45    46    1
     2    46     1    1
     3     1     2   ar
     4     2     3   ar
     5     3     7    1
     6     7     8    1
     7     8     9    1
     8     9    10    1
     9    10    13    1
    10    13    14    1
    11    14    15    1
    12    15    16   ar
    13    16    17   ar
    14    17    18   ar
    15    18    19   ar
    16    19    21    1
    17    21    22    2
    18    21    23    1
    19    19    20   ar
    20    10    11    1
    21    11    12    1
    22     3     4   ar
    23     4     5   ar
    24     5     6   ar
    25     6    25    1
    26    25    26   am
    27    26    27    2
    28    26    29    1
    29    29    30   ar
    30    30    31   ar
    31    31    32   ar
    32    32    33   ar
    33    33    34   ar
    34    34    39    1
    35    39    40   ar
    36    40    41   ar
    37    41    42   ar
    38    42    43   ar
    39    43    44   ar
    40    34    35   ar
    41    35    36   ar
    42    36    37   ar
    43    37    38    1
    44     6     1   ar
    45    37    29   ar
    46    12     7    1
    47    36    31   ar
    48    20    15   ar
    49    44    39   ar
    50    23    24    1
    51    25    28    1
