@<TRIPOS>MOLECULE
*****
 38 42 0 0 0
SMALL
GASTEIGER

@<TRIPOS>ATOM
      1 C          50.0540   11.7332  -21.9490 C.2     1  UNL1        0.2491
      2 O          51.1870   11.9981  -22.4344 O.2     1  UNL1       -0.2699
      3 N          48.9525   11.4134  -22.8228 N.am    1  UNL1       -0.2680
      4 C          47.9165   10.4685  -22.3898 C.3     1  UNL1        0.1412
      5 C          46.6649   11.2262  -21.9506 C.3     1  UNL1        0.2269
      6 O          46.4272   12.3661  -22.7744 O.3     1  UNL1       -0.4708
      7 C          46.4309   12.2920  -24.1693 C.ar    1  UNL1        0.1696
      8 C          45.2323   12.5162  -24.8668 C.ar    1  UNL1        0.1675
      9 O          44.0524   12.8240  -24.1895 O.3     1  UNL1       -0.5029
     10 C          45.2041   12.4200  -26.2595 C.ar    1  UNL1        0.0398
     11 C          46.3675   12.1102  -26.9802 C.ar    1  UNL1        0.0030
     12 C          47.5692   11.9100  -26.2810 C.ar    1  UNL1        0.0006
     13 C          47.6171   11.9912  -24.8790 C.ar    1  UNL1        0.0347
     14 C          48.9786   11.9154  -24.2065 C.3     1  UNL1        0.1237
     15 H          44.0137   12.9022  -23.1804 H       1  UNL1        0.2923
     16 C          46.3333   12.0114  -28.4615 C.ar    1  UNL1        0.0016
     17 C          46.6088   10.7741  -29.1086 C.ar    1  UNL1        0.0016
     18 C          46.5794   10.6714  -30.5121 C.ar    1  UNL1        0.0206
     19 C          46.2729   11.8166  -31.2392 C.ar    1  UNL1        0.0985
     20 N          46.1916   11.9467  -32.5755 N.ar    1  UNL1       -0.2241
     21 C          45.8684   13.2577  -32.7320 C.ar    1  UNL1        0.1750
     22 N          45.7496   13.9287  -31.5610 N.ar    1  UNL1       -0.3349
     23 C          46.0074   13.0033  -30.6297 C.ar    1  UNL1        0.0757
     24 C          46.0251   13.1501  -29.2456 C.ar    1  UNL1        0.0185
     25 H          45.5114   14.9357  -31.4214 H       1  UNL1        0.1675
     26 C          49.7448   12.9575  -19.7579 C.ar    1  UNL1       -0.0165
     27 C          49.5664   12.8992  -18.3647 C.ar    1  UNL1        0.0142
     28 C          49.5431   11.6702  -17.6951 C.ar    1  UNL1        0.1054
     29 C          49.6956   10.4839  -18.4196 C.ar    1  UNL1        0.0185
     30 C          49.8740   10.5240  -19.8028 C.ar    1  UNL1        0.0055
     31 C          49.8880   11.7493  -20.4842 C.ar    1  UNL1        0.0497
     32 S          49.2988   11.6206  -15.9525 S.O2    1  UNL1        0.0104
     33 C          49.2632   13.2804  -15.3158 C.3     1  UNL1        0.1816
     34 O          47.9996   10.9341  -15.6362 O.2     1  UNL1       -0.1686
     35 O          50.4186   10.8556  -15.3044 O.2     1  UNL1       -0.1686
     36 C          49.8373   14.3188  -20.4175 C.3     1  UNL1        0.0265
     37 C          48.9446   15.4009  -22.5414 C.3     1  UNL1        0.0004
     38 C          48.5978   14.6331  -21.2670 C.3     1  UNL1        0.0047
@<TRIPOS>BOND
     1    37    38    1
     2    38    36    1
     3    36    26    1
     4    26    27   ar
     5    27    28   ar
     6    28    32    1
     7    32    33    1
     8    32    34    2
     9    32    35    2
    10    28    29   ar
    11    29    30   ar
    12    30    31   ar
    13    31     1    1
    14     1     2    2
    15     1     3   am
    16     3     4    1
    17     4     5    1
    18     5     6    1
    19     6     7    1
    20     7     8   ar
    21     8     9    1
    22     8    10   ar
    23    10    11   ar
    24    11    16    1
    25    16    17   ar
    26    17    18   ar
    27    18    19   ar
    28    19    20   ar
    29    20    21   ar
    30    21    22   ar
    31    22    23   ar
    32    23    24   ar
    33    11    12   ar
    34    12    13   ar
    35    13    14    1
    36    31    26   ar
    37    14     3    1
    38    13     7   ar
    39    24    16   ar
    40    23    19   ar
    41     9    15    1
    42    22    25    1
@<TRIPOS>MOLECULE
*****
 38 42 0 0 0
SMALL
GASTEIGER

@<TRIPOS>ATOM
      1 C          49.4468   10.9314  -21.3020 C.2     1  UNL1        0.2491
      2 O          50.3931   10.2099  -21.7188 O.2     1  UNL1       -0.2699
      3 N          48.3844   11.3149  -22.1982 N.am    1  UNL1       -0.2680
      4 C          47.0195   11.4969  -21.6905 C.3     1  UNL1        0.1412
      5 C          46.7128   12.9847  -21.5299 C.3     1  UNL1        0.2269
      6 O          47.2954   13.7554  -22.5793 O.3     1  UNL1       -0.4708
      7 C          47.1434   13.4168  -23.9260 C.ar    1  UNL1        0.1696
      8 C          46.4119   14.2734  -24.7656 C.ar    1  UNL1        0.1675
      9 O          45.8534   15.4548  -24.2778 O.3     1  UNL1       -0.5029
     10 C          46.2221   13.9429  -26.1089 C.ar    1  UNL1        0.0398
     11 C          46.7644   12.7629  -26.6402 C.ar    1  UNL1        0.0030
     12 C          47.5152   11.9208  -25.8033 C.ar    1  UNL1        0.0006
     13 C          47.7089   12.2290  -24.4461 C.ar    1  UNL1        0.0347
     14 C          48.6579   11.3527  -23.6443 C.3     1  UNL1        0.1237
     15 H          45.9557   15.7419  -23.3118 H       1  UNL1        0.2923
     16 C          46.5621   12.4167  -28.0700 C.ar    1  UNL1        0.0016
     17 C          46.7018   11.0715  -28.5134 C.ar    1  UNL1        0.0016
     18 C          46.5125   10.7344  -29.8668 C.ar    1  UNL1        0.0206
     19 C          46.1857   11.7579  -30.7498 C.ar    1  UNL1        0.0985
     20 N          45.9641   11.6646  -32.0733 N.ar    1  UNL1       -0.2241
     21 C          45.6922   12.9491  -32.4250 C.ar    1  UNL1        0.1750
     22 N          45.7373   13.8157  -31.3846 N.ar    1  UNL1       -0.3349
     23 C          46.0493   13.0462  -30.3354 C.ar    1  UNL1        0.0757
     24 C          46.2270   13.4243  -29.0075 C.ar    1  UNL1        0.0185
     25 H          45.5671   14.8458  -31.4013 H       1  UNL1        0.1675
     26 C          50.2175   12.4624  -19.4427 C.ar    1  UNL1       -0.0165
     27 C          50.1549   12.8316  -18.0876 C.ar    1  UNL1        0.0142
     28 C          49.3580   12.1172  -17.1854 C.ar    1  UNL1        0.1054
     29 C          48.6113   11.0242  -17.6361 C.ar    1  UNL1        0.0185
     30 C          48.6625   10.6442  -18.9776 C.ar    1  UNL1        0.0055
     31 C          49.4491   11.3597  -19.8914 C.ar    1  UNL1        0.0497
     32 S          49.2799   12.6098  -15.4972 S.O2    1  UNL1        0.0104
     33 C          49.0109   11.1778  -14.4782 C.3     1  UNL1        0.1816
     34 O          50.5669   13.2754  -15.0972 O.2     1  UNL1       -0.1686
     35 O          48.1525   13.5850  -15.3046 O.2     1  UNL1       -0.1686
     36 C          51.1554   13.2257  -20.3562 C.3     1  UNL1        0.0265
     37 C          50.7588   14.4284  -22.5641 C.3     1  UNL1        0.0004
     38 C          50.4476   14.3865  -21.0691 C.3     1  UNL1        0.0047
@<TRIPOS>BOND
     1    37    38    1
     2    38    36    1
     3    36    26    1
     4    26    27   ar
     5    27    28   ar
     6    28    32    1
     7    32    33    1
     8    32    34    2
     9    32    35    2
    10    28    29   ar
    11    29    30   ar
    12    30    31   ar
    13    31     1    1
    14     1     2    2
    15     1     3   am
    16     3     4    1
    17     4     5    1
    18     5     6    1
    19     6     7    1
    20     7     8   ar
    21     8     9    1
    22     8    10   ar
    23    10    11   ar
    24    11    16    1
    25    16    17   ar
    26    17    18   ar
    27    18    19   ar
    28    19    20   ar
    29    20    21   ar
    30    21    22   ar
    31    22    23   ar
    32    23    24   ar
    33    11    12   ar
    34    12    13   ar
    35    13    14    1
    36    31    26   ar
    37    14     3    1
    38    13     7   ar
    39    24    16   ar
    40    23    19   ar
    41     9    15    1
    42    22    25    1
@<TRIPOS>MOLECULE
*****
 38 42 0 0 0
SMALL
GASTEIGER

@<TRIPOS>ATOM
      1 C          48.6600    9.6225  -21.2611 C.2     1  UNL1        0.2491
      2 O          48.1967    8.4506  -21.2203 O.2     1  UNL1       -0.2699
      3 N          49.1217   10.1717  -22.5117 N.am    1  UNL1       -0.2680
      4 C          48.9913   11.6086  -22.7803 C.3     1  UNL1        0.1412
      5 C          50.3363   12.3046  -22.5799 C.3     1  UNL1        0.2269
      6 O          51.4183   11.4920  -23.0307 O.3     1  UNL1       -0.4708
      7 C          51.4202   10.8829  -24.2879 C.ar    1  UNL1        0.1696
      8 C          52.3627   11.2964  -25.2440 C.ar    1  UNL1        0.1675
      9 O          53.2980   12.2887  -24.9502 O.3     1  UNL1       -0.5029
     10 C          52.3666   10.7227  -26.5170 C.ar    1  UNL1        0.0398
     11 C          51.4417    9.7233  -26.8555 C.ar    1  UNL1        0.0030
     12 C          50.5162    9.2958  -25.8892 C.ar    1  UNL1        0.0006
     13 C          50.4879    9.8676  -24.6060 C.ar    1  UNL1        0.0347
     14 C          49.5639    9.2483  -23.5695 C.3     1  UNL1        0.1237
     15 H          53.3382   12.7420  -24.0453 H       1  UNL1        0.2923
     16 C          51.4512    9.1142  -28.2098 C.ar    1  UNL1        0.0016
     17 C          52.5993    9.2265  -29.0434 C.ar    1  UNL1        0.0016
     18 C          52.6169    8.6529  -30.3286 C.ar    1  UNL1        0.0206
     19 C          51.4780    7.9763  -30.7517 C.ar    1  UNL1        0.0985
     20 N          51.2761    7.3600  -31.9302 N.ar    1  UNL1       -0.2241
     21 C          50.0110    6.8786  -31.8062 C.ar    1  UNL1        0.1750
     22 N          49.4357    7.1708  -30.6149 N.ar    1  UNL1       -0.3349
     23 C          50.3763    7.8631  -29.9620 C.ar    1  UNL1        0.0757
     24 C          50.3153    8.4140  -28.6851 C.ar    1  UNL1        0.0185
     25 H          48.4788    6.9133  -30.2856 H       1  UNL1        0.1675
     26 C          47.5825   11.1211  -19.5324 C.ar    1  UNL1       -0.0165
     27 C          47.6914   11.8330  -18.3251 C.ar    1  UNL1        0.0142
     28 C          48.8955   11.8554  -17.6116 C.ar    1  UNL1        0.1054
     29 C          50.0042   11.1588  -18.1022 C.ar    1  UNL1        0.0185
     30 C          49.9132   10.4477  -19.2991 C.ar    1  UNL1        0.0055
     31 C          48.7087   10.4101  -20.0158 C.ar    1  UNL1        0.0497
     32 S          49.0029   12.7375  -16.0919 S.O2    1  UNL1        0.0104
     33 C          50.7028   12.8170  -15.5766 C.3     1  UNL1        0.1816
     34 O          48.4667   14.1305  -16.2686 O.2     1  UNL1       -0.1686
     35 O          48.1891   12.0374  -15.0399 O.2     1  UNL1       -0.1686
     36 C          46.2771   11.1954  -20.2988 C.3     1  UNL1        0.0265
     37 C          44.0322   11.7598  -19.2404 C.3     1  UNL1        0.0004
     38 C          45.3587   12.3045  -19.7669 C.3     1  UNL1        0.0047
@<TRIPOS>BOND
     1    37    38    1
     2    38    36    1
     3    36    26    1
     4    26    27   ar
     5    27    28   ar
     6    28    32    1
     7    32    33    1
     8    32    34    2
     9    32    35    2
    10    28    29   ar
    11    29    30   ar
    12    30    31   ar
    13    31     1    1
    14     1     2    2
    15     1     3   am
    16     3     4    1
    17     4     5    1
    18     5     6    1
    19     6     7    1
    20     7     8   ar
    21     8     9    1
    22     8    10   ar
    23    10    11   ar
    24    11    16    1
    25    16    17   ar
    26    17    18   ar
    27    18    19   ar
    28    19    20   ar
    29    20    21   ar
    30    21    22   ar
    31    22    23   ar
    32    23    24   ar
    33    11    12   ar
    34    12    13   ar
    35    13    14    1
    36    31    26   ar
    37    14     3    1
    38    13     7   ar
    39    24    16   ar
    40    23    19   ar
    41     9    15    1
    42    22    25    1
@<TRIPOS>MOLECULE
*****
 38 42 0 0 0
SMALL
GASTEIGER

@<TRIPOS>ATOM
      1 C          45.9446   12.0094  -25.9759 C.2     1  UNL1        0.2491
      2 O          44.8817   11.5902  -25.4429 O.2     1  UNL1       -0.2699
      3 N          47.1366   12.1664  -25.1800 N.am    1  UNL1       -0.2680
      4 C          48.4587   11.9508  -25.7796 C.3     1  UNL1        0.1412
      5 C          49.1201   13.2924  -26.0893 C.3     1  UNL1        0.2269
      6 O          48.8370   14.2606  -25.0809 O.3     1  UNL1       -0.4708
      7 C          49.0032   13.9908  -23.7204 C.ar    1  UNL1        0.1696
      8 C          49.9921   14.6852  -23.0038 C.ar    1  UNL1        0.1675
      9 O          50.7926   15.6432  -23.6261 O.3     1  UNL1       -0.5029
     10 C          50.1966   14.4131  -21.6496 C.ar    1  UNL1        0.0398
     11 C          49.4154   13.4555  -20.9851 C.ar    1  UNL1        0.0030
     12 C          48.4118   12.7802  -21.6992 C.ar    1  UNL1        0.0006
     13 C          48.1969   13.0309  -23.0650 C.ar    1  UNL1        0.0347
     14 C          46.9962   12.3766  -23.7297 C.3     1  UNL1        0.1237
     15 H          50.6912   15.8775  -24.6063 H       1  UNL1        0.2923
     16 C          49.6347   13.1712  -19.5442 C.ar    1  UNL1        0.0016
     17 C          48.5282   13.0277  -18.6606 C.ar    1  UNL1        0.0016
     18 C          48.7267   12.7588  -17.2933 C.ar    1  UNL1        0.0206
     19 C          50.0360   12.6391  -16.8400 C.ar    1  UNL1        0.0985
     20 N          50.4539   12.3889  -15.5862 N.ar    1  UNL1       -0.2241
     21 C          51.8071   12.3819  -15.7148 C.ar    1  UNL1        0.1750
     22 N          52.2310   12.6148  -16.9803 N.ar    1  UNL1       -0.3349
     23 C          51.0997   12.7739  -17.6769 C.ar    1  UNL1        0.0757
     24 C          50.9499   13.0395  -19.0351 C.ar    1  UNL1        0.0185
     25 H          53.2145   12.6589  -17.3283 H       1  UNL1        0.1675
     26 C          45.8329   13.6512  -27.8962 C.ar    1  UNL1       -0.0165
     27 C          45.8594   13.8806  -29.2829 C.ar    1  UNL1        0.0142
     28 C          45.9764   12.8159  -30.1841 C.ar    1  UNL1        0.1054
     29 C          46.0718   11.5071  -29.7011 C.ar    1  UNL1        0.0185
     30 C          46.0466   11.2620  -28.3278 C.ar    1  UNL1        0.0055
     31 C          45.9405   12.3222  -27.4166 C.ar    1  UNL1        0.0497
     32 S          46.0272   13.1287  -31.9157 S.O2    1  UNL1        0.0104
     33 C          44.5342   12.5223  -32.6673 C.3     1  UNL1        0.1816
     34 O          46.1509   14.6056  -32.1666 O.2     1  UNL1       -0.1686
     35 O          47.2149   12.4355  -32.5222 O.2     1  UNL1       -0.1686
     36 C          45.6284   14.8351  -26.9725 C.3     1  UNL1        0.0265
     37 C          47.4057   16.6319  -27.2756 C.3     1  UNL1        0.0004
     38 C          45.9999   16.1633  -27.6469 C.3     1  UNL1        0.0047
@<TRIPOS>BOND
     1    37    38    1
     2    38    36    1
     3    36    26    1
     4    26    27   ar
     5    27    28   ar
     6    28    32    1
     7    32    33    1
     8    32    34    2
     9    32    35    2
    10    28    29   ar
    11    29    30   ar
    12    30    31   ar
    13    31     1    1
    14     1     2    2
    15     1     3   am
    16     3     4    1
    17     4     5    1
    18     5     6    1
    19     6     7    1
    20     7     8   ar
    21     8     9    1
    22     8    10   ar
    23    10    11   ar
    24    11    16    1
    25    16    17   ar
    26    17    18   ar
    27    18    19   ar
    28    19    20   ar
    29    20    21   ar
    30    21    22   ar
    31    22    23   ar
    32    23    24   ar
    33    11    12   ar
    34    12    13   ar
    35    13    14    1
    36    31    26   ar
    37    14     3    1
    38    13     7   ar
    39    24    16   ar
    40    23    19   ar
    41     9    15    1
    42    22    25    1
@<TRIPOS>MOLECULE
*****
 38 42 0 0 0
SMALL
GASTEIGER

@<TRIPOS>ATOM
      1 C          46.7013   12.1908  -20.5161 C.2     1  UNL1        0.2491
      2 O          45.4869   11.8600  -20.4426 O.2     1  UNL1       -0.2699
      3 N          47.2875   12.5008  -21.7965 N.am    1  UNL1       -0.2680
      4 C          48.3541   13.5038  -21.8970 C.3     1  UNL1        0.1412
      5 C          49.7114   12.8157  -22.0300 C.3     1  UNL1        0.2269
      6 O          49.6262   11.6415  -22.8353 O.3     1  UNL1       -0.4708
      7 C          49.0062   11.6391  -24.0871 C.ar    1  UNL1        0.1696
      8 C          49.7873   11.4194  -25.2339 C.ar    1  UNL1        0.1675
      9 O          51.1598   11.1908  -25.1368 O.3     1  UNL1       -0.5029
     10 C          49.1956   11.4403  -26.4985 C.ar    1  UNL1        0.0398
     11 C          47.8187   11.6692  -26.6419 C.ar    1  UNL1        0.0030
     12 C          47.0370   11.8649  -25.4913 C.ar    1  UNL1        0.0006
     13 C          47.6142   11.8588  -24.2102 C.ar    1  UNL1        0.0347
     14 C          46.6844   11.9233  -23.0090 C.3     1  UNL1        0.1237
     15 H          51.6420   11.1692  -24.2463 H       1  UNL1        0.2923
     16 C          47.1934   11.6880  -27.9886 C.ar    1  UNL1        0.0016
     17 C          47.0541   10.4849  -28.7363 C.ar    1  UNL1        0.0016
     18 C          46.4632   10.4935  -30.0138 C.ar    1  UNL1        0.0206
     19 C          46.0230   11.7134  -30.5158 C.ar    1  UNL1        0.0985
     20 N          45.4368   11.9525  -31.7026 N.ar    1  UNL1       -0.2241
     21 C          45.2243   13.2946  -31.6694 C.ar    1  UNL1        0.1750
     22 N          45.6507   13.8813  -30.5250 N.ar    1  UNL1       -0.3349
     23 C          46.1511   12.8681  -29.8085 C.ar    1  UNL1        0.0757
     24 C          46.7284   12.9060  -28.5424 C.ar    1  UNL1        0.0185
     25 H          45.5990   14.8914  -30.2655 H       1  UNL1        0.1675
     26 C          48.3000   11.1805  -18.8372 C.ar    1  UNL1       -0.0165
     27 C          49.0494   11.3231  -17.6564 C.ar    1  UNL1        0.0142
     28 C          48.9954   12.5066  -16.9109 C.ar    1  UNL1        0.1054
     29 C          48.1892   13.5630  -17.3461 C.ar    1  UNL1        0.0185
     30 C          47.4388   13.4377  -18.5157 C.ar    1  UNL1        0.0055
     31 C          47.4942   12.2605  -19.2752 C.ar    1  UNL1        0.0497
     32 S          49.9577   12.6699  -15.4458 S.O2    1  UNL1        0.0104
     33 C          49.7417   11.2227  -14.4356 C.3     1  UNL1        0.1816
     34 O          51.4104   12.8216  -15.8008 O.2     1  UNL1       -0.1686
     35 O          49.5180   13.8879  -14.6828 O.2     1  UNL1       -0.1686
     36 C          48.3398    9.8496  -19.5610 C.3     1  UNL1        0.0265
     37 C          49.5276    8.9638  -21.6307 C.3     1  UNL1        0.0004
     38 C          49.6876    9.6118  -20.2566 C.3     1  UNL1        0.0047
@<TRIPOS>BOND
     1    37    38    1
     2    38    36    1
     3    36    26    1
     4    26    27   ar
     5    27    28   ar
     6    28    32    1
     7    32    33    1
     8    32    34    2
     9    32    35    2
    10    28    29   ar
    11    29    30   ar
    12    30    31   ar
    13    31     1    1
    14     1     2    2
    15     1     3   am
    16     3     4    1
    17     4     5    1
    18     5     6    1
    19     6     7    1
    20     7     8   ar
    21     8     9    1
    22     8    10   ar
    23    10    11   ar
    24    11    16    1
    25    16    17   ar
    26    17    18   ar
    27    18    19   ar
    28    19    20   ar
    29    20    21   ar
    30    21    22   ar
    31    22    23   ar
    32    23    24   ar
    33    11    12   ar
    34    12    13   ar
    35    13    14    1
    36    31    26   ar
    37    14     3    1
    38    13     7   ar
    39    24    16   ar
    40    23    19   ar
    41     9    15    1
    42    22    25    1
