@<TRIPOS>MOLECULE
*****
 53 59 0 0 0
SMALL
GASTEIGER

@<TRIPOS>ATOM
      1 C          60.9652   85.4826   11.8300 C.ar    1  UNL1        0.0481
      2 C          62.3521   85.3564   11.9967 C.ar    1  UNL1        0.0176
      3 C          62.8703   84.5516   13.0144 C.ar    1  UNL1        0.0382
      4 C          62.0184   83.8570   13.8815 C.ar    1  UNL1        0.1388
      5 C          60.6237   83.9834   13.7131 C.ar    1  UNL1        0.0382
      6 C          60.1060   84.7891   12.6946 C.ar    1  UNL1        0.0176
      7 N          60.1429   87.7336    8.3425 N.pl3   1  UNL1       -0.2968
      8 C          61.1333   88.1568    9.3462 C.3     1  UNL1        0.1126
      9 C          60.7051   87.7434   10.7521 C.3     1  UNL1        0.1123
     10 N          60.4320   86.3047   10.7768 N.pl3   1  UNL1       -0.3036
     11 C          59.6778   85.6775    9.6831 C.3     1  UNL1        0.1221
     12 C          59.1222   86.7161    8.6843 C.3     1  UNL1        0.1924
     13 C          59.8712   90.0617    4.7773 C.ar    1  UNL1        0.0699
     14 C          61.1159   89.6024    5.2403 C.ar    1  UNL1        0.0190
     15 C          61.2019   88.8425    6.4099 C.ar    1  UNL1        0.0160
     16 C          60.0447   88.5164    7.1330 C.ar    1  UNL1        0.0484
     17 C          58.7995   88.9742    6.6722 C.ar    1  UNL1        0.0160
     18 C          58.7130   89.7355    5.5035 C.ar    1  UNL1        0.0190
     19 N          60.2913   92.0007    1.7397 N.ar    1  UNL1       -0.2024
     20 N          58.9687   91.9383    1.7999 N.ar    1  UNL1       -0.1442
     21 C          58.6717   91.2354    2.9146 C.ar    1  UNL1        0.2073
     22 N          59.7885   90.8403    3.5677 N.ar    1  UNL1       -0.2398
     23 C          60.7807   91.3271    2.7961 C.ar    1  UNL1        0.3522
     24 O          62.0092   91.1400    3.0086 O.2     1  UNL1       -0.2444
     25 C          61.0475   92.6145    0.6436 C.3     1  UNL1        0.1099
     26 C          60.1509   93.6029   -0.1138 C.3     1  UNL1        0.0265
     27 C          62.7886   91.9777   -1.1192 C.3     1  UNL1        0.0021
     28 C          61.6028   91.5089   -0.2757 C.3     1  UNL1        0.0245
     29 C          58.6300   85.9900    7.4589 C.2     1  UNL1        0.3337
     30 O          57.5632   85.3209    7.5080 O.2     1  UNL1       -0.2484
     31 O          59.3673   86.0340    6.2788 O.3     1  UNL1       -0.4790
     32 H          59.0505   85.5456    5.4499 H       1  UNL1        0.2951
     33 O          62.6092   83.0630   14.8807 O.3     1  UNL1       -0.4727
     34 C          63.5850   82.0361   14.6886 C.3     1  UNL1        0.2374
     35 C          62.9230   80.6543   14.5474 C.3     1  UNL1        0.1909
     36 C          61.4224   80.6890   14.5624 C.3     1  UNL1        0.1783
     37 O          61.0290   80.7541   13.2305 O.3     1  UNL1       -0.3266
     38 C          62.1334   80.3050   12.4693 C.3     1  UNL1        0.2315
     39 O          63.2581   80.1079   13.3105 O.3     1  UNL1       -0.3254
     40 C          62.4559   81.3385   11.3838 C.ar    1  UNL1        0.0410
     41 C          63.8016   81.5790   11.0257 C.ar    1  UNL1        0.0022
     42 C          64.1268   82.4935   10.0230 C.ar    1  UNL1        0.0113
     43 C          63.1195   83.1770    9.3446 C.ar    1  UNL1        0.0585
     44 CL         63.5326   84.3234    8.0828 Cl      1  UNL1       -0.0822
     45 C          61.7821   82.9381    9.6613 C.ar    1  UNL1        0.0226
     46 C          61.4388   82.0224   10.6640 C.ar    1  UNL1        0.0591
     47 CL         59.7194   81.7609   10.9497 Cl      1  UNL1       -0.0824
     48 C          61.7702   78.9521   11.8243 C.3     1  UNL1        0.1897
     49 N          60.3331   78.6954   11.8983 N.ar    1  UNL1       -0.2246
     50 C          59.4550   78.7256   10.8825 C.ar    1  UNL1        0.1974
     51 N          58.2211   78.3811   11.2976 N.ar    1  UNL1       -0.2007
     52 C          58.4129   78.1410   12.6140 C.ar    1  UNL1        0.2210
     53 N          59.6935   78.3232   12.9911 N.ar    1  UNL1       -0.1450
@<TRIPOS>BOND
     1    27    28    1
     2    28    25    1
     3    25    26    1
     4    25    19    1
     5    19    20   ar
     6    20    21   ar
     7    21    22   ar
     8    22    13    1
     9    13    14   ar
    10    14    15   ar
    11    15    16   ar
    12    16     7    1
    13     7     8    1
    14     8     9    1
    15     9    10    1
    16    10     1    1
    17     1     2   ar
    18     2     3   ar
    19     3     4   ar
    20     4    33    1
    21    33    34    1
    22    34    35    1
    23    35    36    1
    24    36    37    1
    25    37    38    1
    26    38    48    1
    27    48    49    1
    28    49    50   ar
    29    50    51   ar
    30    51    52   ar
    31    52    53   ar
    32    38    40    1
    33    40    41   ar
    34    41    42   ar
    35    42    43   ar
    36    43    44    1
    37    43    45   ar
    38    45    46   ar
    39    46    47    1
    40    38    39    1
    41     4     5   ar
    42     5     6   ar
    43    10    11    1
    44    11    12    1
    45    12    29    1
    46    29    30    2
    47    29    31    1
    48    16    17   ar
    49    17    18   ar
    50    22    23   ar
    51    23    24    2
    52    23    19   ar
    53    18    13   ar
    54    12     7    1
    55     6     1   ar
    56    39    35    1
    57    53    49   ar
    58    46    40   ar
    59    31    32    1
@<TRIPOS>MOLECULE
*****
 53 59 0 0 0
SMALL
GASTEIGER

@<TRIPOS>ATOM
      1 C          59.3240   84.2900   10.3574 C.ar    1  UNL1        0.0481
      2 C          60.0379   84.1384   11.5551 C.ar    1  UNL1        0.0176
      3 C          59.6160   83.2165   12.5165 C.ar    1  UNL1        0.0382
      4 C          58.4791   82.4284   12.3019 C.ar    1  UNL1        0.1388
      5 C          57.7618   82.5804   11.0970 C.ar    1  UNL1        0.0382
      6 C          58.1844   83.5033   10.1357 C.ar    1  UNL1        0.0176
      7 N          59.8213   87.3794    7.5089 N.pl3   1  UNL1       -0.2968
      8 C          58.9816   86.1962    7.2594 C.3     1  UNL1        0.1126
      9 C          59.5576   84.9574    7.9406 C.3     1  UNL1        0.1123
     10 N          59.7633   85.2333    9.3643 N.pl3   1  UNL1       -0.3036
     11 C          60.3483   86.5115    9.7915 C.3     1  UNL1        0.1221
     12 C          60.8267   87.3648    8.5966 C.3     1  UNL1        0.1924
     13 C          59.8050   90.4824    4.5805 C.ar    1  UNL1        0.0699
     14 C          60.9590   89.7116    4.8016 C.ar    1  UNL1        0.0190
     15 C          60.9620   88.6978    5.7635 C.ar    1  UNL1        0.0160
     16 C          59.8085   88.4265    6.5145 C.ar    1  UNL1        0.0484
     17 C          58.6539   89.1954    6.2952 C.ar    1  UNL1        0.0160
     18 C          58.6507   90.2103    5.3347 C.ar    1  UNL1        0.0190
     19 N          59.8181   92.6293    1.6558 N.ar    1  UNL1       -0.2024
     20 N          59.7493   93.5391    2.6171 N.ar    1  UNL1       -0.1442
     21 C          59.7465   92.8592    3.7845 C.ar    1  UNL1        0.2073
     22 N          59.8066   91.5227    3.5836 N.ar    1  UNL1       -0.2398
     23 C          59.8377   91.4179    2.2402 C.ar    1  UNL1        0.3522
     24 O          59.8398   90.3272    1.6078 O.2     1  UNL1       -0.2444
     25 C          59.7728   92.9281    0.2209 C.3     1  UNL1        0.1099
     26 C          58.5128   92.3079   -0.3973 C.3     1  UNL1        0.0265
     27 C          62.3113   93.1681    0.0138 C.3     1  UNL1        0.0021
     28 C          61.0633   92.4158   -0.4485 C.3     1  UNL1        0.0245
     29 C          61.1313   88.7559    9.0898 C.2     1  UNL1        0.3337
     30 O          62.2159   89.3141    8.7733 O.2     1  UNL1       -0.2484
     31 O          60.2279   89.4154    9.9188 O.3     1  UNL1       -0.4790
     32 H          60.4233   90.3483   10.2618 H       1  UNL1        0.2951
     33 O          58.1146   81.5190   13.3109 O.3     1  UNL1       -0.4727
     34 C          58.4396   80.1279   13.3638 C.3     1  UNL1        0.2374
     35 C          59.9617   79.9106   13.4228 C.3     1  UNL1        0.1909
     36 C          60.3876   78.4904   13.1884 C.3     1  UNL1        0.1783
     37 O          60.6622   78.3940   11.8288 O.3     1  UNL1       -0.3266
     38 C          60.8669   79.7169   11.3717 C.3     1  UNL1        0.2315
     39 O          60.5706   80.6417   12.4053 O.3     1  UNL1       -0.3254
     40 C          59.9735   79.9771   10.1532 C.ar    1  UNL1        0.0410
     41 C          60.4470   80.7929    9.1010 C.ar    1  UNL1        0.0022
     42 C          59.6690   81.0272    7.9665 C.ar    1  UNL1        0.0113
     43 C          58.4096   80.4426    7.8475 C.ar    1  UNL1        0.0585
     44 CL         57.4363   80.7373    6.4183 Cl      1  UNL1       -0.0822
     45 C          57.9301   79.6122    8.8606 C.ar    1  UNL1        0.0226
     46 C          58.6989   79.3656   10.0051 C.ar    1  UNL1        0.0591
     47 CL         58.0184   78.2633   11.2002 Cl      1  UNL1       -0.0824
     48 C          62.3513   79.8817   10.9875 C.3     1  UNL1        0.1897
     49 N          62.9861   80.9483   11.7596 N.ar    1  UNL1       -0.2246
     50 C          63.1729   82.2213   11.3744 C.ar    1  UNL1        0.1974
     51 N          63.7372   82.9478   12.3578 N.ar    1  UNL1       -0.2007
     52 C          63.8729   82.0397   13.3499 C.ar    1  UNL1        0.2210
     53 N          63.4152   80.8214   13.0012 N.ar    1  UNL1       -0.1450
@<TRIPOS>BOND
     1    27    28    1
     2    28    25    1
     3    25    26    1
     4    25    19    1
     5    19    20   ar
     6    20    21   ar
     7    21    22   ar
     8    22    13    1
     9    13    14   ar
    10    14    15   ar
    11    15    16   ar
    12    16     7    1
    13     7     8    1
    14     8     9    1
    15     9    10    1
    16    10     1    1
    17     1     2   ar
    18     2     3   ar
    19     3     4   ar
    20     4    33    1
    21    33    34    1
    22    34    35    1
    23    35    36    1
    24    36    37    1
    25    37    38    1
    26    38    48    1
    27    48    49    1
    28    49    50   ar
    29    50    51   ar
    30    51    52   ar
    31    52    53   ar
    32    38    40    1
    33    40    41   ar
    34    41    42   ar
    35    42    43   ar
    36    43    44    1
    37    43    45   ar
    38    45    46   ar
    39    46    47    1
    40    38    39    1
    41     4     5   ar
    42     5     6   ar
    43    10    11    1
    44    11    12    1
    45    12    29    1
    46    29    30    2
    47    29    31    1
    48    16    17   ar
    49    17    18   ar
    50    22    23   ar
    51    23    24    2
    52    23    19   ar
    53    18    13   ar
    54    12     7    1
    55     6     1   ar
    56    39    35    1
    57    53    49   ar
    58    46    40   ar
    59    31    32    1
@<TRIPOS>MOLECULE
*****
 53 59 0 0 0
SMALL
GASTEIGER

@<TRIPOS>ATOM
      1 C          59.2648   84.1674    9.8089 C.ar    1  UNL1        0.0481
      2 C          58.8997   82.8963    9.3417 C.ar    1  UNL1        0.0176
      3 C          58.4500   81.9190   10.2332 C.ar    1  UNL1        0.0382
      4 C          58.3533   82.1900   11.6032 C.ar    1  UNL1        0.1388
      5 C          58.7196   83.4686   12.0727 C.ar    1  UNL1        0.0382
      6 C          59.1699   84.4459   11.1801 C.ar    1  UNL1        0.0176
      7 N          59.7977   87.4245    7.1607 N.pl3   1  UNL1       -0.2968
      8 C          59.0018   86.2369    6.8095 C.3     1  UNL1        0.1126
      9 C          59.5821   84.9761    7.4454 C.3     1  UNL1        0.1123
     10 N          59.7199   85.1760    8.8898 N.pl3   1  UNL1       -0.3036
     11 C          60.2513   86.4421    9.4124 C.3     1  UNL1        0.1221
     12 C          60.7563   87.3732    8.2888 C.3     1  UNL1        0.1924
     13 C          59.8219   90.6857    4.4096 C.ar    1  UNL1        0.0699
     14 C          60.9524   89.8644    4.5576 C.ar    1  UNL1        0.0190
     15 C          60.9424   88.7987    5.4616 C.ar    1  UNL1        0.0160
     16 C          59.7984   88.5256    6.2264 C.ar    1  UNL1        0.0484
     17 C          58.6672   89.3449    6.0802 C.ar    1  UNL1        0.0160
     18 C          58.6772   90.4117    5.1776 C.ar    1  UNL1        0.0190
     19 N          59.8489   92.9915    1.6087 N.ar    1  UNL1       -0.2024
     20 N          59.8198   93.8477    2.6200 N.ar    1  UNL1       -0.1442
     21 C          59.8164   93.1040    3.7477 C.ar    1  UNL1        0.2073
     22 N          59.8366   91.7797    3.4721 N.ar    1  UNL1       -0.2398
     23 C          59.8442   91.7493    2.1246 C.ar    1  UNL1        0.3522
     24 O          59.8067   90.6960    1.4328 O.2     1  UNL1       -0.2444
     25 C          59.7898   93.3711    0.1935 C.3     1  UNL1        0.1099
     26 C          58.5262   92.7823   -0.4478 C.3     1  UNL1        0.0265
     27 C          62.3425   93.5046    0.0932 C.3     1  UNL1        0.0021
     28 C          61.0758   92.9025   -0.5152 C.3     1  UNL1        0.0245
     29 C          61.0018   88.7413    8.8713 C.2     1  UNL1        0.3337
     30 O          62.1133   89.3099    8.6997 O.2     1  UNL1       -0.2484
     31 O          60.0115   89.3671    9.6237 O.3     1  UNL1       -0.4790
     32 H          60.1660   90.2839   10.0255 H       1  UNL1        0.2951
     33 O          57.8896   81.1605   12.4417 O.3     1  UNL1       -0.4727
     34 C          58.3547   79.8090   12.4706 C.3     1  UNL1        0.2374
     35 C          59.2868   79.5632   13.6699 C.3     1  UNL1        0.1909
     36 C          60.1573   78.3483   13.5307 C.3     1  UNL1        0.1783
     37 O          61.3565   78.7982   12.9899 O.3     1  UNL1       -0.3266
     38 C          61.4039   80.1904   13.2358 C.3     1  UNL1        0.2315
     39 O          60.1743   80.6304   13.7889 O.3     1  UNL1       -0.3254
     40 C          61.6908   80.9286   11.9231 C.ar    1  UNL1        0.0410
     41 C          62.0783   82.2871   11.9557 C.ar    1  UNL1        0.0022
     42 C          62.3725   82.9796   10.7803 C.ar    1  UNL1        0.0113
     43 C          62.3023   82.3312    9.5488 C.ar    1  UNL1        0.0585
     44 CL         62.6758   83.2047    8.0742 Cl      1  UNL1       -0.0822
     45 C          61.9475   80.9833    9.4919 C.ar    1  UNL1        0.0226
     46 C          61.6507   80.2735   10.6623 C.ar    1  UNL1        0.0591
     47 CL         61.2618   78.5640   10.4807 Cl      1  UNL1       -0.0824
     48 C          62.5221   80.4724   14.2598 C.3     1  UNL1        0.1897
     49 N          62.6847   81.9068   14.4895 N.ar    1  UNL1       -0.2246
     50 C          63.8002   82.6317   14.3058 C.ar    1  UNL1        0.1974
     51 N          63.5783   83.9358   14.5580 N.ar    1  UNL1       -0.2007
     52 C          62.2701   83.9483   14.8982 C.ar    1  UNL1        0.2210
     53 N          61.7134   82.7221   14.8554 N.ar    1  UNL1       -0.1450
@<TRIPOS>BOND
     1    27    28    1
     2    28    25    1
     3    25    26    1
     4    25    19    1
     5    19    20   ar
     6    20    21   ar
     7    21    22   ar
     8    22    13    1
     9    13    14   ar
    10    14    15   ar
    11    15    16   ar
    12    16     7    1
    13     7     8    1
    14     8     9    1
    15     9    10    1
    16    10     1    1
    17     1     2   ar
    18     2     3   ar
    19     3     4   ar
    20     4    33    1
    21    33    34    1
    22    34    35    1
    23    35    36    1
    24    36    37    1
    25    37    38    1
    26    38    48    1
    27    48    49    1
    28    49    50   ar
    29    50    51   ar
    30    51    52   ar
    31    52    53   ar
    32    38    40    1
    33    40    41   ar
    34    41    42   ar
    35    42    43   ar
    36    43    44    1
    37    43    45   ar
    38    45    46   ar
    39    46    47    1
    40    38    39    1
    41     4     5   ar
    42     5     6   ar
    43    10    11    1
    44    11    12    1
    45    12    29    1
    46    29    30    2
    47    29    31    1
    48    16    17   ar
    49    17    18   ar
    50    22    23   ar
    51    23    24    2
    52    23    19   ar
    53    18    13   ar
    54    12     7    1
    55     6     1   ar
    56    39    35    1
    57    53    49   ar
    58    46    40   ar
    59    31    32    1
@<TRIPOS>MOLECULE
*****
 53 59 0 0 0
SMALL
GASTEIGER

@<TRIPOS>ATOM
      1 C          59.2350   83.9201    9.5923 C.ar    1  UNL1        0.0481
      2 C          59.4364   82.5800    9.2307 C.ar    1  UNL1        0.0176
      3 C          58.9782   81.5498   10.0557 C.ar    1  UNL1        0.0382
      4 C          58.3101   81.8347   11.2525 C.ar    1  UNL1        0.1388
      5 C          58.1069   83.1825   11.6155 C.ar    1  UNL1        0.0382
      6 C          58.5659   84.2128   10.7895 C.ar    1  UNL1        0.0176
      7 N          59.7793   87.2859    7.0860 N.pl3   1  UNL1       -0.2968
      8 C          59.0752   86.0711    6.6434 C.3     1  UNL1        0.1126
      9 C          59.6756   84.8216    7.2827 C.3     1  UNL1        0.1123
     10 N          59.6995   84.9805    8.7385 N.pl3   1  UNL1       -0.3036
     11 C          60.1237   86.2543    9.3352 C.3     1  UNL1        0.1221
     12 C          60.6567   87.2468    8.2788 C.3     1  UNL1        0.1924
     13 C          59.8253   90.6316    4.4387 C.ar    1  UNL1        0.0699
     14 C          60.9480   89.7947    4.5557 C.ar    1  UNL1        0.0190
     15 C          60.9308   88.7012    5.4258 C.ar    1  UNL1        0.0160
     16 C          59.7873   88.4157    6.1868 C.ar    1  UNL1        0.0484
     17 C          58.6639   89.2506    6.0715 C.ar    1  UNL1        0.0160
     18 C          58.6810   90.3451    5.2029 C.ar    1  UNL1        0.0190
     19 N          59.8818   93.0237    1.7115 N.ar    1  UNL1       -0.2024
     20 N          59.8282   93.8477    2.7482 N.ar    1  UNL1       -0.1442
     21 C          59.8114   93.0692    3.8521 C.ar    1  UNL1        0.2073
     22 N          59.8472   91.7543    3.5359 N.ar    1  UNL1       -0.2398
     23 C          59.8783   91.7660    2.1885 C.ar    1  UNL1        0.3522
     24 O          59.8613   90.7345    1.4638 O.2     1  UNL1       -0.2444
     25 C          59.8440   93.4467    0.3080 C.3     1  UNL1        0.1099
     26 C          58.6712   92.7629   -0.4072 C.3     1  UNL1        0.0265
     27 C          61.0701   92.8372   -1.8529 C.3     1  UNL1        0.0021
     28 C          61.1975   93.1296   -0.3577 C.3     1  UNL1        0.0245
     29 C          60.7864   88.6057    8.9174 C.2     1  UNL1        0.3337
     30 O          59.7737   89.1699    9.4114 O.2     1  UNL1       -0.2484
     31 O          62.0193   89.2522    8.9373 O.3     1  UNL1       -0.4790
     32 H          62.1187   90.1681    9.3582 H       1  UNL1        0.2951
     33 O          57.8736   80.7484   12.0318 O.3     1  UNL1       -0.4727
     34 C          58.2479   80.4615   13.3813 C.3     1  UNL1        0.2374
     35 C          59.4041   79.4479   13.4381 C.3     1  UNL1        0.1909
     36 C          59.8871   78.9929   12.0916 C.3     1  UNL1        0.1783
     37 O          60.9474   79.8303   11.7637 O.3     1  UNL1       -0.3266
     38 C          61.3886   80.4046   12.9788 C.3     1  UNL1        0.2315
     39 O          60.5117   80.0464   14.0345 O.3     1  UNL1       -0.3254
     40 C          61.4453   81.9293   12.8289 C.ar    1  UNL1        0.0410
     41 C          60.9536   82.7523   13.8670 C.ar    1  UNL1        0.0022
     42 C          61.0155   84.1432   13.7728 C.ar    1  UNL1        0.0113
     43 C          61.5816   84.7450   12.6506 C.ar    1  UNL1        0.0585
     44 CL         61.6601   86.4937   12.5377 Cl      1  UNL1       -0.0822
     45 C          62.0978   83.9545   11.6237 C.ar    1  UNL1        0.0226
     46 C          62.0450   82.5571   11.7034 C.ar    1  UNL1        0.0591
     47 CL         62.7694   81.6550   10.3738 Cl      1  UNL1       -0.0824
     48 C          62.7898   79.8499   13.3062 C.3     1  UNL1        0.1897
     49 N          63.5950   80.8309   14.0314 N.ar    1  UNL1       -0.2246
     50 C          63.6983   80.9629   15.3639 C.ar    1  UNL1        0.1974
     51 N          64.5741   81.9329   15.6888 N.ar    1  UNL1       -0.2007
     52 C          64.9889   82.3685   14.4782 C.ar    1  UNL1        0.2210
     53 N          64.4054   81.7033   13.4621 N.ar    1  UNL1       -0.1450
@<TRIPOS>BOND
     1    27    28    1
     2    28    25    1
     3    25    26    1
     4    25    19    1
     5    19    20   ar
     6    20    21   ar
     7    21    22   ar
     8    22    13    1
     9    13    14   ar
    10    14    15   ar
    11    15    16   ar
    12    16     7    1
    13     7     8    1
    14     8     9    1
    15     9    10    1
    16    10     1    1
    17     1     2   ar
    18     2     3   ar
    19     3     4   ar
    20     4    33    1
    21    33    34    1
    22    34    35    1
    23    35    36    1
    24    36    37    1
    25    37    38    1
    26    38    48    1
    27    48    49    1
    28    49    50   ar
    29    50    51   ar
    30    51    52   ar
    31    52    53   ar
    32    38    40    1
    33    40    41   ar
    34    41    42   ar
    35    42    43   ar
    36    43    44    1
    37    43    45   ar
    38    45    46   ar
    39    46    47    1
    40    38    39    1
    41     4     5   ar
    42     5     6   ar
    43    10    11    1
    44    11    12    1
    45    12    29    1
    46    29    30    2
    47    29    31    1
    48    16    17   ar
    49    17    18   ar
    50    22    23   ar
    51    23    24    2
    52    23    19   ar
    53    18    13   ar
    54    12     7    1
    55     6     1   ar
    56    39    35    1
    57    53    49   ar
    58    46    40   ar
    59    31    32    1
@<TRIPOS>MOLECULE
*****
 53 59 0 0 0
SMALL
GASTEIGER

@<TRIPOS>ATOM
      1 C          60.8000   85.8682   11.4101 C.ar    1  UNL1        0.0481
      2 C          62.1529   85.7856   11.7709 C.ar    1  UNL1        0.0176
      3 C          62.5613   84.9147   12.7842 C.ar    1  UNL1        0.0382
      4 C          61.6320   84.1096   13.4537 C.ar    1  UNL1        0.1388
      5 C          60.2717   84.1921   13.0900 C.ar    1  UNL1        0.0382
      6 C          59.8638   85.0641   12.0762 C.ar    1  UNL1        0.0176
      7 N          60.2313   88.1545    7.8951 N.pl3   1  UNL1       -0.2968
      8 C          61.3578   88.3795    8.8158 C.3     1  UNL1        0.1126
      9 C          60.9522   88.1039   10.2615 C.3     1  UNL1        0.1123
     10 N          60.3810   86.7589   10.3612 N.pl3   1  UNL1       -0.3036
     11 C          59.4348   86.2815    9.3438 C.3     1  UNL1        0.1221
     12 C          59.0440   87.3898    8.3419 C.3     1  UNL1        0.1924
     13 C          60.1656   90.3740    4.2519 C.ar    1  UNL1        0.0699
     14 C          59.0572   90.3810    5.1155 C.ar    1  UNL1        0.0190
     15 C          59.0807   89.6507    6.3067 C.ar    1  UNL1        0.0160
     16 C          60.2167   88.9091    6.6640 C.ar    1  UNL1        0.0484
     17 C          61.3259   88.9007    5.8026 C.ar    1  UNL1        0.0160
     18 C          61.3024   89.6294    4.6105 C.ar    1  UNL1        0.0190
     19 N          60.7201   92.2993    1.2272 N.ar    1  UNL1       -0.2024
     20 N          59.4024   92.1642    1.1836 N.ar    1  UNL1       -0.1442
     21 C          59.0562   91.4583    2.2822 C.ar    1  UNL1        0.2073
     22 N          60.1373   91.1333    3.0276 N.ar    1  UNL1       -0.2398
     23 C          61.1597   91.6659    2.3293 C.ar    1  UNL1        0.3522
     24 O          62.3758   91.5498    2.6411 O.2     1  UNL1       -0.2444
     25 C          61.5268   92.9420    0.1848 C.3     1  UNL1        0.1099
     26 C          60.6314   93.8323   -0.6871 C.3     1  UNL1        0.0265
     27 C          63.2901   92.4414   -1.5997 C.3     1  UNL1        0.0021
     28 C          62.2524   91.8601   -0.6392 C.3     1  UNL1        0.0245
     29 C          58.3225   86.7560    7.1804 C.2     1  UNL1        0.3337
     30 O          57.2954   87.3058    6.6999 O.2     1  UNL1       -0.2484
     31 O          58.7727   85.5481    6.6547 O.3     1  UNL1       -0.4790
     32 H          58.2934   85.1088    5.8780 H       1  UNL1        0.2951
     33 O          62.1142   83.2541   14.4604 O.3     1  UNL1       -0.4727
     34 C          63.1193   82.2479   14.3157 C.3     1  UNL1        0.2374
     35 C          62.4936   80.8565   14.1152 C.3     1  UNL1        0.1909
     36 C          60.9937   80.8613   14.0583 C.3     1  UNL1        0.1783
     37 O          60.6632   80.9465   12.7105 O.3     1  UNL1       -0.3266
     38 C          61.8119   80.5353   11.9947 C.3     1  UNL1        0.2315
     39 O          62.8989   80.3429   12.8853 O.3     1  UNL1       -0.3254
     40 C          62.1647   81.5974   10.9470 C.ar    1  UNL1        0.0410
     41 C          61.1396   82.1730   10.1629 C.ar    1  UNL1        0.0022
     42 C          61.4243   83.1614    9.2197 C.ar    1  UNL1        0.0113
     43 C          62.7326   83.6091    9.0471 C.ar    1  UNL1        0.0585
     44 CL         63.0855   84.8537    7.8625 Cl      1  UNL1       -0.0822
     45 C          63.7587   83.0755    9.8271 C.ar    1  UNL1        0.0226
     46 C          63.4896   82.0841   10.7791 C.ar    1  UNL1        0.0591
     47 CL         64.8507   81.5146   11.7434 Cl      1  UNL1       -0.0824
     48 C          61.5082   79.1893   11.3061 C.3     1  UNL1        0.1897
     49 N          60.0705   78.9308   11.2525 N.ar    1  UNL1       -0.2246
     50 C          59.1875   79.4602   10.3901 C.ar    1  UNL1        0.1974
     51 N          57.9543   78.9566   10.5882 N.ar    1  UNL1       -0.2007
     52 C          58.1518   78.0967   11.6124 C.ar    1  UNL1        0.2210
     53 N          59.4350   78.0674   12.0222 N.ar    1  UNL1       -0.1450
@<TRIPOS>BOND
     1    27    28    1
     2    28    25    1
     3    25    26    1
     4    25    19    1
     5    19    20   ar
     6    20    21   ar
     7    21    22   ar
     8    22    13    1
     9    13    14   ar
    10    14    15   ar
    11    15    16   ar
    12    16     7    1
    13     7     8    1
    14     8     9    1
    15     9    10    1
    16    10     1    1
    17     1     2   ar
    18     2     3   ar
    19     3     4   ar
    20     4    33    1
    21    33    34    1
    22    34    35    1
    23    35    36    1
    24    36    37    1
    25    37    38    1
    26    38    48    1
    27    48    49    1
    28    49    50   ar
    29    50    51   ar
    30    51    52   ar
    31    52    53   ar
    32    38    40    1
    33    40    41   ar
    34    41    42   ar
    35    42    43   ar
    36    43    44    1
    37    43    45   ar
    38    45    46   ar
    39    46    47    1
    40    38    39    1
    41     4     5   ar
    42     5     6   ar
    43    10    11    1
    44    11    12    1
    45    12    29    1
    46    29    30    2
    47    29    31    1
    48    16    17   ar
    49    17    18   ar
    50    22    23   ar
    51    23    24    2
    52    23    19   ar
    53    18    13   ar
    54    12     7    1
    55     6     1   ar
    56    39    35    1
    57    53    49   ar
    58    46    40   ar
    59    31    32    1
@<TRIPOS>MOLECULE
*****
 53 59 0 0 0
SMALL
GASTEIGER

@<TRIPOS>ATOM
      1 C          58.7348   85.3774    8.7650 C.ar    1  UNL1        0.0481
      2 C          58.6087   85.3670   10.1618 C.ar    1  UNL1        0.0176
      3 C          58.3203   84.1775   10.8357 C.ar    1  UNL1        0.0382
      4 C          58.1553   82.9784   10.1323 C.ar    1  UNL1        0.1388
      5 C          58.2831   82.9889    8.7277 C.ar    1  UNL1        0.0382
      6 C          58.5713   84.1796    8.0541 C.ar    1  UNL1        0.0176
      7 N          59.7661   88.4592    6.0549 N.pl3   1  UNL1       -0.2968
      8 C          60.7511   87.4978    6.5771 C.3     1  UNL1        0.1126
      9 C          60.4186   87.0910    8.0105 C.3     1  UNL1        0.1123
     10 N          59.0399   86.6006    8.0722 N.pl3   1  UNL1       -0.3036
     11 C          57.9705   87.3127    7.3597 C.3     1  UNL1        0.1221
     12 C          58.4632   88.6371    6.7368 C.3     1  UNL1        0.1924
     13 C          61.1045   91.1875    3.0600 C.ar    1  UNL1        0.0699
     14 C          61.8725   90.0602    3.3974 C.ar    1  UNL1        0.0190
     15 C          61.4328   89.1700    4.3807 C.ar    1  UNL1        0.0160
     16 C          60.2114   89.3822    5.0375 C.ar    1  UNL1        0.0484
     17 C          59.4419   90.5081    4.7020 C.ar    1  UNL1        0.0160
     18 C          59.8818   91.3996    3.7199 C.ar    1  UNL1        0.0190
     19 N          61.9314   93.1148    0.0995 N.ar    1  UNL1       -0.2024
     20 N          62.5329   93.8413    1.0306 N.ar    1  UNL1       -0.1442
     21 C          62.3062   93.2156    2.2063 C.ar    1  UNL1        0.2073
     22 N          61.5607   92.0988    2.0415 N.ar    1  UNL1       -0.2398
     23 C          61.3359   92.0763    0.7127 C.ar    1  UNL1        0.3522
     24 O          60.6234   91.2199    0.1224 O.2     1  UNL1       -0.2444
     25 C          61.8631   93.4720   -1.3211 C.3     1  UNL1        0.1099
     26 C          60.7047   92.7191   -1.9889 C.3     1  UNL1        0.0265
     27 C          63.6913   91.7345   -1.7490 C.3     1  UNL1        0.0021
     28 C          63.2183   93.1682   -1.9898 C.3     1  UNL1        0.0245
     29 C          57.4065   89.1465    5.7908 C.2     1  UNL1        0.3337
     30 O          56.8001   88.3445    5.0311 O.2     1  UNL1       -0.2484
     31 O          57.1183   90.5074    5.7344 O.3     1  UNL1       -0.4790
     32 H          56.4145   90.8634    5.0989 H       1  UNL1        0.2951
     33 O          57.8700   81.8190   10.8755 O.3     1  UNL1       -0.4727
     34 C          58.3281   81.5176   12.1957 C.3     1  UNL1        0.2374
     35 C          59.4535   80.4687   12.1720 C.3     1  UNL1        0.1909
     36 C          59.8645   80.0417   10.7928 C.3     1  UNL1        0.1783
     37 O          60.9355   80.8569   10.4444 O.3     1  UNL1       -0.3266
     38 C          61.4455   81.3796   11.6559 C.3     1  UNL1        0.2315
     39 O          60.6035   81.0150   12.7374 O.3     1  UNL1       -0.3254
     40 C          61.5433   82.9058   11.5493 C.ar    1  UNL1        0.0410
     41 C          61.2368   83.7059   12.6731 C.ar    1  UNL1        0.0022
     42 C          61.3420   85.0962   12.6165 C.ar    1  UNL1        0.0113
     43 C          61.7690   85.7195   11.4455 C.ar    1  UNL1        0.0585
     44 CL         61.9027   87.4673   11.3798 Cl      1  UNL1       -0.0822
     45 C          62.1027   84.9506   10.3305 C.ar    1  UNL1        0.0226
     46 C          62.0041   83.5541   10.3712 C.ar    1  UNL1        0.0591
     47 CL         62.4965   82.6777    8.9235 Cl      1  UNL1       -0.0824
     48 C          62.8414   80.7734   11.9055 C.3     1  UNL1        0.1897
     49 N          63.5423   81.4744   12.9797 N.ar    1  UNL1       -0.2246
     50 C          63.3827   81.2917   14.3006 C.ar    1  UNL1        0.1974
     51 N          64.2327   82.0644   15.0034 N.ar    1  UNL1       -0.2007
     52 C          64.9088   82.7140   14.0297 C.ar    1  UNL1        0.2210
     53 N          64.5027   82.3606   12.7946 N.ar    1  UNL1       -0.1450
@<TRIPOS>BOND
     1    27    28    1
     2    28    25    1
     3    25    26    1
     4    25    19    1
     5    19    20   ar
     6    20    21   ar
     7    21    22   ar
     8    22    13    1
     9    13    14   ar
    10    14    15   ar
    11    15    16   ar
    12    16     7    1
    13     7     8    1
    14     8     9    1
    15     9    10    1
    16    10     1    1
    17     1     2   ar
    18     2     3   ar
    19     3     4   ar
    20     4    33    1
    21    33    34    1
    22    34    35    1
    23    35    36    1
    24    36    37    1
    25    37    38    1
    26    38    48    1
    27    48    49    1
    28    49    50   ar
    29    50    51   ar
    30    51    52   ar
    31    52    53   ar
    32    38    40    1
    33    40    41   ar
    34    41    42   ar
    35    42    43   ar
    36    43    44    1
    37    43    45   ar
    38    45    46   ar
    39    46    47    1
    40    38    39    1
    41     4     5   ar
    42     5     6   ar
    43    10    11    1
    44    11    12    1
    45    12    29    1
    46    29    30    2
    47    29    31    1
    48    16    17   ar
    49    17    18   ar
    50    22    23   ar
    51    23    24    2
    52    23    19   ar
    53    18    13   ar
    54    12     7    1
    55     6     1   ar
    56    39    35    1
    57    53    49   ar
    58    46    40   ar
    59    31    32    1
@<TRIPOS>MOLECULE
*****
 53 59 0 0 0
SMALL
GASTEIGER

@<TRIPOS>ATOM
      1 C          61.2696   86.2482   10.6362 C.ar    1  UNL1        0.0481
      2 C          61.9332   85.0831   10.2247 C.ar    1  UNL1        0.0176
      3 C          62.3987   84.1648   11.1692 C.ar    1  UNL1        0.0382
      4 C          62.2099   84.3884   12.5383 C.ar    1  UNL1        0.1388
      5 C          61.5417   85.5597   12.9519 C.ar    1  UNL1        0.0382
      6 C          61.0765   86.4782   12.0061 C.ar    1  UNL1        0.0176
      7 N          60.4222   88.6538    7.2597 N.pl3   1  UNL1       -0.2968
      8 C          61.6649   88.7860    8.0378 C.3     1  UNL1        0.1126
      9 C          61.4225   88.4989    9.5175 C.3     1  UNL1        0.1123
     10 N          60.7831   87.1893    9.6631 N.pl3   1  UNL1       -0.3036
     11 C          59.6910   86.7967    8.7623 C.3     1  UNL1        0.1221
     12 C          59.2521   87.9520    7.8362 C.3     1  UNL1        0.1924
     13 C          60.0996   90.9841    3.7002 C.ar    1  UNL1        0.0699
     14 C          61.2567   90.2308    3.9613 C.ar    1  UNL1        0.0190
     15 C          61.3605   89.4708    5.1294 C.ar    1  UNL1        0.0160
     16 C          60.3053   89.4390    6.0534 C.ar    1  UNL1        0.0484
     17 C          59.1478   90.1910    5.7947 C.ar    1  UNL1        0.0160
     18 C          59.0440   90.9525    4.6276 C.ar    1  UNL1        0.0190
     19 N          59.8195   92.3850    0.3652 N.ar    1  UNL1       -0.2024
     20 N          59.8225   93.4953    1.0890 N.ar    1  UNL1       -0.1442
     21 C          59.9340   93.1082    2.3785 C.ar    1  UNL1        0.2073
     22 N          59.9965   91.7616    2.4915 N.ar    1  UNL1       -0.2398
     23 C          59.9095   91.3444    1.2128 C.ar    1  UNL1        0.3522
     24 O          59.8721   90.1358    0.8558 O.2     1  UNL1       -0.2444
     25 C          59.6421   92.3392   -1.0896 C.3     1  UNL1        0.1099
     26 C          60.6133   93.3197   -1.7605 C.3     1  UNL1        0.0265
     27 C          57.2775   91.4081   -1.3829 C.3     1  UNL1        0.0021
     28 C          58.1718   92.6470   -1.4349 C.3     1  UNL1        0.0245
     29 C          58.3550   87.3934    6.7619 C.2     1  UNL1        0.3337
     30 O          58.6653   86.3224    6.1746 O.2     1  UNL1       -0.2484
     31 O          57.1967   88.0740    6.3967 O.3     1  UNL1       -0.4790
     32 H          56.5883   87.7124    5.6721 H       1  UNL1        0.2951
     33 O          62.7014   83.4204   13.4323 O.3     1  UNL1       -0.4727
     34 C          61.9377   82.4222   14.1134 C.3     1  UNL1        0.2374
     35 C          61.6287   81.2287   13.1928 C.3     1  UNL1        0.1909
     36 C          60.7004   80.2143   13.7950 C.3     1  UNL1        0.1783
     37 O          59.4235   80.5688   13.3745 O.3     1  UNL1       -0.3266
     38 C          59.5960   81.3996   12.2427 C.3     1  UNL1        0.2315
     39 O          60.9721   81.6854   12.0523 O.3     1  UNL1       -0.3254
     40 C          58.8057   82.6983   12.4408 C.ar    1  UNL1        0.0410
     41 C          58.3761   83.0641   13.7364 C.ar    1  UNL1        0.0022
     42 C          57.6784   84.2529   13.9540 C.ar    1  UNL1        0.0113
     43 C          57.4065   85.1106   12.8899 C.ar    1  UNL1        0.0585
     44 CL         56.5318   86.6054   13.1685 Cl      1  UNL1       -0.0822
     45 C          57.8426   84.7850   11.6055 C.ar    1  UNL1        0.0226
     46 C          58.5454   83.5965   11.3703 C.ar    1  UNL1        0.0591
     47 CL         59.0917   83.3068    9.7199 Cl      1  UNL1       -0.0824
     48 C          59.0821   80.6492   10.9972 C.3     1  UNL1        0.1897
     49 N          60.0741   79.6966   10.5022 N.ar    1  UNL1       -0.2246
     50 C          60.9817   79.9069    9.5348 C.ar    1  UNL1        0.1974
     51 N          61.7771   78.8322    9.3741 N.ar    1  UNL1       -0.2007
     52 C          61.2963   77.9727   10.3001 C.ar    1  UNL1        0.2210
     53 N          60.2644   78.4878   10.9965 N.ar    1  UNL1       -0.1450
@<TRIPOS>BOND
     1    27    28    1
     2    28    25    1
     3    25    26    1
     4    25    19    1
     5    19    20   ar
     6    20    21   ar
     7    21    22   ar
     8    22    13    1
     9    13    14   ar
    10    14    15   ar
    11    15    16   ar
    12    16     7    1
    13     7     8    1
    14     8     9    1
    15     9    10    1
    16    10     1    1
    17     1     2   ar
    18     2     3   ar
    19     3     4   ar
    20     4    33    1
    21    33    34    1
    22    34    35    1
    23    35    36    1
    24    36    37    1
    25    37    38    1
    26    38    48    1
    27    48    49    1
    28    49    50   ar
    29    50    51   ar
    30    51    52   ar
    31    52    53   ar
    32    38    40    1
    33    40    41   ar
    34    41    42   ar
    35    42    43   ar
    36    43    44    1
    37    43    45   ar
    38    45    46   ar
    39    46    47    1
    40    38    39    1
    41     4     5   ar
    42     5     6   ar
    43    10    11    1
    44    11    12    1
    45    12    29    1
    46    29    30    2
    47    29    31    1
    48    16    17   ar
    49    17    18   ar
    50    22    23   ar
    51    23    24    2
    52    23    19   ar
    53    18    13   ar
    54    12     7    1
    55     6     1   ar
    56    39    35    1
    57    53    49   ar
    58    46    40   ar
    59    31    32    1
