@<TRIPOS>MOLECULE
*****
 37 40 0 0 0
SMALL
GASTEIGER

@<TRIPOS>ATOM
      1 N         -29.0985   48.9299   -4.1326 N.am    1  UNL1       -0.2685
      2 C         -27.8335   49.6229   -4.3145 C.2     1  UNL1        0.2672
      3 O         -27.0022   49.6677   -3.3678 O.2     1  UNL1       -0.2682
      4 C         -27.4783   50.3142   -5.5632 C.ar    1  UNL1        0.1347
      5 C         -26.7964   49.6240   -6.5748 C.ar    1  UNL1        0.0238
      6 C         -26.4026   50.3092   -7.7299 C.ar    1  UNL1        0.0031
      7 C         -25.6678   49.6619   -8.7348 C.ar    1  UNL1        0.0001
      8 C         -25.2687   50.3668   -9.8742 C.ar    1  UNL1        0.0000
      9 C         -25.6007   51.7173  -10.0186 C.ar    1  UNL1        0.0000
     10 C         -26.3321   52.3727   -9.0235 C.ar    1  UNL1        0.0015
     11 C         -26.7338   51.6755   -7.8746 C.ar    1  UNL1        0.0192
     12 C         -27.4524   52.3124   -6.8545 C.ar    1  UNL1        0.0989
     13 N         -27.7971   51.6251   -5.7335 N.ar    1  UNL1       -0.2393
     14 C         -30.3086   49.1942   -4.9544 C.3     1  UNL1        0.1007
     15 C         -31.5539   48.6000   -4.2764 C.3     1  UNL1        0.0265
     16 C         -30.1533   49.5024   -8.7812 C.ar    1  UNL1        0.0893
     17 C         -29.6485   48.2385   -9.1443 C.ar    1  UNL1        0.1450
     18 F         -29.4248   47.9159  -10.4430 F       1  UNL1       -0.2040
     19 C         -29.3996   47.2748   -8.1685 C.ar    1  UNL1        0.0296
     20 C         -29.6303   47.5543   -6.8230 C.ar    1  UNL1        0.0019
     21 C         -30.1209   48.8149   -6.4248 C.ar    1  UNL1        0.0235
     22 C         -30.4082   49.7720   -7.4204 C.ar    1  UNL1        0.1425
     23 F         -30.8859   50.9896   -7.0551 F       1  UNL1       -0.2043
     24 C         -29.2963   51.1483  -10.6125 C.3     1  UNL1        0.0774
     25 C         -30.4061   50.5508   -9.8024 C.2     1  UNL1        0.1778
     26 O         -31.5840   50.9493  -10.0097 O.2     1  UNL1       -0.2912
     27 C         -29.2188   47.9600   -3.0274 C.3     1  UNL1        0.1207
     28 C         -28.4679   46.6896   -3.3404 C.ar    1  UNL1       -0.0021
     29 C         -29.0030   45.7558   -4.2414 C.ar    1  UNL1       -0.0026
     30 C         -28.3271   44.5637   -4.5046 C.ar    1  UNL1       -0.0001
     31 C         -27.1162   44.2873   -3.8668 C.ar    1  UNL1        0.0064
     32 C         -26.5664   45.2035   -2.9535 C.ar    1  UNL1        0.0752
     33 C         -27.2442   46.4117   -2.7083 C.ar    1  UNL1        0.0038
     34 C         -25.2832   44.8955   -2.2777 C.2     1  UNL1        0.3380
     35 O         -25.2694   44.1185   -1.2862 O.2     1  UNL1       -0.2451
     36 O         -24.0795   45.4600   -2.6983 O.3     1  UNL1       -0.4771
     37 H         -24.0333   46.1719   -3.4159 H       1  UNL1        0.2954
@<TRIPOS>BOND
     1    24    25    1
     2    25    26    2
     3    25    16    1
     4    16    17   ar
     5    17    18    1
     6    17    19   ar
     7    19    20   ar
     8    20    21   ar
     9    21    14    1
    10    14    15    1
    11    14     1    1
    12     1    27    1
    13    27    28    1
    14    28    29   ar
    15    29    30   ar
    16    30    31   ar
    17    31    32   ar
    18    32    34    1
    19    34    35    2
    20    34    36    1
    21    32    33   ar
    22     1     2   am
    23     2     3    2
    24     2     4    1
    25     4     5   ar
    26     5     6   ar
    27     6     7   ar
    28     7     8   ar
    29     8     9   ar
    30     9    10   ar
    31    10    11   ar
    32    11    12   ar
    33    12    13   ar
    34    21    22   ar
    35    22    23    1
    36    22    16   ar
    37    33    28   ar
    38    13     4   ar
    39    11     6   ar
    40    36    37    1
@<TRIPOS>MOLECULE
*****
 37 40 0 0 0
SMALL
GASTEIGER

@<TRIPOS>ATOM
      1 N         -30.2231   48.9352   -8.5670 N.am    1  UNL1       -0.2685
      2 C         -30.1924   49.8666   -7.4512 C.2     1  UNL1        0.2672
      3 O         -30.9406   50.8811   -7.4615 O.2     1  UNL1       -0.2682
      4 C         -29.2928   49.6983   -6.2997 C.ar    1  UNL1        0.1347
      5 C         -28.3719   50.7051   -5.9791 C.ar    1  UNL1        0.0238
      6 C         -27.4741   50.5054   -4.9241 C.ar    1  UNL1        0.0031
      7 C         -26.5017   51.4687   -4.6152 C.ar    1  UNL1        0.0001
      8 C         -25.6025   51.2446   -3.5684 C.ar    1  UNL1        0.0000
      9 C         -25.6688   50.0627   -2.8244 C.ar    1  UNL1        0.0000
     10 C         -26.6331   49.0956   -3.1236 C.ar    1  UNL1        0.0015
     11 C         -27.5373   49.3090   -4.1746 C.ar    1  UNL1        0.0192
     12 C         -28.5022   48.3492   -4.5066 C.ar    1  UNL1        0.0989
     13 N         -29.3422   48.5625   -5.5538 N.ar    1  UNL1       -0.2393
     14 C         -29.1105   48.0057   -8.8954 C.3     1  UNL1        0.1007
     15 C         -29.3775   46.6188   -8.2881 C.3     1  UNL1        0.0265
     16 C         -26.1342   50.4357   -8.8986 C.ar    1  UNL1        0.0893
     17 C         -25.2772   49.8311   -7.9583 C.ar    1  UNL1        0.1450
     18 F         -24.0792   50.3828   -7.6403 F       1  UNL1       -0.2040
     19 C         -25.6333   48.6251   -7.3572 C.ar    1  UNL1        0.0296
     20 C         -26.8461   48.0120   -7.6651 C.ar    1  UNL1        0.0019
     21 C         -27.7334   48.5988   -8.5907 C.ar    1  UNL1        0.0235
     22 C         -27.3496   49.7989   -9.2252 C.ar    1  UNL1        0.1425
     23 F         -28.1897   50.3753  -10.1230 F       1  UNL1       -0.2043
     24 C         -24.4910   51.9273  -10.2670 C.3     1  UNL1        0.0774
     25 C         -25.7839   51.7308   -9.5357 C.2     1  UNL1        0.1778
     26 O         -26.5933   52.6955   -9.4752 O.2     1  UNL1       -0.2912
     27 C         -31.3885   48.9563   -9.4714 C.3     1  UNL1        0.1207
     28 C         -31.0211   49.5444  -10.8111 C.ar    1  UNL1       -0.0021
     29 C         -30.6872   48.7040  -11.8846 C.ar    1  UNL1       -0.0026
     30 C         -30.3123   49.2471  -13.1141 C.ar    1  UNL1       -0.0001
     31 C         -30.2587   50.6321  -13.2831 C.ar    1  UNL1        0.0064
     32 C         -30.5794   51.4928  -12.2191 C.ar    1  UNL1        0.0752
     33 C         -30.9753   50.9375  -10.9886 C.ar    1  UNL1        0.0038
     34 C         -30.5123   52.9617  -12.4092 C.2     1  UNL1        0.3380
     35 O         -31.2008   53.5075  -13.3120 O.2     1  UNL1       -0.2451
     36 O         -29.6875   53.7654  -11.6229 O.3     1  UNL1       -0.4771
     37 H         -29.0306   53.3827  -10.9551 H       1  UNL1        0.2954
@<TRIPOS>BOND
     1    24    25    1
     2    25    26    2
     3    25    16    1
     4    16    17   ar
     5    17    18    1
     6    17    19   ar
     7    19    20   ar
     8    20    21   ar
     9    21    14    1
    10    14    15    1
    11    14     1    1
    12     1    27    1
    13    27    28    1
    14    28    29   ar
    15    29    30   ar
    16    30    31   ar
    17    31    32   ar
    18    32    34    1
    19    34    35    2
    20    34    36    1
    21    32    33   ar
    22     1     2   am
    23     2     3    2
    24     2     4    1
    25     4     5   ar
    26     5     6   ar
    27     6     7   ar
    28     7     8   ar
    29     8     9   ar
    30     9    10   ar
    31    10    11   ar
    32    11    12   ar
    33    12    13   ar
    34    21    22   ar
    35    22    23    1
    36    22    16   ar
    37    33    28   ar
    38    13     4   ar
    39    11     6   ar
    40    36    37    1
@<TRIPOS>MOLECULE
*****
 37 40 0 0 0
SMALL
GASTEIGER

@<TRIPOS>ATOM
      1 N         -28.8390   50.7363   -8.4956 N.am    1  UNL1       -0.2685
      2 C         -30.1747   50.5813   -7.9429 C.2     1  UNL1        0.2672
      3 O         -31.1814   50.7273   -8.6875 O.2     1  UNL1       -0.2682
      4 C         -30.4179   50.2852   -6.5228 C.ar    1  UNL1        0.1347
      5 C         -30.5333   48.9552   -6.0958 C.ar    1  UNL1        0.0238
      6 C         -30.8330   48.6868   -4.7553 C.ar    1  UNL1        0.0031
      7 C         -31.0126   47.3688   -4.3085 C.ar    1  UNL1        0.0001
      8 C         -31.3281   47.1208   -2.9692 C.ar    1  UNL1        0.0000
      9 C         -31.4640   48.1826   -2.0698 C.ar    1  UNL1        0.0000
     10 C         -31.2878   49.4999   -2.5039 C.ar    1  UNL1        0.0015
     11 C         -30.9751   49.7597   -3.8464 C.ar    1  UNL1        0.0192
     12 C         -30.8103   51.0708   -4.3115 C.ar    1  UNL1        0.0989
     13 N         -30.5454   51.2987   -5.6252 N.ar    1  UNL1       -0.2393
     14 C         -27.6395   51.0505   -7.6760 C.3     1  UNL1        0.1007
     15 C         -26.5871   51.7786   -8.5282 C.3     1  UNL1        0.0265
     16 C         -26.7201   48.7786   -4.7168 C.ar    1  UNL1        0.0893
     17 C         -26.3350   47.5968   -5.3794 C.ar    1  UNL1        0.1450
     18 F         -25.9318   46.5012   -4.6882 F       1  UNL1       -0.2040
     19 C         -26.3286   47.5426   -6.7721 C.ar    1  UNL1        0.0296
     20 C         -26.7182   48.6485   -7.5250 C.ar    1  UNL1        0.0019
     21 C         -27.1238   49.8417   -6.8924 C.ar    1  UNL1        0.0235
     22 C         -27.0903   49.9032   -5.4835 C.ar    1  UNL1        0.1425
     23 F         -27.4729   51.0461   -4.8578 F       1  UNL1       -0.2043
     24 C         -27.7525   48.0783   -2.4274 C.3     1  UNL1        0.0774
     25 C         -26.7540   48.8516   -3.2337 C.2     1  UNL1        0.1778
     26 O         -25.9178   49.5723   -2.6249 O.2     1  UNL1       -0.2912
     27 C         -28.6666   50.6495   -9.9582 C.3     1  UNL1        0.1207
     28 C         -29.0388   49.2782  -10.4648 C.ar    1  UNL1       -0.0021
     29 C         -30.0644   49.1284  -11.4113 C.ar    1  UNL1       -0.0026
     30 C         -30.4343   47.8579  -11.8540 C.ar    1  UNL1       -0.0001
     31 C         -29.7915   46.7245  -11.3522 C.ar    1  UNL1        0.0064
     32 C         -28.7683   46.8500  -10.3967 C.ar    1  UNL1        0.0752
     33 C         -28.3879   48.1355   -9.9699 C.ar    1  UNL1        0.0038
     34 C         -28.0978   45.6385   -9.8665 C.2     1  UNL1        0.3380
     35 O         -28.3212   45.2672   -8.6836 O.2     1  UNL1       -0.2451
     36 O         -27.2029   44.8989  -10.6390 O.3     1  UNL1       -0.4771
     37 H         -26.8969   45.1997  -11.5554 H       1  UNL1        0.2954
@<TRIPOS>BOND
     1    24    25    1
     2    25    26    2
     3    25    16    1
     4    16    17   ar
     5    17    18    1
     6    17    19   ar
     7    19    20   ar
     8    20    21   ar
     9    21    14    1
    10    14    15    1
    11    14     1    1
    12     1    27    1
    13    27    28    1
    14    28    29   ar
    15    29    30   ar
    16    30    31   ar
    17    31    32   ar
    18    32    34    1
    19    34    35    2
    20    34    36    1
    21    32    33   ar
    22     1     2   am
    23     2     3    2
    24     2     4    1
    25     4     5   ar
    26     5     6   ar
    27     6     7   ar
    28     7     8   ar
    29     8     9   ar
    30     9    10   ar
    31    10    11   ar
    32    11    12   ar
    33    12    13   ar
    34    21    22   ar
    35    22    23    1
    36    22    16   ar
    37    33    28   ar
    38    13     4   ar
    39    11     6   ar
    40    36    37    1
@<TRIPOS>MOLECULE
*****
 37 40 0 0 0
SMALL
GASTEIGER

@<TRIPOS>ATOM
      1 N         -29.2728   47.2130   -9.2878 N.am    1  UNL1       -0.2685
      2 C         -30.4764   47.2180  -10.1032 C.2     1  UNL1        0.2672
      3 O         -31.5836   46.9062   -9.5874 O.2     1  UNL1       -0.2682
      4 C         -30.4640   47.5468  -11.5368 C.ar    1  UNL1        0.1347
      5 C         -30.5221   46.5208  -12.4899 C.ar    1  UNL1        0.0238
      6 C         -30.4402   46.8400  -13.8501 C.ar    1  UNL1        0.0031
      7 C         -30.4367   45.8322  -14.8264 C.ar    1  UNL1        0.0001
      8 C         -30.3375   46.1692  -16.1797 C.ar    1  UNL1        0.0000
      9 C         -30.2434   47.5096  -16.5662 C.ar    1  UNL1        0.0000
     10 C         -30.2454   48.5221  -15.6020 C.ar    1  UNL1        0.0015
     11 C         -30.3404   48.1943  -14.2414 C.ar    1  UNL1        0.0192
     12 C         -30.3273   49.1879  -13.2540 C.ar    1  UNL1        0.0989
     13 N         -30.3820   48.8428  -11.9404 N.ar    1  UNL1       -0.2393
     14 C         -27.8999   47.0979   -9.8458 C.3     1  UNL1        0.1007
     15 C         -27.4898   45.6200   -9.9525 C.3     1  UNL1        0.0265
     16 C         -25.9516   50.2538   -8.8421 C.ar    1  UNL1        0.0893
     17 C         -25.1752   49.7749   -7.7687 C.ar    1  UNL1        0.1450
     18 F         -24.3232   50.5896   -7.0972 F       1  UNL1       -0.2040
     19 C         -25.2440   48.4337   -7.3958 C.ar    1  UNL1        0.0296
     20 C         -26.0919   47.5552   -8.0673 C.ar    1  UNL1        0.0019
     21 C         -26.8936   48.0060   -9.1361 C.ar    1  UNL1        0.0235
     22 C         -26.7901   49.3554   -9.5343 C.ar    1  UNL1        0.1425
     23 F         -27.5512   49.8055  -10.5649 F       1  UNL1       -0.2043
     24 C         -24.7112   52.2795   -9.9170 C.3     1  UNL1        0.0774
     25 C         -25.9091   51.6834   -9.2429 C.2     1  UNL1        0.1778
     26 O         -26.9066   52.4228   -9.0246 O.2     1  UNL1       -0.2912
     27 C         -29.4152   47.2520   -7.8199 C.3     1  UNL1        0.1207
     28 C         -29.7268   48.6496   -7.3451 C.ar    1  UNL1       -0.0021
     29 C         -31.0237   49.1694   -7.4796 C.ar    1  UNL1       -0.0026
     30 C         -31.3050   50.4745   -7.0740 C.ar    1  UNL1       -0.0001
     31 C         -30.2954   51.2765   -6.5381 C.ar    1  UNL1        0.0064
     32 C         -28.9873   50.7802   -6.4030 C.ar    1  UNL1        0.0752
     33 C         -28.7162   49.4569   -6.7962 C.ar    1  UNL1        0.0038
     34 C         -27.9225   51.6438   -5.8386 C.2     1  UNL1        0.3380
     35 O         -27.2677   51.2544   -4.8353 O.2     1  UNL1       -0.2451
     36 O         -27.6318   52.8963   -6.3784 O.3     1  UNL1       -0.4771
     37 H         -28.1877   53.3150   -7.1130 H       1  UNL1        0.2954
@<TRIPOS>BOND
     1    24    25    1
     2    25    26    2
     3    25    16    1
     4    16    17   ar
     5    17    18    1
     6    17    19   ar
     7    19    20   ar
     8    20    21   ar
     9    21    14    1
    10    14    15    1
    11    14     1    1
    12     1    27    1
    13    27    28    1
    14    28    29   ar
    15    29    30   ar
    16    30    31   ar
    17    31    32   ar
    18    32    34    1
    19    34    35    2
    20    34    36    1
    21    32    33   ar
    22     1     2   am
    23     2     3    2
    24     2     4    1
    25     4     5   ar
    26     5     6   ar
    27     6     7   ar
    28     7     8   ar
    29     8     9   ar
    30     9    10   ar
    31    10    11   ar
    32    11    12   ar
    33    12    13   ar
    34    21    22   ar
    35    22    23    1
    36    22    16   ar
    37    33    28   ar
    38    13     4   ar
    39    11     6   ar
    40    36    37    1
@<TRIPOS>MOLECULE
*****
 37 40 0 0 0
SMALL
GASTEIGER

@<TRIPOS>ATOM
      1 N         -28.0905   50.5857   -5.1091 N.am    1  UNL1       -0.2685
      2 C         -29.3997   49.9980   -5.3424 C.2     1  UNL1        0.2672
      3 O         -30.3014   50.6792   -5.9011 O.2     1  UNL1       -0.2682
      4 C         -29.7428   48.6300   -4.9249 C.ar    1  UNL1        0.1347
      5 C         -30.1936   48.3898   -3.6197 C.ar    1  UNL1        0.0238
      6 C         -30.4515   47.0760   -3.2119 C.ar    1  UNL1        0.0031
      7 C         -30.8477   46.7963   -1.8953 C.ar    1  UNL1        0.0001
      8 C         -31.0848   45.4760   -1.5013 C.ar    1  UNL1        0.0000
      9 C         -30.9304   44.4300   -2.4162 C.ar    1  UNL1        0.0000
     10 C         -30.5355   44.6969   -3.7305 C.ar    1  UNL1        0.0015
     11 C         -30.2911   46.0176   -4.1347 C.ar    1  UNL1        0.0192
     12 C         -29.8778   46.3113   -5.4406 C.ar    1  UNL1        0.0989
     13 N         -29.6103   47.5954   -5.7973 N.ar    1  UNL1       -0.2393
     14 C         -27.1354   50.0894   -4.0840 C.3     1  UNL1        0.1007
     15 C         -25.9532   51.0620   -3.9414 C.3     1  UNL1        0.0265
     16 C         -26.5839   46.3561   -3.3618 C.ar    1  UNL1        0.0893
     17 C         -26.2175   45.8752   -4.6340 C.ar    1  UNL1        0.1450
     18 F         -25.9340   44.5640   -4.8367 F       1  UNL1       -0.2040
     19 C         -26.1054   46.7529   -5.7110 C.ar    1  UNL1        0.0296
     20 C         -26.3699   48.1111   -5.5474 C.ar    1  UNL1        0.0019
     21 C         -26.7537   48.6222   -4.2905 C.ar    1  UNL1        0.0235
     22 C         -26.8270   47.7355   -3.1957 C.ar    1  UNL1        0.1425
     23 F         -27.1903   48.2114   -1.9768 F       1  UNL1       -0.2043
     24 C         -25.7196   44.3676   -1.9140 C.3     1  UNL1        0.0774
     25 C         -26.7294   45.4355   -2.2054 C.2     1  UNL1        0.1778
     26 O         -27.7200   45.5530   -1.4345 O.2     1  UNL1       -0.2912
     27 C         -27.7089   51.7854   -5.8781 C.3     1  UNL1        0.1207
     28 C         -27.2728   51.4153   -7.2741 C.ar    1  UNL1       -0.0021
     29 C         -25.9742   50.9356   -7.5053 C.ar    1  UNL1       -0.0026
     30 C         -25.5576   50.6269   -8.8008 C.ar    1  UNL1       -0.0001
     31 C         -26.4280   50.8008   -9.8786 C.ar    1  UNL1        0.0064
     32 C         -27.7298   51.2890   -9.6718 C.ar    1  UNL1        0.0752
     33 C         -28.1487   51.5794   -8.3605 C.ar    1  UNL1        0.0038
     34 C         -28.6425   51.4755  -10.8253 C.2     1  UNL1        0.3380
     35 O         -29.0280   50.4746  -11.4859 O.2     1  UNL1       -0.2451
     36 O         -29.0781   52.7407  -11.2179 O.3     1  UNL1       -0.4771
     37 H         -28.7241   53.5921  -10.8011 H       1  UNL1        0.2954
@<TRIPOS>BOND
     1    24    25    1
     2    25    26    2
     3    25    16    1
     4    16    17   ar
     5    17    18    1
     6    17    19   ar
     7    19    20   ar
     8    20    21   ar
     9    21    14    1
    10    14    15    1
    11    14     1    1
    12     1    27    1
    13    27    28    1
    14    28    29   ar
    15    29    30   ar
    16    30    31   ar
    17    31    32   ar
    18    32    34    1
    19    34    35    2
    20    34    36    1
    21    32    33   ar
    22     1     2   am
    23     2     3    2
    24     2     4    1
    25     4     5   ar
    26     5     6   ar
    27     6     7   ar
    28     7     8   ar
    29     8     9   ar
    30     9    10   ar
    31    10    11   ar
    32    11    12   ar
    33    12    13   ar
    34    21    22   ar
    35    22    23    1
    36    22    16   ar
    37    33    28   ar
    38    13     4   ar
    39    11     6   ar
    40    36    37    1
@<TRIPOS>MOLECULE
*****
 37 40 0 0 0
SMALL
GASTEIGER

@<TRIPOS>ATOM
      1 N         -28.4646   50.4283   -4.9293 N.am    1  UNL1       -0.2685
      2 C         -29.1786   49.5987   -3.9724 C.2     1  UNL1        0.2672
      3 O         -30.3207   49.9488   -3.5696 O.2     1  UNL1       -0.2682
      4 C         -28.6125   48.3605   -3.4158 C.ar    1  UNL1        0.1347
      5 C         -27.2276   48.1473   -3.4513 C.ar    1  UNL1        0.0238
      6 C         -26.7059   46.9364   -2.9818 C.ar    1  UNL1        0.0031
      7 C         -25.3306   46.6685   -3.0571 C.ar    1  UNL1        0.0001
      8 C         -24.8295   45.4466   -2.5984 C.ar    1  UNL1        0.0000
      9 C         -25.6944   44.4882   -2.0615 C.ar    1  UNL1        0.0000
     10 C         -27.0666   44.7440   -1.9819 C.ar    1  UNL1        0.0015
     11 C         -27.5799   45.9652   -2.4432 C.ar    1  UNL1        0.0192
     12 C         -28.9525   46.2403   -2.3911 C.ar    1  UNL1        0.0989
     13 N         -29.4301   47.4155   -2.8796 N.ar    1  UNL1       -0.2393
     14 C         -26.9903   50.3898   -5.1146 C.3     1  UNL1        0.1007
     15 C         -26.3414   51.6351   -4.4887 C.3     1  UNL1        0.0265
     16 C         -26.5699   48.5316   -8.4514 C.ar    1  UNL1        0.0893
     17 C         -26.0008   49.5339   -9.2611 C.ar    1  UNL1        0.1450
     18 F         -25.6898   49.2976  -10.5603 F       1  UNL1       -0.2040
     19 C         -25.7126   50.7886   -8.7270 C.ar    1  UNL1        0.0296
     20 C         -25.9984   51.0725   -7.3930 C.ar    1  UNL1        0.0019
     21 C         -26.5820   50.0962   -6.5597 C.ar    1  UNL1        0.0235
     22 C         -26.8349   48.8159   -7.0955 C.ar    1  UNL1        0.1425
     23 F         -27.3921   47.8620   -6.3057 F       1  UNL1       -0.2043
     24 C         -28.1329   46.9664   -9.8314 C.3     1  UNL1        0.0774
     25 C         -26.9040   47.1946   -9.0052 C.2     1  UNL1        0.1778
     26 O         -26.1345   46.2195   -8.7897 O.2     1  UNL1       -0.2912
     27 C         -29.2286   51.4169   -5.7137 C.3     1  UNL1        0.1207
     28 C         -29.7195   50.8161   -7.0075 C.ar    1  UNL1       -0.0021
     29 C         -30.6431   49.7593   -6.9906 C.ar    1  UNL1       -0.0026
     30 C         -31.0708   49.1786   -8.1852 C.ar    1  UNL1       -0.0001
     31 C         -30.5764   49.6397   -9.4068 C.ar    1  UNL1        0.0064
     32 C         -29.6435   50.6904   -9.4472 C.ar    1  UNL1        0.0752
     33 C         -29.2321   51.2835   -8.2396 C.ar    1  UNL1        0.0038
     34 C         -29.1208   51.1668  -10.7503 C.2     1  UNL1        0.3380
     35 O         -29.2203   50.4333  -11.7698 O.2     1  UNL1       -0.2451
     36 O         -28.4988   52.4080  -10.8809 O.3     1  UNL1       -0.4771
     37 H         -28.2902   52.9987  -10.0863 H       1  UNL1        0.2954
@<TRIPOS>BOND
     1    24    25    1
     2    25    26    2
     3    25    16    1
     4    16    17   ar
     5    17    18    1
     6    17    19   ar
     7    19    20   ar
     8    20    21   ar
     9    21    14    1
    10    14    15    1
    11    14     1    1
    12     1    27    1
    13    27    28    1
    14    28    29   ar
    15    29    30   ar
    16    30    31   ar
    17    31    32   ar
    18    32    34    1
    19    34    35    2
    20    34    36    1
    21    32    33   ar
    22     1     2   am
    23     2     3    2
    24     2     4    1
    25     4     5   ar
    26     5     6   ar
    27     6     7   ar
    28     7     8   ar
    29     8     9   ar
    30     9    10   ar
    31    10    11   ar
    32    11    12   ar
    33    12    13   ar
    34    21    22   ar
    35    22    23    1
    36    22    16   ar
    37    33    28   ar
    38    13     4   ar
    39    11     6   ar
    40    36    37    1
@<TRIPOS>MOLECULE
*****
 37 40 0 0 0
SMALL
GASTEIGER

@<TRIPOS>ATOM
      1 N         -29.6928   46.1533   -9.4249 N.am    1  UNL1       -0.2685
      2 C         -28.3310   46.3387   -9.8989 C.2     1  UNL1        0.2672
      3 O         -27.9226   45.6903  -10.9000 O.2     1  UNL1       -0.2682
      4 C         -27.3754   47.2412   -9.2388 C.ar    1  UNL1        0.1347
      5 C         -27.2267   48.5577   -9.6964 C.ar    1  UNL1        0.0238
      6 C         -26.2660   49.3867   -9.1059 C.ar    1  UNL1        0.0031
      7 C         -26.0521   50.6901   -9.5793 C.ar    1  UNL1        0.0001
      8 C         -25.0765   51.4981   -8.9879 C.ar    1  UNL1        0.0000
      9 C         -24.3119   51.0130   -7.9226 C.ar    1  UNL1        0.0000
     10 C         -24.5159   49.7156   -7.4430 C.ar    1  UNL1        0.0015
     11 C         -25.4895   48.8955   -8.0321 C.ar    1  UNL1        0.0192
     12 C         -25.7026   47.5860   -7.5825 C.ar    1  UNL1        0.0989
     13 N         -26.6255   46.7978   -8.1948 N.ar    1  UNL1       -0.2393
     14 C         -30.1348   46.4732   -8.0422 C.3     1  UNL1        0.1007
     15 C         -31.5400   45.9044   -7.7865 C.3     1  UNL1        0.0265
     16 C         -28.9210   49.6416   -6.2391 C.ar    1  UNL1        0.0893
     17 C         -29.4457   50.6538   -7.0663 C.ar    1  UNL1        0.1450
     18 F         -29.2394   51.9661   -6.7908 F       1  UNL1       -0.2040
     19 C         -30.2231   50.3223   -8.1747 C.ar    1  UNL1        0.0296
     20 C         -30.4765   48.9884   -8.4878 C.ar    1  UNL1        0.0019
     21 C         -29.9533   47.9509   -7.6889 C.ar    1  UNL1        0.0235
     22 C         -29.2005   48.2937   -6.5462 C.ar    1  UNL1        0.1425
     23 F         -28.6931   47.3073   -5.7628 F       1  UNL1       -0.2043
     24 C         -26.9492   50.9584   -5.1549 C.3     1  UNL1        0.0774
     25 C         -28.0732   49.9718   -5.0651 C.2     1  UNL1        0.1778
     26 O         -28.3028   49.4210   -3.9546 O.2     1  UNL1       -0.2912
     27 C         -30.6811   45.5481  -10.3379 C.3     1  UNL1        0.1207
     28 C         -30.8661   46.3963  -11.5717 C.ar    1  UNL1       -0.0021
     29 C         -31.3779   47.6988  -11.4640 C.ar    1  UNL1       -0.0026
     30 C         -31.5835   48.4715  -12.6075 C.ar    1  UNL1       -0.0001
     31 C         -31.2888   47.9512  -13.8692 C.ar    1  UNL1        0.0064
     32 C         -30.7844   46.6458  -14.0017 C.ar    1  UNL1        0.0752
     33 C         -30.5616   45.8802  -12.8425 C.ar    1  UNL1        0.0038
     34 C         -30.4815   46.1022  -15.3474 C.2     1  UNL1        0.3380
     35 O         -30.0870   44.9118  -15.4666 O.2     1  UNL1       -0.2451
     36 O         -30.6033   46.8819  -16.4971 O.3     1  UNL1       -0.4771
     37 H         -30.8103   47.8718  -16.4643 H       1  UNL1        0.2954
@<TRIPOS>BOND
     1    24    25    1
     2    25    26    2
     3    25    16    1
     4    16    17   ar
     5    17    18    1
     6    17    19   ar
     7    19    20   ar
     8    20    21   ar
     9    21    14    1
    10    14    15    1
    11    14     1    1
    12     1    27    1
    13    27    28    1
    14    28    29   ar
    15    29    30   ar
    16    30    31   ar
    17    31    32   ar
    18    32    34    1
    19    34    35    2
    20    34    36    1
    21    32    33   ar
    22     1     2   am
    23     2     3    2
    24     2     4    1
    25     4     5   ar
    26     5     6   ar
    27     6     7   ar
    28     7     8   ar
    29     8     9   ar
    30     9    10   ar
    31    10    11   ar
    32    11    12   ar
    33    12    13   ar
    34    21    22   ar
    35    22    23    1
    36    22    16   ar
    37    33    28   ar
    38    13     4   ar
    39    11     6   ar
    40    36    37    1
@<TRIPOS>MOLECULE
*****
 37 40 0 0 0
SMALL
GASTEIGER

@<TRIPOS>ATOM
      1 N         -28.3609   46.6778   -4.8516 N.am    1  UNL1       -0.2685
      2 C         -29.2693   46.4942   -5.9717 C.2     1  UNL1        0.2672
      3 O         -30.1793   45.6244   -5.9039 O.2     1  UNL1       -0.2682
      4 C         -29.1608   47.2674   -7.2182 C.ar    1  UNL1        0.1347
      5 C         -29.9040   48.4451   -7.3773 C.ar    1  UNL1        0.0238
      6 C         -29.8461   49.1359   -8.5931 C.ar    1  UNL1        0.0031
      7 C         -30.6226   50.2853   -8.8048 C.ar    1  UNL1        0.0001
      8 C         -30.5644   50.9530  -10.0318 C.ar    1  UNL1        0.0000
      9 C         -29.7324   50.4807  -11.0513 C.ar    1  UNL1        0.0000
     10 C         -28.9547   49.3361  -10.8518 C.ar    1  UNL1        0.0015
     11 C         -29.0089   48.6566   -9.6259 C.ar    1  UNL1        0.0192
     12 C         -28.2534   47.4977   -9.4055 C.ar    1  UNL1        0.0989
     13 N         -28.3522   46.8354   -8.2226 N.ar    1  UNL1       -0.2393
     14 C         -27.0157   47.2981   -4.9748 C.3     1  UNL1        0.1007
     15 C         -26.1685   46.9859   -3.7304 C.3     1  UNL1        0.0265
     16 C         -26.4702   50.5398   -6.9641 C.ar    1  UNL1        0.0893
     17 C         -27.2729   51.4479   -6.2465 C.ar    1  UNL1        0.1450
     18 F         -27.3786   52.7464   -6.6254 F       1  UNL1       -0.2040
     19 C         -27.9528   51.0326   -5.1029 C.ar    1  UNL1        0.0296
     20 C         -27.8610   49.7129   -4.6652 C.ar    1  UNL1        0.0019
     21 C         -27.0781   48.7751   -5.3695 C.ar    1  UNL1        0.0235
     22 C         -26.3610   49.2112   -6.5034 C.ar    1  UNL1        0.1425
     23 F         -25.5981   48.3225   -7.1908 F       1  UNL1       -0.2043
     24 C         -26.4767   51.5421   -9.3709 C.3     1  UNL1        0.0774
     25 C         -25.7537   50.9559   -8.1968 C.2     1  UNL1        0.1778
     26 O         -24.5015   50.8269   -8.2647 O.2     1  UNL1       -0.2912
     27 C         -28.7579   46.1583   -3.5291 C.3     1  UNL1        0.1207
     28 C         -29.5663   47.1801   -2.7686 C.ar    1  UNL1       -0.0021
     29 C         -30.4696   48.0136   -3.4463 C.ar    1  UNL1       -0.0026
     30 C         -31.1916   48.9836   -2.7497 C.ar    1  UNL1       -0.0001
     31 C         -31.0144   49.1375   -1.3733 C.ar    1  UNL1        0.0064
     32 C         -30.1080   48.3204   -0.6757 C.ar    1  UNL1        0.0752
     33 C         -29.3984   47.3318   -1.3819 C.ar    1  UNL1        0.0038
     34 C         -29.9238   48.4979    0.7847 C.2     1  UNL1        0.3380
     35 O         -29.3505   47.5995    1.4564 O.2     1  UNL1       -0.2451
     36 O         -30.3871   49.6330    1.4491 O.3     1  UNL1       -0.4771
     37 H         -30.9483   50.3403    0.9922 H       1  UNL1        0.2954
@<TRIPOS>BOND
     1    24    25    1
     2    25    26    2
     3    25    16    1
     4    16    17   ar
     5    17    18    1
     6    17    19   ar
     7    19    20   ar
     8    20    21   ar
     9    21    14    1
    10    14    15    1
    11    14     1    1
    12     1    27    1
    13    27    28    1
    14    28    29   ar
    15    29    30   ar
    16    30    31   ar
    17    31    32   ar
    18    32    34    1
    19    34    35    2
    20    34    36    1
    21    32    33   ar
    22     1     2   am
    23     2     3    2
    24     2     4    1
    25     4     5   ar
    26     5     6   ar
    27     6     7   ar
    28     7     8   ar
    29     8     9   ar
    30     9    10   ar
    31    10    11   ar
    32    11    12   ar
    33    12    13   ar
    34    21    22   ar
    35    22    23    1
    36    22    16   ar
    37    33    28   ar
    38    13     4   ar
    39    11     6   ar
    40    36    37    1
@<TRIPOS>MOLECULE
*****
 37 40 0 0 0
SMALL
GASTEIGER

@<TRIPOS>ATOM
      1 N         -28.3667   48.9184   -7.4470 N.am    1  UNL1       -0.2685
      2 C         -27.8164   47.5762   -7.5436 C.2     1  UNL1        0.2672
      3 O         -27.5173   47.1018   -8.6726 O.2     1  UNL1       -0.2682
      4 C         -27.6135   46.7138   -6.3695 C.ar    1  UNL1        0.1347
      5 C         -26.4720   46.8754   -5.5724 C.ar    1  UNL1        0.0238
      6 C         -26.2543   46.0049   -4.4983 C.ar    1  UNL1        0.0031
      7 C         -25.0929   46.1030   -3.7170 C.ar    1  UNL1        0.0001
      8 C         -24.8845   45.2141   -2.6583 C.ar    1  UNL1        0.0000
      9 C         -25.8315   44.2260   -2.3721 C.ar    1  UNL1        0.0000
     10 C         -26.9921   44.1185   -3.1442 C.ar    1  UNL1        0.0015
     11 C         -27.2087   45.0029   -4.2111 C.ar    1  UNL1        0.0192
     12 C         -28.3545   44.9064   -5.0113 C.ar    1  UNL1        0.0989
     13 N         -28.5232   45.7507   -6.0631 N.ar    1  UNL1       -0.2393
     14 C         -29.1698   49.3985   -6.2920 C.3     1  UNL1        0.1007
     15 C         -29.8285   50.7473   -6.6244 C.3     1  UNL1        0.0265
     16 C         -28.1949   48.4662   -2.6943 C.ar    1  UNL1        0.0893
     17 C         -26.9463   49.1058   -2.5671 C.ar    1  UNL1        0.1450
     18 F         -26.2269   49.0245   -1.4198 F       1  UNL1       -0.2040
     19 C         -26.4385   49.8697   -3.6165 C.ar    1  UNL1        0.0296
     20 C         -27.1495   49.9965   -4.8081 C.ar    1  UNL1        0.0019
     21 C         -28.3951   49.3566   -4.9732 C.ar    1  UNL1        0.0235
     22 C         -28.9221   48.6175   -3.8933 C.ar    1  UNL1        0.1425
     23 F         -30.1228   47.9988   -4.0332 F       1  UNL1       -0.2043
     24 C         -29.8742   48.1048   -0.7330 C.3     1  UNL1        0.0774
     25 C         -28.7452   47.6308   -1.5965 C.2     1  UNL1        0.1778
     26 O         -28.2643   46.4852   -1.3826 O.2     1  UNL1       -0.2912
     27 C         -28.1840   49.8391   -8.5851 C.3     1  UNL1        0.1207
     28 C         -26.7406   50.2587   -8.7133 C.ar    1  UNL1       -0.0021
     29 C         -25.9093   50.2861   -7.5827 C.ar    1  UNL1       -0.0026
     30 C         -24.5839   50.7084   -7.6932 C.ar    1  UNL1       -0.0001
     31 C         -24.0769   51.1148   -8.9290 C.ar    1  UNL1        0.0064
     32 C         -24.8940   51.1047  -10.0727 C.ar    1  UNL1        0.0752
     33 C         -26.2234   50.6591   -9.9568 C.ar    1  UNL1        0.0038
     34 C         -24.3458   51.5447  -11.3781 C.2     1  UNL1        0.3380
     35 O         -24.9064   51.1815  -12.4462 O.2     1  UNL1       -0.2451
     36 O         -23.2050   52.3422  -11.4625 O.3     1  UNL1       -0.4771
     37 H         -22.6457   52.5799  -10.6534 H       1  UNL1        0.2954
@<TRIPOS>BOND
     1    24    25    1
     2    25    26    2
     3    25    16    1
     4    16    17   ar
     5    17    18    1
     6    17    19   ar
     7    19    20   ar
     8    20    21   ar
     9    21    14    1
    10    14    15    1
    11    14     1    1
    12     1    27    1
    13    27    28    1
    14    28    29   ar
    15    29    30   ar
    16    30    31   ar
    17    31    32   ar
    18    32    34    1
    19    34    35    2
    20    34    36    1
    21    32    33   ar
    22     1     2   am
    23     2     3    2
    24     2     4    1
    25     4     5   ar
    26     5     6   ar
    27     6     7   ar
    28     7     8   ar
    29     8     9   ar
    30     9    10   ar
    31    10    11   ar
    32    11    12   ar
    33    12    13   ar
    34    21    22   ar
    35    22    23    1
    36    22    16   ar
    37    33    28   ar
    38    13     4   ar
    39    11     6   ar
    40    36    37    1
