@<TRIPOS>MOLECULE
*****
 54 60 0 0 0
SMALL
GASTEIGER

@<TRIPOS>ATOM
      1 C          59.5295   83.5310   12.9335 C.ar    1  UNL1        0.0481
      2 C          58.2990   83.7078   12.2747 C.ar    1  UNL1        0.0176
      3 C          57.6953   82.6450   11.5966 C.ar    1  UNL1        0.0382
      4 C          58.3114   81.3810   11.5670 C.ar    1  UNL1        0.1388
      5 C          59.5358   81.2038   12.2183 C.ar    1  UNL1        0.0382
      6 C          60.1400   82.2646   12.8980 C.ar    1  UNL1        0.0176
      7 N          61.4887   86.8358   14.8068 N.pl3   1  UNL1       -0.3040
      8 C          61.7777   85.4878   15.3099 C.3     1  UNL1        0.1122
      9 C          61.4913   84.4462   14.2254 C.3     1  UNL1        0.1122
     10 N          60.1505   84.6262   13.6428 N.pl3   1  UNL1       -0.3041
     11 C          59.4037   85.8715   13.8807 C.3     1  UNL1        0.1122
     12 C          60.3504   87.0753   13.9116 C.3     1  UNL1        0.1122
     13 C          63.9732   90.1689   15.7073 C.ar    1  UNL1        0.0700
     14 C          63.2751   89.4935   16.7201 C.ar    1  UNL1        0.0190
     15 C          62.4898   88.3808   16.4169 C.ar    1  UNL1        0.0161
     16 C          62.3950   87.9110   15.1000 C.ar    1  UNL1        0.0508
     17 C          63.1220   88.5594   14.0758 C.ar    1  UNL1        0.0495
     18 C          63.8920   89.6915   14.3888 C.ar    1  UNL1        0.0218
     19 N          66.4090   92.8380   16.0529 N.ar    1  UNL1       -0.2024
     20 N          65.5075   93.2204   16.9451 N.ar    1  UNL1       -0.1442
     21 C          64.5250   92.2937   16.9177 C.ar    1  UNL1        0.2073
     22 N          64.7819   91.3213   16.0137 N.ar    1  UNL1       -0.2398
     23 C          65.9703   91.6914   15.4970 C.ar    1  UNL1        0.3522
     24 O          66.6077   91.0324   14.6317 O.2     1  UNL1       -0.2444
     25 C          67.6515   93.5712   15.7832 C.3     1  UNL1        0.1099
     26 C          68.8467   92.8270   16.3937 C.3     1  UNL1        0.0265
     27 C          66.4961   94.1654   13.5807 C.3     1  UNL1        0.0021
     28 C          67.8141   93.8058   14.2665 C.3     1  UNL1        0.0245
     29 C          63.1249   88.0652   12.6825 C.2     1  UNL1        0.1747
     30 C          62.7097   88.9433   11.5425 C.3     1  UNL1        0.0773
     31 O          63.4506   86.8704   12.4491 O.2     1  UNL1       -0.2913
     32 O          57.7408   80.2806   10.9124 O.3     1  UNL1       -0.4727
     33 C          57.8464   80.0301    9.5130 C.3     1  UNL1        0.2374
     34 C          57.7609   81.3563    8.7525 C.3     1  UNL1        0.1909
     35 C          58.1465   81.2208    7.3014 C.3     1  UNL1        0.1783
     36 O          59.1097   82.1952    7.0543 O.3     1  UNL1       -0.3271
     37 C          59.5691   82.6353    8.3173 C.3     1  UNL1        0.2232
     38 O          58.6390   82.2799    9.3168 O.3     1  UNL1       -0.3258
     39 C          59.7588   84.1559    8.2792 C.ar    1  UNL1        0.0404
     40 C          59.1302   84.9355    9.2755 C.ar    1  UNL1        0.0021
     41 C          59.2238   86.3275    9.2697 C.ar    1  UNL1        0.0113
     42 C          59.9287   86.9775    8.2593 C.ar    1  UNL1        0.0585
     43 CL         60.0389   88.7282    8.2518 Cl      1  UNL1       -0.0822
     44 C          60.5320   86.2349    7.2446 C.ar    1  UNL1        0.0226
     45 C          60.4481   84.8366    7.2336 C.ar    1  UNL1        0.0591
     46 CL         61.1996   84.0220    5.8615 Cl      1  UNL1       -0.0824
     47 C          60.9235   81.9552    8.6123 C.3     1  UNL1        0.1338
     48 N          61.7080   82.7656    9.5733 N.3     1  UNL1       -0.2659
     49 C          62.4765   81.9230   10.5133 C.3     1  UNL1        0.0896
     50 C          63.3955   82.7738   11.4123 C.3     1  UNL1        0.0862
     51 N          63.0577   84.1970   11.3029 N.3     1  UNL1       -0.2951
     52 C          63.2522   84.6704    9.9240 C.3     1  UNL1        0.0862
     53 C          62.5955   83.7273    8.8951 C.3     1  UNL1        0.0896
     54 H          63.7059   84.7344   11.9249 H       1  UNL1        0.1233
@<TRIPOS>BOND
     1    27    28    1
     2    28    25    1
     3    25    26    1
     4    25    19    1
     5    19    20   ar
     6    20    21   ar
     7    21    22   ar
     8    22    13    1
     9    13    14   ar
    10    14    15   ar
    11    15    16   ar
    12    16     7    1
    13     7     8    1
    14     8     9    1
    15     9    10    1
    16    10     1    1
    17     1     2   ar
    18     2     3   ar
    19     3     4   ar
    20     4    32    1
    21    32    33    1
    22    33    34    1
    23    34    35    1
    24    35    36    1
    25    36    37    1
    26    37    47    1
    27    47    48    1
    28    48    49    1
    29    49    50    1
    30    50    51    1
    31    51    52    1
    32    52    53    1
    33    37    39    1
    34    39    40   ar
    35    40    41   ar
    36    41    42   ar
    37    42    43    1
    38    42    44   ar
    39    44    45   ar
    40    45    46    1
    41    37    38    1
    42     4     5   ar
    43     5     6   ar
    44    10    11    1
    45    11    12    1
    46    16    17   ar
    47    17    29    1
    48    29    30    1
    49    29    31    2
    50    17    18   ar
    51    22    23   ar
    52    23    24    2
    53    23    19   ar
    54    18    13   ar
    55    12     7    1
    56     6     1   ar
    57    38    34    1
    58    53    48    1
    59    45    39   ar
    60    51    54    1
@<TRIPOS>MOLECULE
*****
 54 60 0 0 0
SMALL
GASTEIGER

@<TRIPOS>ATOM
      1 C          58.9373   85.8771   10.7737 C.ar    1  UNL1        0.0481
      2 C          57.9228   84.9937   11.1859 C.ar    1  UNL1        0.0176
      3 C          57.2298   84.2196   10.2510 C.ar    1  UNL1        0.0382
      4 C          57.5411   84.3126    8.8826 C.ar    1  UNL1        0.1388
      5 C          58.5467   85.1921    8.4703 C.ar    1  UNL1        0.0382
      6 C          59.2417   85.9657    9.4036 C.ar    1  UNL1        0.0176
      7 N          61.1855   88.3594   13.4295 N.pl3   1  UNL1       -0.3040
      8 C          61.4518   86.9163   13.4436 C.3     1  UNL1        0.1122
      9 C          61.0341   86.2888   12.1113 C.3     1  UNL1        0.1122
     10 N          59.6612   86.6714   11.7398 N.pl3   1  UNL1       -0.3041
     11 C          58.9925   87.7847   12.4318 C.3     1  UNL1        0.1122
     12 C          59.9923   88.8965   12.7645 C.3     1  UNL1        0.1122
     13 C          64.2465   90.9184   14.9042 C.ar    1  UNL1        0.0700
     14 C          63.7677   91.0465   13.5914 C.ar    1  UNL1        0.0190
     15 C          62.7400   90.2235   13.1297 C.ar    1  UNL1        0.0161
     16 C          62.1598   89.2651   13.9716 C.ar    1  UNL1        0.0508
     17 C          62.6072   89.1501   15.3074 C.ar    1  UNL1        0.0495
     18 C          63.6569   89.9687   15.7550 C.ar    1  UNL1        0.0218
     19 N          67.2159   92.8949   15.5774 N.ar    1  UNL1       -0.2024
     20 N          66.5241   93.1184   16.6848 N.ar    1  UNL1       -0.1442
     21 C          65.3710   92.4255   16.5621 C.ar    1  UNL1        0.2073
     22 N          65.3107   91.7622   15.3851 N.ar    1  UNL1       -0.2398
     23 C          66.4835   92.0741   14.7988 C.ar    1  UNL1        0.3522
     24 O          66.8634   91.6278   13.6828 O.2     1  UNL1       -0.2444
     25 C          68.5464   93.4583   15.3192 C.3     1  UNL1        0.1099
     26 C          68.9402   94.4205   16.4480 C.3     1  UNL1        0.0265
     27 C          69.8017   91.9831   13.6498 C.3     1  UNL1        0.0021
     28 C          69.5762   92.3259   15.1224 C.3     1  UNL1        0.0245
     29 C          61.9829   88.2133   16.2657 C.2     1  UNL1        0.1747
     30 C          62.8126   87.3337   17.1496 C.3     1  UNL1        0.0773
     31 O          60.7269   88.1261   16.3188 O.2     1  UNL1       -0.2913
     32 O          56.8847   83.5486    7.9076 O.3     1  UNL1       -0.4727
     33 C          57.3880   82.3315    7.3621 C.3     1  UNL1        0.2374
     34 C          58.9134   82.3095    7.4932 C.3     1  UNL1        0.1909
     35 C          59.5246   81.0370    6.9639 C.3     1  UNL1        0.1783
     36 O          60.3471   80.5426    7.9725 O.3     1  UNL1       -0.3271
     37 C          59.9822   81.2224    9.1577 C.3     1  UNL1        0.2232
     38 O          59.2716   82.3982    8.8372 O.3     1  UNL1       -0.3258
     39 C          61.2494   81.5622    9.9504 C.ar    1  UNL1        0.0404
     40 C          61.4988   82.9157   10.2686 C.ar    1  UNL1        0.0021
     41 C          62.6572   83.2971   10.9461 C.ar    1  UNL1        0.0113
     42 C          63.6052   82.3415   11.3046 C.ar    1  UNL1        0.0585
     43 CL         65.0636   82.8255   12.1507 Cl      1  UNL1       -0.0822
     44 C          63.4007   81.0020   10.9745 C.ar    1  UNL1        0.0226
     45 C          62.2439   80.6005   10.2939 C.ar    1  UNL1        0.0591
     46 CL         62.1376   78.8891    9.8808 Cl      1  UNL1       -0.0824
     47 C          59.0820   80.2930   10.0004 C.3     1  UNL1        0.1338
     48 N          59.2967   80.5404   11.4455 N.3     1  UNL1       -0.2659
     49 C          58.5436   81.7180   11.9255 C.3     1  UNL1        0.0896
     50 C          58.6621   81.8794   13.4541 C.3     1  UNL1        0.0862
     51 N          59.7127   81.0069   13.9894 N.3     1  UNL1       -0.2951
     52 C          59.3928   79.5944   13.7328 C.3     1  UNL1        0.0862
     53 C          58.9835   79.3559   12.2649 C.3     1  UNL1        0.0896
     54 H          59.7554   81.1467   15.0259 H       1  UNL1        0.1233
@<TRIPOS>BOND
     1    27    28    1
     2    28    25    1
     3    25    26    1
     4    25    19    1
     5    19    20   ar
     6    20    21   ar
     7    21    22   ar
     8    22    13    1
     9    13    14   ar
    10    14    15   ar
    11    15    16   ar
    12    16     7    1
    13     7     8    1
    14     8     9    1
    15     9    10    1
    16    10     1    1
    17     1     2   ar
    18     2     3   ar
    19     3     4   ar
    20     4    32    1
    21    32    33    1
    22    33    34    1
    23    34    35    1
    24    35    36    1
    25    36    37    1
    26    37    47    1
    27    47    48    1
    28    48    49    1
    29    49    50    1
    30    50    51    1
    31    51    52    1
    32    52    53    1
    33    37    39    1
    34    39    40   ar
    35    40    41   ar
    36    41    42   ar
    37    42    43    1
    38    42    44   ar
    39    44    45   ar
    40    45    46    1
    41    37    38    1
    42     4     5   ar
    43     5     6   ar
    44    10    11    1
    45    11    12    1
    46    16    17   ar
    47    17    29    1
    48    29    30    1
    49    29    31    2
    50    17    18   ar
    51    22    23   ar
    52    23    24    2
    53    23    19   ar
    54    18    13   ar
    55    12     7    1
    56     6     1   ar
    57    38    34    1
    58    53    48    1
    59    45    39   ar
    60    51    54    1
@<TRIPOS>MOLECULE
*****
 54 60 0 0 0
SMALL
GASTEIGER

@<TRIPOS>ATOM
      1 C          59.7221   85.5048    8.9964 C.ar    1  UNL1        0.0481
      2 C          58.3808   85.4008    9.4081 C.ar    1  UNL1        0.0176
      3 C          57.6376   84.2503    9.1291 C.ar    1  UNL1        0.0382
      4 C          58.2246   83.1780    8.4335 C.ar    1  UNL1        0.1388
      5 C          59.5564   83.2804    8.0207 C.ar    1  UNL1        0.0382
      6 C          60.3014   84.4290    8.3000 C.ar    1  UNL1        0.0176
      7 N          62.0903   88.8904   10.0915 N.pl3   1  UNL1       -0.3040
      8 C          60.6380   89.0712    9.9827 C.3     1  UNL1        0.1122
      9 C          59.9233   87.7298   10.1644 C.3     1  UNL1        0.1122
     10 N          60.4947   86.6897    9.2920 N.pl3   1  UNL1       -0.3041
     11 C          61.7933   86.9087    8.6355 C.3     1  UNL1        0.1122
     12 C          62.7402   87.6901    9.5516 C.3     1  UNL1        0.1122
     13 C          64.6014   91.6166   12.1783 C.ar    1  UNL1        0.0700
     14 C          64.2852   91.8158   10.8257 C.ar    1  UNL1        0.0190
     15 C          63.4333   90.9331   10.1609 C.ar    1  UNL1        0.0161
     16 C          62.8691   89.8415   10.8346 C.ar    1  UNL1        0.0508
     17 C          63.1498   89.6497   12.2066 C.ar    1  UNL1        0.0495
     18 C          64.0257   90.5319   12.8601 C.ar    1  UNL1        0.0218
     19 N          66.8430   93.4547   14.3631 N.ar    1  UNL1       -0.2024
     20 N          66.7097   94.3236   13.3721 N.ar    1  UNL1       -0.1442
     21 C          65.8815   93.7521   12.4709 C.ar    1  UNL1        0.2073
     22 N          65.4841   92.5221   12.8687 N.ar    1  UNL1       -0.2398
     23 C          66.0999   92.3726   14.0582 C.ar    1  UNL1        0.3522
     24 O          65.9699   91.3666   14.8066 O.2     1  UNL1       -0.2444
     25 C          67.6566   93.7008   15.5597 C.3     1  UNL1        0.1099
     26 C          67.1662   92.8252   16.7207 C.3     1  UNL1        0.0265
     27 C          69.4133   92.1521   14.5329 C.3     1  UNL1        0.0021
     28 C          69.1509   93.4799   15.2436 C.3     1  UNL1        0.0245
     29 C          62.5245   88.5636   12.9908 C.2     1  UNL1        0.1747
     30 C          63.2947   87.3396   13.3803 C.3     1  UNL1        0.0773
     31 O          61.3088   88.6508   13.3109 O.2     1  UNL1       -0.2913
     32 O          57.5263   81.9982    8.1409 O.3     1  UNL1       -0.4727
     33 C          57.4518   80.8685    9.0071 C.3     1  UNL1        0.2374
     34 C          58.8225   80.6278    9.6458 C.3     1  UNL1        0.1909
     35 C          58.7667   79.6505   10.7923 C.3     1  UNL1        0.1783
     36 O          59.3922   80.2688   11.8714 O.3     1  UNL1       -0.3271
     37 C          59.4790   81.6436   11.5516 C.3     1  UNL1        0.2232
     38 O          59.3179   81.8241   10.1617 O.3     1  UNL1       -0.3258
     39 C          60.8416   82.1785   12.0063 C.ar    1  UNL1        0.0404
     40 C          61.5179   83.0914   11.1668 C.ar    1  UNL1        0.0021
     41 C          62.7821   83.5788   11.4996 C.ar    1  UNL1        0.0113
     42 C          63.4119   83.1523   12.6666 C.ar    1  UNL1        0.0585
     43 CL         65.0042   83.7625   13.0785 Cl      1  UNL1       -0.0822
     44 C          62.7816   82.2267   13.4978 C.ar    1  UNL1        0.0226
     45 C          61.5126   81.7259   13.1796 C.ar    1  UNL1        0.0591
     46 CL         60.8550   80.5145   14.2800 Cl      1  UNL1       -0.0824
     47 C          58.3560   82.3944   12.2995 C.3     1  UNL1        0.1338
     48 N          58.7370   83.8104   12.5127 N.3     1  UNL1       -0.2659
     49 C          57.5591   84.7019   12.5579 C.3     1  UNL1        0.0896
     50 C          57.9578   86.1462   12.9211 C.3     1  UNL1        0.0862
     51 N          59.4121   86.3199   12.8420 N.3     1  UNL1       -0.2951
     52 C          60.0917   85.4356   13.8009 C.3     1  UNL1        0.0862
     53 C          59.5673   83.9874   13.7177 C.3     1  UNL1        0.0896
     54 H          59.6362   87.3098   13.0984 H       1  UNL1        0.1233
@<TRIPOS>BOND
     1    27    28    1
     2    28    25    1
     3    25    26    1
     4    25    19    1
     5    19    20   ar
     6    20    21   ar
     7    21    22   ar
     8    22    13    1
     9    13    14   ar
    10    14    15   ar
    11    15    16   ar
    12    16     7    1
    13     7     8    1
    14     8     9    1
    15     9    10    1
    16    10     1    1
    17     1     2   ar
    18     2     3   ar
    19     3     4   ar
    20     4    32    1
    21    32    33    1
    22    33    34    1
    23    34    35    1
    24    35    36    1
    25    36    37    1
    26    37    47    1
    27    47    48    1
    28    48    49    1
    29    49    50    1
    30    50    51    1
    31    51    52    1
    32    52    53    1
    33    37    39    1
    34    39    40   ar
    35    40    41   ar
    36    41    42   ar
    37    42    43    1
    38    42    44   ar
    39    44    45   ar
    40    45    46    1
    41    37    38    1
    42     4     5   ar
    43     5     6   ar
    44    10    11    1
    45    11    12    1
    46    16    17   ar
    47    17    29    1
    48    29    30    1
    49    29    31    2
    50    17    18   ar
    51    22    23   ar
    52    23    24    2
    53    23    19   ar
    54    18    13   ar
    55    12     7    1
    56     6     1   ar
    57    38    34    1
    58    53    48    1
    59    45    39   ar
    60    51    54    1
@<TRIPOS>MOLECULE
*****
 54 60 0 0 0
SMALL
GASTEIGER

@<TRIPOS>ATOM
      1 C          59.4880   85.7036    9.4170 C.ar    1  UNL1        0.0481
      2 C          58.2755   85.4285   10.0755 C.ar    1  UNL1        0.0176
      3 C          57.5670   84.2551    9.8019 C.ar    1  UNL1        0.0382
      4 C          58.0608   83.3307    8.8638 C.ar    1  UNL1        0.1388
      5 C          59.2638   83.6035    8.2059 C.ar    1  UNL1        0.0382
      6 C          59.9743   84.7752    8.4792 C.ar    1  UNL1        0.0176
      7 N          61.8192   89.1374   10.4390 N.pl3   1  UNL1       -0.3040
      8 C          60.3815   89.1681   10.7322 C.3     1  UNL1        0.1122
      9 C          59.8371   87.7430   10.8573 C.3     1  UNL1        0.1122
     10 N          60.2264   86.9118    9.7053 N.pl3   1  UNL1       -0.3041
     11 C          61.2841   87.3685    8.7898 C.3     1  UNL1        0.1122
     12 C          62.3839   88.1093    9.5567 C.3     1  UNL1        0.1122
     13 C          64.6190   91.7262   12.3237 C.ar    1  UNL1        0.0700
     14 C          64.3050   91.8688   10.9634 C.ar    1  UNL1        0.0190
     15 C          63.3600   91.0352   10.3644 C.ar    1  UNL1        0.0161
     16 C          62.6994   90.0513   11.1123 C.ar    1  UNL1        0.0508
     17 C          62.9790   89.9209   12.4916 C.ar    1  UNL1        0.0495
     18 C          63.9477   90.7508   13.0794 C.ar    1  UNL1        0.0218
     19 N          67.1391   93.4172   14.3151 N.ar    1  UNL1       -0.2024
     20 N          66.9193   94.3313   13.3818 N.ar    1  UNL1       -0.1442
     21 C          65.9806   93.8181   12.5571 C.ar    1  UNL1        0.2073
     22 N          65.5973   92.5810   12.9466 N.ar    1  UNL1       -0.2398
     23 C          66.3378   92.3661   14.0519 C.ar    1  UNL1        0.3522
     24 O          66.2652   91.3316   14.7685 O.2     1  UNL1       -0.2444
     25 C          68.0875   93.5929   15.4215 C.3     1  UNL1        0.1099
     26 C          67.5743   92.8733   16.6760 C.3     1  UNL1        0.0265
     27 C          69.4500   92.0443   13.9100 C.3     1  UNL1        0.0021
     28 C          69.4932   93.1151   15.0001 C.3     1  UNL1        0.0245
     29 C          62.2597   88.9557   13.3500 C.2     1  UNL1        0.1747
     30 C          62.8217   87.5974   13.6371 C.3     1  UNL1        0.0773
     31 O          61.1343   89.2665   13.8241 O.2     1  UNL1       -0.2913
     32 O          57.3951   82.1340    8.5640 O.3     1  UNL1       -0.4727
     33 C          57.9218   80.8331    8.8134 C.3     1  UNL1        0.2374
     34 C          58.2571   80.6984   10.3013 C.3     1  UNL1        0.1909
     35 C          57.8607   81.9143   11.0995 C.3     1  UNL1        0.1783
     36 O          58.9876   82.3006   11.8200 O.3     1  UNL1       -0.3271
     37 C          60.0880   81.6347   11.2319 C.3     1  UNL1        0.2232
     38 O          59.6330   80.5439   10.4615 O.3     1  UNL1       -0.3258
     39 C          61.0309   81.1512   12.3396 C.ar    1  UNL1        0.0404
     40 C          61.0046   81.8213   13.5828 C.ar    1  UNL1        0.0021
     41 C          61.8705   81.4616   14.6159 C.ar    1  UNL1        0.0113
     42 C          62.7978   80.4393   14.4281 C.ar    1  UNL1        0.0585
     43 CL         63.8893   79.9941   15.7272 Cl      1  UNL1       -0.0822
     44 C          62.8683   79.7822   13.2000 C.ar    1  UNL1        0.0226
     45 C          62.0074   80.1301   12.1510 C.ar    1  UNL1        0.0591
     46 CL         62.2427   79.2663   10.6313 Cl      1  UNL1       -0.0824
     47 C          60.8350   82.6309   10.3189 C.3     1  UNL1        0.1338
     48 N          62.1875   82.9078   10.8572 N.3     1  UNL1       -0.2659
     49 C          63.2387   82.7390    9.8322 C.3     1  UNL1        0.0896
     50 C          64.6208   83.1665   10.3651 C.3     1  UNL1        0.0862
     51 N          64.5832   83.3507   11.8198 N.3     1  UNL1       -0.2951
     52 C          63.6374   84.4173   12.1820 C.3     1  UNL1        0.0862
     53 C          62.2771   84.2425   11.4763 C.3     1  UNL1        0.0896
     54 H          65.5376   83.6422   12.1359 H       1  UNL1        0.1233
@<TRIPOS>BOND
     1    27    28    1
     2    28    25    1
     3    25    26    1
     4    25    19    1
     5    19    20   ar
     6    20    21   ar
     7    21    22   ar
     8    22    13    1
     9    13    14   ar
    10    14    15   ar
    11    15    16   ar
    12    16     7    1
    13     7     8    1
    14     8     9    1
    15     9    10    1
    16    10     1    1
    17     1     2   ar
    18     2     3   ar
    19     3     4   ar
    20     4    32    1
    21    32    33    1
    22    33    34    1
    23    34    35    1
    24    35    36    1
    25    36    37    1
    26    37    47    1
    27    47    48    1
    28    48    49    1
    29    49    50    1
    30    50    51    1
    31    51    52    1
    32    52    53    1
    33    37    39    1
    34    39    40   ar
    35    40    41   ar
    36    41    42   ar
    37    42    43    1
    38    42    44   ar
    39    44    45   ar
    40    45    46    1
    41    37    38    1
    42     4     5   ar
    43     5     6   ar
    44    10    11    1
    45    11    12    1
    46    16    17   ar
    47    17    29    1
    48    29    30    1
    49    29    31    2
    50    17    18   ar
    51    22    23   ar
    52    23    24    2
    53    23    19   ar
    54    18    13   ar
    55    12     7    1
    56     6     1   ar
    57    38    34    1
    58    53    48    1
    59    45    39   ar
    60    51    54    1
@<TRIPOS>MOLECULE
*****
 54 60 0 0 0
SMALL
GASTEIGER

@<TRIPOS>ATOM
      1 C          60.4371   87.2506   10.3976 C.ar    1  UNL1        0.0481
      2 C          59.5081   87.0796   11.4403 C.ar    1  UNL1        0.0176
      3 C          59.8166   86.2801   12.5446 C.ar    1  UNL1        0.0382
      4 C          61.0646   85.6371   12.6284 C.ar    1  UNL1        0.1388
      5 C          61.9882   85.8031   11.5920 C.ar    1  UNL1        0.0382
      6 C          61.6823   86.6031   10.4879 C.ar    1  UNL1        0.0176
      7 N          59.7497   89.6617    6.9358 N.pl3   1  UNL1       -0.3040
      8 C          59.7294   90.3182    8.2482 C.3     1  UNL1        0.1122
      9 C          60.5328   89.4990    9.2614 C.3     1  UNL1        0.1122
     10 N          60.1235   88.0841    9.2595 N.pl3   1  UNL1       -0.3041
     11 C          59.3023   87.5549    8.1591 C.3     1  UNL1        0.1122
     12 C          59.6990   88.1988    6.8270 C.3     1  UNL1        0.1122
     13 C          60.3912   92.1865    3.5733 C.ar    1  UNL1        0.0700
     14 C          61.4658   91.5562    4.2191 C.ar    1  UNL1        0.0190
     15 C          61.2398   90.7036    5.3002 C.ar    1  UNL1        0.0161
     16 C          59.9370   90.4519    5.7509 C.ar    1  UNL1        0.0508
     17 C          58.8428   91.0512    5.0867 C.ar    1  UNL1        0.0495
     18 C          59.0832   91.9246    4.0134 C.ar    1  UNL1        0.0218
     19 N          61.3933   93.9928    0.5884 N.ar    1  UNL1       -0.2024
     20 N          60.4836   94.8232    1.0759 N.ar    1  UNL1       -0.1442
     21 C          60.0204   94.2590    2.2125 C.ar    1  UNL1        0.2073
     22 N          60.6187   93.0716    2.4594 N.ar    1  UNL1       -0.2398
     23 C          61.4749   92.9409    1.4268 C.ar    1  UNL1        0.3522
     24 O          62.2749   91.9776    1.2818 O.2     1  UNL1       -0.2444
     25 C          62.1532   94.2463   -0.6415 C.3     1  UNL1        0.1099
     26 C          63.6524   94.0389   -0.3878 C.3     1  UNL1        0.0265
     27 C          60.1378   93.5989   -2.0761 C.3     1  UNL1        0.0021
     28 C          61.6207   93.3628   -1.7893 C.3     1  UNL1        0.0245
     29 C          57.4427   90.7641    5.4649 C.2     1  UNL1        0.1747
     30 C          56.3082   91.5892    4.9403 C.3     1  UNL1        0.0773
     31 O          57.1981   89.8276    6.2719 O.2     1  UNL1       -0.2913
     32 O          61.4269   84.8360   13.7203 O.3     1  UNL1       -0.4727
     33 C          61.3009   83.4166   13.7568 C.3     1  UNL1        0.2374
     34 C          60.0813   82.9943   12.9330 C.3     1  UNL1        0.1909
     35 C          59.5809   81.6195   13.2970 C.3     1  UNL1        0.1783
     36 O          59.4867   80.9037   12.1067 O.3     1  UNL1       -0.3271
     37 C          60.2283   81.6264   11.1436 C.3     1  UNL1        0.2232
     38 O          60.4175   82.9543   11.5810 O.3     1  UNL1       -0.3258
     39 C          59.4725   81.6048    9.8101 C.ar    1  UNL1        0.0404
     40 C          60.0165   80.8563    8.7428 C.ar    1  UNL1        0.0021
     41 C          59.4033   80.8339    7.4898 C.ar    1  UNL1        0.0113
     42 C          58.2447   81.5736    7.2641 C.ar    1  UNL1        0.0585
     43 CL         57.4802   81.5480    5.6855 Cl      1  UNL1       -0.0822
     44 C          57.7036   82.3475    8.2903 C.ar    1  UNL1        0.0226
     45 C          58.3058   82.3828    9.5547 C.ar    1  UNL1        0.0591
     46 CL         57.5584   83.4498   10.7438 Cl      1  UNL1       -0.0824
     47 C          61.6021   80.9441   10.9673 C.3     1  UNL1        0.1338
     48 N          62.6880   81.8528   11.4042 N.3     1  UNL1       -0.2659
     49 C          63.4868   81.2748   12.5051 C.3     1  UNL1        0.0896
     50 C          64.6964   82.1652   12.8529 C.3     1  UNL1        0.0862
     51 N          64.5779   83.4781   12.2096 N.3     1  UNL1       -0.2951
     52 C          64.5586   83.3370   10.7456 C.3     1  UNL1        0.0862
     53 C          63.5606   82.2543   10.2863 C.3     1  UNL1        0.0896
     54 H          65.4184   84.0453   12.4697 H       1  UNL1        0.1233
@<TRIPOS>BOND
     1    27    28    1
     2    28    25    1
     3    25    26    1
     4    25    19    1
     5    19    20   ar
     6    20    21   ar
     7    21    22   ar
     8    22    13    1
     9    13    14   ar
    10    14    15   ar
    11    15    16   ar
    12    16     7    1
    13     7     8    1
    14     8     9    1
    15     9    10    1
    16    10     1    1
    17     1     2   ar
    18     2     3   ar
    19     3     4   ar
    20     4    32    1
    21    32    33    1
    22    33    34    1
    23    34    35    1
    24    35    36    1
    25    36    37    1
    26    37    47    1
    27    47    48    1
    28    48    49    1
    29    49    50    1
    30    50    51    1
    31    51    52    1
    32    52    53    1
    33    37    39    1
    34    39    40   ar
    35    40    41   ar
    36    41    42   ar
    37    42    43    1
    38    42    44   ar
    39    44    45   ar
    40    45    46    1
    41    37    38    1
    42     4     5   ar
    43     5     6   ar
    44    10    11    1
    45    11    12    1
    46    16    17   ar
    47    17    29    1
    48    29    30    1
    49    29    31    2
    50    17    18   ar
    51    22    23   ar
    52    23    24    2
    53    23    19   ar
    54    18    13   ar
    55    12     7    1
    56     6     1   ar
    57    38    34    1
    58    53    48    1
    59    45    39   ar
    60    51    54    1
@<TRIPOS>MOLECULE
*****
 54 60 0 0 0
SMALL
GASTEIGER

@<TRIPOS>ATOM
      1 C          60.4688   86.0615    9.9199 C.ar    1  UNL1        0.0481
      2 C          59.4451   85.2675   10.4686 C.ar    1  UNL1        0.0176
      3 C          59.7438   84.2503   11.3796 C.ar    1  UNL1        0.0382
      4 C          61.0757   84.0092   11.7620 C.ar    1  UNL1        0.1388
      5 C          62.0949   84.7949   11.2157 C.ar    1  UNL1        0.0382
      6 C          61.7981   85.8132   10.3061 C.ar    1  UNL1        0.0176
      7 N          59.7637   89.1115    7.0096 N.pl3   1  UNL1       -0.3040
      8 C          60.0854   89.5273    8.3797 C.3     1  UNL1        0.1122
      9 C          60.8498   88.4160    9.1036 C.3     1  UNL1        0.1122
     10 N          60.1609   87.1195    8.9851 N.pl3   1  UNL1       -0.3041
     11 C          59.0860   86.9428    7.9957 C.3     1  UNL1        0.1122
     12 C          59.3944   87.7221    6.7135 C.3     1  UNL1        0.1122
     13 C          60.3288   92.0408    3.9776 C.ar    1  UNL1        0.0700
     14 C          61.4162   91.3276    4.5050 C.ar    1  UNL1        0.0190
     15 C          61.2144   90.3454    5.4752 C.ar    1  UNL1        0.0161
     16 C          59.9232   90.0452    5.9297 C.ar    1  UNL1        0.0508
     17 C          58.8154   90.7301    5.3807 C.ar    1  UNL1        0.0495
     18 C          59.0320   91.7319    4.4204 C.ar    1  UNL1        0.0218
     19 N          61.3613   94.2867    1.3193 N.ar    1  UNL1       -0.2024
     20 N          60.2526   94.8886    1.7233 N.ar    1  UNL1       -0.1442
     21 C          59.7565   94.1399    2.7324 C.ar    1  UNL1        0.2073
     22 N          60.5315   93.0594    2.9790 N.ar    1  UNL1       -0.2398
     23 C          61.5282   93.1875    2.0809 C.ar    1  UNL1        0.3522
     24 O          62.5094   92.4016    1.9882 O.2     1  UNL1       -0.2444
     25 C          62.2178   94.7934    0.2404 C.3     1  UNL1        0.1099
     26 C          63.6715   94.8908    0.7222 C.3     1  UNL1        0.0265
     27 C          63.1309   94.2113   -2.0761 C.3     1  UNL1        0.0021
     28 C          62.0702   93.9110   -1.0170 C.3     1  UNL1        0.0245
     29 C          57.4245   90.4046    5.7617 C.2     1  UNL1        0.1747
     30 C          56.2635   91.1672    5.2017 C.3     1  UNL1        0.0773
     31 O          57.2096   89.4893    6.6008 O.2     1  UNL1       -0.2913
     32 O          61.4259   83.0106   12.6814 O.3     1  UNL1       -0.4727
     33 C          61.7150   83.2457   14.0573 C.3     1  UNL1        0.2374
     34 C          62.7730   84.3465   14.1723 C.3     1  UNL1        0.1909
     35 C          63.2277   84.5706   15.5921 C.3     1  UNL1        0.1783
     36 O          63.1024   85.9351   15.8382 O.3     1  UNL1       -0.3271
     37 C          62.2802   86.4545   14.8114 C.3     1  UNL1        0.2232
     38 O          62.2445   85.5559   13.7244 O.3     1  UNL1       -0.3258
     39 C          62.8339   87.8124   14.3653 C.ar    1  UNL1        0.0404
     40 C          63.0552   88.0264   12.9866 C.ar    1  UNL1        0.0021
     41 C          63.6018   89.2221   12.5197 C.ar    1  UNL1        0.0113
     42 C          63.9604   90.2254   13.4170 C.ar    1  UNL1        0.0585
     43 CL         64.6533   91.7249   12.8266 Cl      1  UNL1       -0.0822
     44 C          63.7834   90.0287   14.7862 C.ar    1  UNL1        0.0226
     45 C          63.2366   88.8345   15.2736 C.ar    1  UNL1        0.0591
     46 CL         63.1254   88.6875   17.0277 Cl      1  UNL1       -0.0824
     47 C          60.8529   86.6395   15.3706 C.3     1  UNL1        0.1338
     48 N          59.9279   87.0593   14.2918 N.3     1  UNL1       -0.2659
     49 C          58.7193   86.2107   14.2346 C.3     1  UNL1        0.0896
     50 C          57.7031   86.7438   13.2051 C.3     1  UNL1        0.0862
     51 N          58.3144   87.7708   12.3547 N.3     1  UNL1       -0.2951
     52 C          58.7472   88.9212   13.1625 C.3     1  UNL1        0.0862
     53 C          59.5574   88.4819   14.3994 C.3     1  UNL1        0.0896
     54 H          57.5906   88.1048   11.6761 H       1  UNL1        0.1233
@<TRIPOS>BOND
     1    27    28    1
     2    28    25    1
     3    25    26    1
     4    25    19    1
     5    19    20   ar
     6    20    21   ar
     7    21    22   ar
     8    22    13    1
     9    13    14   ar
    10    14    15   ar
    11    15    16   ar
    12    16     7    1
    13     7     8    1
    14     8     9    1
    15     9    10    1
    16    10     1    1
    17     1     2   ar
    18     2     3   ar
    19     3     4   ar
    20     4    32    1
    21    32    33    1
    22    33    34    1
    23    34    35    1
    24    35    36    1
    25    36    37    1
    26    37    47    1
    27    47    48    1
    28    48    49    1
    29    49    50    1
    30    50    51    1
    31    51    52    1
    32    52    53    1
    33    37    39    1
    34    39    40   ar
    35    40    41   ar
    36    41    42   ar
    37    42    43    1
    38    42    44   ar
    39    44    45   ar
    40    45    46    1
    41    37    38    1
    42     4     5   ar
    43     5     6   ar
    44    10    11    1
    45    11    12    1
    46    16    17   ar
    47    17    29    1
    48    29    30    1
    49    29    31    2
    50    17    18   ar
    51    22    23   ar
    52    23    24    2
    53    23    19   ar
    54    18    13   ar
    55    12     7    1
    56     6     1   ar
    57    38    34    1
    58    53    48    1
    59    45    39   ar
    60    51    54    1
