@<TRIPOS>MOLECULE
*****
 43 47 0 0 0
SMALL
GASTEIGER

@<TRIPOS>ATOM
      1 C          -9.0149  -10.2848   32.1408 C.3     1  UNL1        0.1332
      2 N          -9.4008  -11.4678   31.3724 N.ar    1  UNL1       -0.2977
      3 C         -10.4681  -12.2892   31.5731 C.ar    1  UNL1        0.2018
      4 N         -10.5251  -13.3346   30.7048 N.ar    1  UNL1       -0.2135
      5 C          -9.4370  -13.1495   29.9377 C.ar    1  UNL1        0.0999
      6 C          -8.9895  -13.9655   28.8905 C.ar    1  UNL1        0.0282
      7 C          -7.7859  -13.6133   28.2280 C.ar    1  UNL1        0.0888
      8 C          -7.0853  -12.4701   28.6846 C.ar    1  UNL1        0.1401
      9 C          -7.5553  -11.6809   29.7088 C.ar    1  UNL1        0.0327
     10 C          -8.7516  -12.0337   30.3382 C.ar    1  UNL1        0.0789
     11 C          -6.5984  -10.5739   29.9818 C.3     1  UNL1        0.0709
     12 C          -5.4465  -10.8584   28.9623 C.3     1  UNL1        0.1375
     13 C          -5.2602   -9.6900   27.9854 C.3     1  UNL1        0.0439
     14 C          -4.1279  -11.1686   29.6835 C.3     1  UNL1        0.0439
     15 O          -5.8637  -12.0149   28.2340 O.3     1  UNL1       -0.4824
     16 C          -7.2754  -14.4511   27.1232 C.2     1  UNL1        0.2525
     17 O          -6.0703  -14.8232   27.1422 O.2     1  UNL1       -0.2697
     18 N          -8.1349  -14.8565   26.0444 N.am    1  UNL1       -0.2801
     19 H          -9.1250  -14.5276   26.0198 H       1  UNL1        0.1552
     20 C          -7.6527  -15.5820   24.9048 C.ar    1  UNL1        0.0567
     21 C          -6.6057  -15.0260   24.1565 C.ar    1  UNL1        0.0187
     22 C          -6.0523  -15.7158   23.0662 C.ar    1  UNL1        0.0727
     23 C          -6.5342  -16.9963   22.7563 C.ar    1  UNL1        0.0041
     24 C          -7.5949  -17.5476   23.4774 C.ar    1  UNL1        0.0076
     25 C          -8.1862  -16.8409   24.5374 C.ar    1  UNL1        0.0889
     26 C          -4.8831  -15.1353   22.3107 C.3     1  UNL1        0.4186
     27 F          -3.8767  -16.0755   22.1718 F       1  UNL1       -0.1659
     28 F          -5.3045  -14.7377   21.0557 F       1  UNL1       -0.1659
     29 F          -4.3625  -14.0409   22.9795 F       1  UNL1       -0.1659
     30 C          -9.3642  -17.4290   25.2170 C.2     1  UNL1        0.3392
     31 O          -9.3521  -17.5828   26.4671 O.2     1  UNL1       -0.2450
     32 O         -10.4801  -17.8536   24.4986 O.3     1  UNL1       -0.4771
     33 H         -10.4942  -17.8605   23.4864 H       1  UNL1        0.2954
     34 N         -11.4164  -12.1182   32.6373 N.pl3   1  UNL1       -0.2814
     35 H         -11.4342  -11.2103   33.1519 H       1  UNL1        0.1551
     36 C         -12.1196  -13.2279   33.2146 C.ar    1  UNL1        0.0889
     37 C         -13.2975  -13.6887   32.6033 C.ar    1  UNL1        0.1543
     38 F         -13.7742  -13.0784   31.4891 F       1  UNL1       -0.2028
     39 C         -14.0010  -14.7659   33.1498 C.ar    1  UNL1        0.0310
     40 C         -13.5285  -15.4001   34.3003 C.ar    1  UNL1        0.0033
     41 C         -12.3452  -14.9663   34.9021 C.ar    1  UNL1        0.0128
     42 C         -11.6323  -13.8880   34.3637 C.ar    1  UNL1        0.0733
     43 CL        -10.0996  -13.4429   35.1051 Cl      1  UNL1       -0.0809
@<TRIPOS>BOND
     1     1     2    1
     2     2     3   ar
     3     3    34    1
     4    34    36    1
     5    36    37   ar
     6    37    38    1
     7    37    39   ar
     8    39    40   ar
     9    40    41   ar
    10    41    42   ar
    11    42    43    1
    12     3     4   ar
    13     4     5   ar
    14     5     6   ar
    15     6     7   ar
    16     7    16    1
    17    16    17    2
    18    16    18   am
    19    18    20    1
    20    20    21   ar
    21    21    22   ar
    22    22    26    1
    23    26    27    1
    24    26    28    1
    25    26    29    1
    26    22    23   ar
    27    23    24   ar
    28    24    25   ar
    29    25    30    1
    30    30    31    2
    31    30    32    1
    32     7     8   ar
    33     8     9   ar
    34     9    10   ar
    35     9    11    1
    36    11    12    1
    37    12    13    1
    38    12    14    1
    39    12    15    1
    40    10     2   ar
    41    42    36   ar
    42    10     5   ar
    43    25    20   ar
    44    15     8    1
    45    34    35    1
    46    18    19    1
    47    32    33    1
@<TRIPOS>MOLECULE
*****
 43 47 0 0 0
SMALL
GASTEIGER

@<TRIPOS>ATOM
      1 C          -8.7184  -10.1506   32.0684 C.3     1  UNL1        0.1332
      2 N          -9.1214  -11.3538   31.3411 N.ar    1  UNL1       -0.2977
      3 C         -10.1752  -12.1773   31.5969 C.ar    1  UNL1        0.2018
      4 N         -10.2539  -13.2429   30.7554 N.ar    1  UNL1       -0.2135
      5 C          -9.1938  -13.0686   29.9475 C.ar    1  UNL1        0.0999
      6 C          -8.7760  -13.9057   28.9048 C.ar    1  UNL1        0.0282
      7 C          -7.5983  -13.5611   28.1937 C.ar    1  UNL1        0.0888
      8 C          -6.8910  -12.4031   28.5998 C.ar    1  UNL1        0.1401
      9 C          -7.3318  -11.5934   29.6209 C.ar    1  UNL1        0.0327
     10 C          -8.5035  -11.9393   30.2987 C.ar    1  UNL1        0.0789
     11 C          -6.3744  -10.4740   29.8356 C.3     1  UNL1        0.0709
     12 C          -5.2557  -10.7746   28.7843 C.3     1  UNL1        0.1375
     13 C          -5.1112   -9.6280   27.7749 C.3     1  UNL1        0.0439
     14 C          -3.9111  -11.0592   29.4671 C.3     1  UNL1        0.0439
     15 O          -5.6887  -11.9504   28.0974 O.3     1  UNL1       -0.4824
     16 C          -7.1194  -14.4210   27.0918 C.2     1  UNL1        0.2525
     17 O          -5.9252  -14.8272   27.1055 O.2     1  UNL1       -0.2697
     18 N          -7.9973  -14.8095   26.0217 N.am    1  UNL1       -0.2801
     19 H          -8.9778  -14.4527   26.0012 H       1  UNL1        0.1552
     20 C          -7.5437  -15.5566   24.8843 C.ar    1  UNL1        0.0567
     21 C          -6.4363  -15.0762   24.1713 C.ar    1  UNL1        0.0187
     22 C          -5.9103  -15.7940   23.0856 C.ar    1  UNL1        0.0727
     23 C          -6.4835  -17.0281   22.7446 C.ar    1  UNL1        0.0041
     24 C          -7.6035  -17.5024   23.4301 C.ar    1  UNL1        0.0076
     25 C          -8.1651  -16.7644   24.4849 C.ar    1  UNL1        0.0889
     26 C          -4.6791  -15.2988   22.3689 C.3     1  UNL1        0.4186
     27 F          -3.5698  -16.0415   22.7348 F       1  UNL1       -0.1659
     28 F          -4.8691  -15.4148   21.0047 F       1  UNL1       -0.1659
     29 F          -4.4322  -13.9724   22.6789 F       1  UNL1       -0.1659
     30 C          -9.4037  -17.2654   25.1252 C.2     1  UNL1        0.3392
     31 O          -9.4179  -17.4953   26.3636 O.2     1  UNL1       -0.2450
     32 O         -10.5522  -17.5260   24.3804 O.3     1  UNL1       -0.4771
     33 H         -10.5588  -17.4699   23.3696 H       1  UNL1        0.2954
     34 N         -11.0881  -11.9878   32.6885 N.pl3   1  UNL1       -0.2814
     35 H         -11.0413  -11.0983   33.2326 H       1  UNL1        0.1551
     36 C         -11.8424  -13.0738   33.2461 C.ar    1  UNL1        0.0889
     37 C         -11.3321  -13.7667   34.3565 C.ar    1  UNL1        0.1543
     38 F         -10.1299  -13.4237   34.8837 F       1  UNL1       -0.2028
     39 C         -12.0478  -14.8301   34.9142 C.ar    1  UNL1        0.0310
     40 C         -13.2827  -15.2009   34.3788 C.ar    1  UNL1        0.0033
     41 C         -13.8113  -14.5028   33.2907 C.ar    1  UNL1        0.0128
     42 C         -13.1030  -13.4364   32.7236 C.ar    1  UNL1        0.0733
     43 CL        -13.8565  -12.5312   31.4158 Cl      1  UNL1       -0.0809
@<TRIPOS>BOND
     1     1     2    1
     2     2     3   ar
     3     3    34    1
     4    34    36    1
     5    36    37   ar
     6    37    38    1
     7    37    39   ar
     8    39    40   ar
     9    40    41   ar
    10    41    42   ar
    11    42    43    1
    12     3     4   ar
    13     4     5   ar
    14     5     6   ar
    15     6     7   ar
    16     7    16    1
    17    16    17    2
    18    16    18   am
    19    18    20    1
    20    20    21   ar
    21    21    22   ar
    22    22    26    1
    23    26    27    1
    24    26    28    1
    25    26    29    1
    26    22    23   ar
    27    23    24   ar
    28    24    25   ar
    29    25    30    1
    30    30    31    2
    31    30    32    1
    32     7     8   ar
    33     8     9   ar
    34     9    10   ar
    35     9    11    1
    36    11    12    1
    37    12    13    1
    38    12    14    1
    39    12    15    1
    40    10     2   ar
    41    42    36   ar
    42    10     5   ar
    43    25    20   ar
    44    15     8    1
    45    34    35    1
    46    18    19    1
    47    32    33    1
@<TRIPOS>MOLECULE
*****
 43 47 0 0 0
SMALL
GASTEIGER

@<TRIPOS>ATOM
      1 C          -5.6133  -15.1724   26.6546 C.3     1  UNL1        0.1332
      2 N          -6.9127  -14.9542   27.2893 N.ar    1  UNL1       -0.2977
      3 C          -8.0312  -15.7257   27.2017 C.ar    1  UNL1        0.2018
      4 N          -9.0970  -15.2238   27.8815 N.ar    1  UNL1       -0.2135
      5 C          -8.6112  -14.0860   28.4071 C.ar    1  UNL1        0.0999
      6 C          -9.3035  -13.1477   29.1836 C.ar    1  UNL1        0.0282
      7 C          -8.6136  -11.9841   29.6097 C.ar    1  UNL1        0.0888
      8 C          -7.2682  -11.8205   29.1984 C.ar    1  UNL1        0.1401
      9 C          -6.6104  -12.7649   28.4447 C.ar    1  UNL1        0.0327
     10 C          -7.3009  -13.9130   28.0486 C.ar    1  UNL1        0.0789
     11 C          -5.2254  -12.3077   28.1472 C.3     1  UNL1        0.0709
     12 C          -5.1771  -10.8991   28.8258 C.3     1  UNL1        0.1375
     13 C          -4.0947  -10.8358   29.9115 C.3     1  UNL1        0.0439
     14 C          -4.9612   -9.7881   27.7893 C.3     1  UNL1        0.0439
     15 O          -6.4592  -10.7282   29.4333 O.3     1  UNL1       -0.4824
     16 C          -9.3093  -10.9664   30.4241 C.2     1  UNL1        0.2525
     17 O          -9.0406  -10.8760   31.6533 O.2     1  UNL1       -0.2697
     18 N         -10.2693  -10.0750   29.8319 N.am    1  UNL1       -0.2801
     19 H         -10.5065  -10.1680   28.8198 H       1  UNL1        0.1552
     20 C         -11.0387   -9.1446   30.6065 C.ar    1  UNL1        0.0567
     21 C         -10.7333   -7.7803   30.5031 C.ar    1  UNL1        0.0187
     22 C         -11.4887   -6.8174   31.1908 C.ar    1  UNL1        0.0727
     23 C         -12.5876   -7.2351   31.9563 C.ar    1  UNL1        0.0041
     24 C         -12.8837   -8.5930   32.0884 C.ar    1  UNL1        0.0076
     25 C         -12.1009   -9.5644   31.4432 C.ar    1  UNL1        0.0889
     26 C         -11.1905   -5.3491   31.0189 C.3     1  UNL1        0.4186
     27 F         -11.6500   -4.8980   29.7936 F       1  UNL1       -0.1659
     28 F         -11.8163   -4.6368   32.0247 F       1  UNL1       -0.1659
     29 F          -9.8275   -5.1155   31.0816 F       1  UNL1       -0.1659
     30 C         -12.4005  -10.9955   31.6824 C.2     1  UNL1        0.3392
     31 O         -12.5333  -11.7781   30.7042 O.2     1  UNL1       -0.2450
     32 O         -12.5770  -11.4951   32.9712 O.3     1  UNL1       -0.4771
     33 H         -12.5966  -10.8894   33.7820 H       1  UNL1        0.2954
     34 N          -8.1128  -16.9248   26.4166 N.pl3   1  UNL1       -0.2814
     35 H          -7.3614  -17.6422   26.5175 H       1  UNL1        0.1551
     36 C          -9.0024  -17.0414   25.2968 C.ar    1  UNL1        0.0889
     37 C          -9.9071  -18.1149   25.2460 C.ar    1  UNL1        0.1543
     38 F          -9.9257  -19.0415   26.2370 F       1  UNL1       -0.2028
     39 C         -10.7808  -18.2506   24.1633 C.ar    1  UNL1        0.0310
     40 C         -10.7691  -17.3104   23.1313 C.ar    1  UNL1        0.0033
     41 C          -9.8913  -16.2253   23.1838 C.ar    1  UNL1        0.0128
     42 C          -9.0113  -16.0795   24.2632 C.ar    1  UNL1        0.0733
     43 CL         -7.9936  -14.6451   24.3268 Cl      1  UNL1       -0.0809
@<TRIPOS>BOND
     1     1     2    1
     2     2     3   ar
     3     3    34    1
     4    34    36    1
     5    36    37   ar
     6    37    38    1
     7    37    39   ar
     8    39    40   ar
     9    40    41   ar
    10    41    42   ar
    11    42    43    1
    12     3     4   ar
    13     4     5   ar
    14     5     6   ar
    15     6     7   ar
    16     7    16    1
    17    16    17    2
    18    16    18   am
    19    18    20    1
    20    20    21   ar
    21    21    22   ar
    22    22    26    1
    23    26    27    1
    24    26    28    1
    25    26    29    1
    26    22    23   ar
    27    23    24   ar
    28    24    25   ar
    29    25    30    1
    30    30    31    2
    31    30    32    1
    32     7     8   ar
    33     8     9   ar
    34     9    10   ar
    35     9    11    1
    36    11    12    1
    37    12    13    1
    38    12    14    1
    39    12    15    1
    40    10     2   ar
    41    42    36   ar
    42    10     5   ar
    43    25    20   ar
    44    15     8    1
    45    34    35    1
    46    18    19    1
    47    32    33    1
@<TRIPOS>MOLECULE
*****
 43 47 0 0 0
SMALL
GASTEIGER

@<TRIPOS>ATOM
      1 C          -7.8802   -9.6715   32.2442 C.3     1  UNL1        0.1332
      2 N          -7.1822  -10.3968   31.1833 N.ar    1  UNL1       -0.2977
      3 C          -5.9579  -10.1324   30.6492 C.ar    1  UNL1        0.2018
      4 N          -5.6072  -10.9748   29.6406 N.ar    1  UNL1       -0.2135
      5 C          -6.6700  -11.7924   29.5468 C.ar    1  UNL1        0.0999
      6 C          -6.8555  -12.8403   28.6358 C.ar    1  UNL1        0.0282
      7 C          -8.0757  -13.5620   28.6770 C.ar    1  UNL1        0.0888
      8 C          -9.0542  -13.1608   29.6192 C.ar    1  UNL1        0.1401
      9 C          -8.8394  -12.1343   30.5095 C.ar    1  UNL1        0.0327
     10 C          -7.6245  -11.4460   30.4656 C.ar    1  UNL1        0.0789
     11 C         -10.0487  -11.9269   31.3524 C.3     1  UNL1        0.0709
     12 C         -11.0471  -12.9892   30.7851 C.3     1  UNL1        0.1375
     13 C         -11.4655  -13.9981   31.8628 C.3     1  UNL1        0.0439
     14 C         -12.2833  -12.3197   30.1699 C.3     1  UNL1        0.0439
     15 O         -10.3271  -13.6738   29.7580 O.3     1  UNL1       -0.4824
     16 C          -8.3141  -14.6698   27.7288 C.2     1  UNL1        0.2525
     17 O          -8.8258  -15.7415   28.1540 O.2     1  UNL1       -0.2697
     18 N          -7.9867  -14.5341   26.3355 N.am    1  UNL1       -0.2801
     19 H          -7.5421  -13.6549   25.9915 H       1  UNL1        0.1552
     20 C          -8.1077  -15.6193   25.4054 C.ar    1  UNL1        0.0567
     21 C          -9.1875  -16.5017   25.5492 C.ar    1  UNL1        0.0187
     22 C          -9.3919  -17.5474   24.6351 C.ar    1  UNL1        0.0727
     23 C          -8.5206  -17.6760   23.5433 C.ar    1  UNL1        0.0041
     24 C          -7.4262  -16.8201   23.4058 C.ar    1  UNL1        0.0076
     25 C          -7.1877  -15.8034   24.3450 C.ar    1  UNL1        0.0889
     26 C         -10.5942  -18.4488   24.7642 C.3     1  UNL1        0.4186
     27 F         -10.3877  -19.6376   24.0859 F       1  UNL1       -0.1659
     28 F         -10.8145  -18.7249   26.1006 F       1  UNL1       -0.1659
     29 F         -11.7208  -17.8410   24.2374 F       1  UNL1       -0.1659
     30 C          -5.9668  -14.9758   24.2052 C.2     1  UNL1        0.3392
     31 O          -5.3721  -14.5604   25.2351 O.2     1  UNL1       -0.2450
     32 O          -5.4758  -14.6113   22.9531 O.3     1  UNL1       -0.4771
     33 H          -5.9789  -14.8193   22.0996 H       1  UNL1        0.2954
     34 N          -5.1313   -9.0318   31.0571 N.pl3   1  UNL1       -0.2814
     35 H          -4.2275   -9.2350   31.5383 H       1  UNL1        0.1551
     36 C          -5.6264   -7.6859   31.1051 C.ar    1  UNL1        0.0889
     37 C          -6.2725   -7.1503   29.9785 C.ar    1  UNL1        0.1543
     38 F          -6.4099   -7.8926   28.8511 F       1  UNL1       -0.2028
     39 C          -6.7599   -5.8403   30.0012 C.ar    1  UNL1        0.0310
     40 C          -6.6198   -5.0603   31.1506 C.ar    1  UNL1        0.0033
     41 C          -6.0014   -5.5911   32.2849 C.ar    1  UNL1        0.0128
     42 C          -5.5090   -6.9018   32.2735 C.ar    1  UNL1        0.0733
     43 CL         -4.8243   -7.5526   33.7583 Cl      1  UNL1       -0.0809
@<TRIPOS>BOND
     1     1     2    1
     2     2     3   ar
     3     3    34    1
     4    34    36    1
     5    36    37   ar
     6    37    38    1
     7    37    39   ar
     8    39    40   ar
     9    40    41   ar
    10    41    42   ar
    11    42    43    1
    12     3     4   ar
    13     4     5   ar
    14     5     6   ar
    15     6     7   ar
    16     7    16    1
    17    16    17    2
    18    16    18   am
    19    18    20    1
    20    20    21   ar
    21    21    22   ar
    22    22    26    1
    23    26    27    1
    24    26    28    1
    25    26    29    1
    26    22    23   ar
    27    23    24   ar
    28    24    25   ar
    29    25    30    1
    30    30    31    2
    31    30    32    1
    32     7     8   ar
    33     8     9   ar
    34     9    10   ar
    35     9    11    1
    36    11    12    1
    37    12    13    1
    38    12    14    1
    39    12    15    1
    40    10     2   ar
    41    42    36   ar
    42    10     5   ar
    43    25    20   ar
    44    15     8    1
    45    34    35    1
    46    18    19    1
    47    32    33    1
@<TRIPOS>MOLECULE
*****
 43 47 0 0 0
SMALL
GASTEIGER

@<TRIPOS>ATOM
      1 C          -9.2594  -10.3920   32.8739 C.3     1  UNL1        0.1332
      2 N          -9.5503  -11.3965   31.8515 N.ar    1  UNL1       -0.2977
      3 C         -10.6546  -12.1849   31.7377 C.ar    1  UNL1        0.2018
      4 N         -10.6021  -13.0530   30.6920 N.ar    1  UNL1       -0.2135
      5 C          -9.4050  -12.7892   30.1405 C.ar    1  UNL1        0.0999
      6 C          -8.8211  -13.4256   29.0375 C.ar    1  UNL1        0.0282
      7 C          -7.5222  -13.0223   28.6356 C.ar    1  UNL1        0.0888
      8 C          -6.8735  -12.0171   29.3939 C.ar    1  UNL1        0.1401
      9 C          -7.4766  -11.4017   30.4663 C.ar    1  UNL1        0.0327
     10 C          -8.7633  -11.8000   30.8370 C.ar    1  UNL1        0.0789
     11 C          -6.5473  -10.4121   31.0770 C.3     1  UNL1        0.0709
     12 C          -5.2595  -10.5676   30.2028 C.3     1  UNL1        0.1375
     13 C          -4.8980   -9.2538   29.4973 C.3     1  UNL1        0.0439
     14 C          -4.0749  -11.0694   31.0395 C.3     1  UNL1        0.0439
     15 O          -5.5867  -11.5516   29.2196 O.3     1  UNL1       -0.4824
     16 C          -6.8678  -13.6731   27.4818 C.2     1  UNL1        0.2525
     17 O          -5.7108  -13.3017   27.1432 O.2     1  UNL1       -0.2697
     18 N          -7.5238  -14.7274   26.7573 N.am    1  UNL1       -0.2801
     19 H          -8.4902  -15.0162   27.0255 H       1  UNL1        0.1552
     20 C          -6.9659  -15.3123   25.5724 C.ar    1  UNL1        0.0567
     21 C          -7.5502  -14.9989   24.3372 C.ar    1  UNL1        0.0187
     22 C          -7.0128  -15.4934   23.1382 C.ar    1  UNL1        0.0727
     23 C          -5.8505  -16.2773   23.1865 C.ar    1  UNL1        0.0041
     24 C          -5.2765  -16.6183   24.4127 C.ar    1  UNL1        0.0076
     25 C          -5.8389  -16.1681   25.6184 C.ar    1  UNL1        0.0889
     26 C          -7.6120  -15.0952   21.8127 C.3     1  UNL1        0.4186
     27 F          -6.6193  -14.7414   20.9152 F       1  UNL1       -0.1659
     28 F          -8.3261  -16.1608   21.2977 F       1  UNL1       -0.1659
     29 F          -8.4623  -14.0136   21.9648 F       1  UNL1       -0.1659
     30 C          -5.2462  -16.6265   26.8965 C.2     1  UNL1        0.3392
     31 O          -4.0492  -17.0180   26.9254 O.2     1  UNL1       -0.2450
     32 O          -5.9959  -16.6706   28.0703 O.3     1  UNL1       -0.4771
     33 H          -6.9899  -16.4790   28.0780 H       1  UNL1        0.2954
     34 N         -11.7509  -12.1594   32.6643 N.pl3   1  UNL1       -0.2814
     35 H         -11.9316  -11.2840   33.2033 H       1  UNL1        0.1551
     36 C         -12.4081  -13.3591   33.0978 C.ar    1  UNL1        0.0889
     37 C         -13.5331  -13.8198   32.3937 C.ar    1  UNL1        0.1543
     38 F         -14.0034  -13.1266   31.3264 F       1  UNL1       -0.2028
     39 C         -14.1913  -14.9842   32.7999 C.ar    1  UNL1        0.0310
     40 C         -13.7250  -15.7050   33.9008 C.ar    1  UNL1        0.0033
     41 C         -12.5926  -15.2700   34.5929 C.ar    1  UNL1        0.0128
     42 C         -11.9255  -14.1048   34.1954 C.ar    1  UNL1        0.0733
     43 CL        -10.4503  -13.6534   35.0423 Cl      1  UNL1       -0.0809
@<TRIPOS>BOND
     1     1     2    1
     2     2     3   ar
     3     3    34    1
     4    34    36    1
     5    36    37   ar
     6    37    38    1
     7    37    39   ar
     8    39    40   ar
     9    40    41   ar
    10    41    42   ar
    11    42    43    1
    12     3     4   ar
    13     4     5   ar
    14     5     6   ar
    15     6     7   ar
    16     7    16    1
    17    16    17    2
    18    16    18   am
    19    18    20    1
    20    20    21   ar
    21    21    22   ar
    22    22    26    1
    23    26    27    1
    24    26    28    1
    25    26    29    1
    26    22    23   ar
    27    23    24   ar
    28    24    25   ar
    29    25    30    1
    30    30    31    2
    31    30    32    1
    32     7     8   ar
    33     8     9   ar
    34     9    10   ar
    35     9    11    1
    36    11    12    1
    37    12    13    1
    38    12    14    1
    39    12    15    1
    40    10     2   ar
    41    42    36   ar
    42    10     5   ar
    43    25    20   ar
    44    15     8    1
    45    34    35    1
    46    18    19    1
    47    32    33    1
@<TRIPOS>MOLECULE
*****
 43 47 0 0 0
SMALL
GASTEIGER

@<TRIPOS>ATOM
      1 C          -8.3603   -9.8169   32.7442 C.3     1  UNL1        0.1332
      2 N          -7.6211  -10.4520   31.6537 N.ar    1  UNL1       -0.2977
      3 C          -6.4061  -10.1040   31.1473 C.ar    1  UNL1        0.2018
      4 N          -6.0089  -10.8744   30.0991 N.ar    1  UNL1       -0.2135
      5 C          -7.0323  -11.7332   29.9509 C.ar    1  UNL1        0.0999
      6 C          -7.1621  -12.7382   28.9836 C.ar    1  UNL1        0.0282
      7 C          -8.3482  -13.5157   28.9735 C.ar    1  UNL1        0.0888
      8 C          -9.3517  -13.2104   29.9254 C.ar    1  UNL1        0.1401
      9 C          -9.1914  -12.2243   30.8712 C.ar    1  UNL1        0.0327
     10 C          -8.0090  -11.4802   30.8767 C.ar    1  UNL1        0.0789
     11 C         -10.4157  -12.1175   31.7111 C.3     1  UNL1        0.0709
     12 C         -11.3597  -13.1921   31.0777 C.3     1  UNL1        0.1375
     13 C         -11.7400  -14.2752   32.0958 C.3     1  UNL1        0.0439
     14 C         -12.6203  -12.5474   30.4860 C.3     1  UNL1        0.0439
     15 O         -10.6008  -13.7874   30.0234 O.3     1  UNL1       -0.4824
     16 C          -8.5279  -14.5808   27.9654 C.2     1  UNL1        0.2525
     17 O          -9.1546  -15.6279   28.2846 O.2     1  UNL1       -0.2697
     18 N          -8.0142  -14.4304   26.6311 N.am    1  UNL1       -0.2801
     19 H          -7.4761  -13.5731   26.3771 H       1  UNL1        0.1552
     20 C          -8.0786  -15.4811   25.6566 C.ar    1  UNL1        0.0567
     21 C          -9.1768  -16.3519   25.6887 C.ar    1  UNL1        0.0187
     22 C          -9.3251  -17.3623   24.7255 C.ar    1  UNL1        0.0727
     23 C          -8.3764  -17.4660   23.6974 C.ar    1  UNL1        0.0041
     24 C          -7.2645  -16.6221   23.6717 C.ar    1  UNL1        0.0076
     25 C          -7.0844  -15.6420   24.6615 C.ar    1  UNL1        0.0889
     26 C         -10.5445  -18.2498   24.7331 C.3     1  UNL1        0.4186
     27 F         -10.3172  -19.3975   23.9932 F       1  UNL1       -0.1659
     28 F         -10.8408  -18.6048   26.0357 F       1  UNL1       -0.1659
     29 F         -11.6326  -17.5918   24.1861 F       1  UNL1       -0.1659
     30 C          -5.8465  -14.8281   24.6420 C.2     1  UNL1        0.3392
     31 O          -5.3517  -14.4174   25.7252 O.2     1  UNL1       -0.2450
     32 O          -5.2306  -14.4715   23.4441 O.3     1  UNL1       -0.4771
     33 H          -5.6494  -14.6756   22.5453 H       1  UNL1        0.2954
     34 N          -5.6341   -8.9905   31.6218 N.pl3   1  UNL1       -0.2814
     35 H          -4.8768   -9.1660   32.3184 H       1  UNL1        0.1551
     36 C          -6.0511   -7.6331   31.4153 C.ar    1  UNL1        0.0889
     37 C          -6.3596   -6.8317   32.5271 C.ar    1  UNL1        0.1543
     38 F          -6.2815   -7.3427   33.7816 F       1  UNL1       -0.2028
     39 C          -6.7712   -5.5077   32.3498 C.ar    1  UNL1        0.0310
     40 C          -6.8644   -4.9688   31.0652 C.ar    1  UNL1        0.0033
     41 C          -6.5360   -5.7488   29.9541 C.ar    1  UNL1        0.0128
     42 C          -6.1230   -7.0765   30.1197 C.ar    1  UNL1        0.0733
     43 CL         -5.6307   -7.9847   28.6949 Cl      1  UNL1       -0.0809
@<TRIPOS>BOND
     1     1     2    1
     2     2     3   ar
     3     3    34    1
     4    34    36    1
     5    36    37   ar
     6    37    38    1
     7    37    39   ar
     8    39    40   ar
     9    40    41   ar
    10    41    42   ar
    11    42    43    1
    12     3     4   ar
    13     4     5   ar
    14     5     6   ar
    15     6     7   ar
    16     7    16    1
    17    16    17    2
    18    16    18   am
    19    18    20    1
    20    20    21   ar
    21    21    22   ar
    22    22    26    1
    23    26    27    1
    24    26    28    1
    25    26    29    1
    26    22    23   ar
    27    23    24   ar
    28    24    25   ar
    29    25    30    1
    30    30    31    2
    31    30    32    1
    32     7     8   ar
    33     8     9   ar
    34     9    10   ar
    35     9    11    1
    36    11    12    1
    37    12    13    1
    38    12    14    1
    39    12    15    1
    40    10     2   ar
    41    42    36   ar
    42    10     5   ar
    43    25    20   ar
    44    15     8    1
    45    34    35    1
    46    18    19    1
    47    32    33    1
@<TRIPOS>MOLECULE
*****
 43 47 0 0 0
SMALL
GASTEIGER

@<TRIPOS>ATOM
      1 C          -9.2754  -10.3454   34.0698 C.3     1  UNL1        0.1332
      2 N          -8.4870  -10.5985   32.8643 N.ar    1  UNL1       -0.2977
      3 C          -7.3419   -9.9805   32.4636 C.ar    1  UNL1        0.2018
      4 N          -6.8734  -10.4198   31.2646 N.ar    1  UNL1       -0.2135
      5 C          -7.7779  -11.3483   30.9090 C.ar    1  UNL1        0.0999
      6 C          -7.7986  -12.1033   29.7291 C.ar    1  UNL1        0.0282
      7 C          -8.8716  -13.0082   29.5260 C.ar    1  UNL1        0.0888
      8 C          -9.8819  -13.0749   30.5165 C.ar    1  UNL1        0.1401
      9 C          -9.8291  -12.3290   31.6712 C.ar    1  UNL1        0.0327
     10 C          -8.7555  -11.4556   31.8619 C.ar    1  UNL1        0.0789
     11 C         -11.0349  -12.5899   32.5041 C.3     1  UNL1        0.0709
     12 C         -11.8447  -13.6003   31.6264 C.3     1  UNL1        0.1375
     13 C         -12.0526  -14.9350   32.3543 C.3     1  UNL1        0.0439
     14 C         -13.1941  -13.0089   31.1970 C.3     1  UNL1        0.0439
     15 O         -11.0410  -13.8211   30.4657 O.3     1  UNL1       -0.4824
     16 C          -8.9348  -13.8180   28.2918 C.2     1  UNL1        0.2525
     17 O         -10.0017  -13.8279   27.6188 O.2     1  UNL1       -0.2697
     18 N          -7.7975  -14.5754   27.8451 N.am    1  UNL1       -0.2801
     19 H          -6.9242  -14.5836   28.4166 H       1  UNL1        0.1552
     20 C          -7.8515  -15.4522   26.7112 C.ar    1  UNL1        0.0567
     21 C          -8.8874  -16.3947   26.6477 C.ar    1  UNL1        0.0187
     22 C          -9.0270  -17.2400   25.5356 C.ar    1  UNL1        0.0727
     23 C          -8.1361  -17.1022   24.4608 C.ar    1  UNL1        0.0041
     24 C          -7.0844  -16.1862   24.5255 C.ar    1  UNL1        0.0076
     25 C          -6.9097  -15.3728   25.6571 C.ar    1  UNL1        0.0889
     26 C         -10.1840  -18.2037   25.4509 C.3     1  UNL1        0.4186
     27 F          -9.7305  -19.4917   25.2233 F       1  UNL1       -0.1659
     28 F         -10.8865  -18.1771   26.6410 F       1  UNL1       -0.1659
     29 F         -11.0358  -17.8566   24.4164 F       1  UNL1       -0.1659
     30 C          -5.7302  -14.4782   25.7167 C.2     1  UNL1        0.3392
     31 O          -4.8642  -14.5241   24.8030 O.2     1  UNL1       -0.2450
     32 O          -5.5337  -13.6056   26.7852 O.3     1  UNL1       -0.4771
     33 H          -6.1355  -13.6122   27.5993 H       1  UNL1        0.2954
     34 N          -6.7117   -8.9180   33.1951 N.pl3   1  UNL1       -0.2814
     35 H          -6.9881   -8.7612   34.1894 H       1  UNL1        0.1551
     36 C          -5.9560   -7.8885   32.5409 C.ar    1  UNL1        0.0889
     37 C          -4.6505   -7.6101   32.9788 C.ar    1  UNL1        0.1543
     38 F          -4.1177   -8.2957   34.0215 F       1  UNL1       -0.2028
     39 C          -3.8968   -6.6093   32.3588 C.ar    1  UNL1        0.0310
     40 C          -4.4330   -5.8891   31.2897 C.ar    1  UNL1        0.0033
     41 C          -5.7205   -6.1746   30.8298 C.ar    1  UNL1        0.0128
     42 C          -6.4848   -7.1746   31.4435 C.ar    1  UNL1        0.0733
     43 CL         -8.0627   -7.5582   30.7652 Cl      1  UNL1       -0.0809
@<TRIPOS>BOND
     1     1     2    1
     2     2     3   ar
     3     3    34    1
     4    34    36    1
     5    36    37   ar
     6    37    38    1
     7    37    39   ar
     8    39    40   ar
     9    40    41   ar
    10    41    42   ar
    11    42    43    1
    12     3     4   ar
    13     4     5   ar
    14     5     6   ar
    15     6     7   ar
    16     7    16    1
    17    16    17    2
    18    16    18   am
    19    18    20    1
    20    20    21   ar
    21    21    22   ar
    22    22    26    1
    23    26    27    1
    24    26    28    1
    25    26    29    1
    26    22    23   ar
    27    23    24   ar
    28    24    25   ar
    29    25    30    1
    30    30    31    2
    31    30    32    1
    32     7     8   ar
    33     8     9   ar
    34     9    10   ar
    35     9    11    1
    36    11    12    1
    37    12    13    1
    38    12    14    1
    39    12    15    1
    40    10     2   ar
    41    42    36   ar
    42    10     5   ar
    43    25    20   ar
    44    15     8    1
    45    34    35    1
    46    18    19    1
    47    32    33    1
