@<TRIPOS>MOLECULE
*****
 35 39 0 0 0
SMALL
GASTEIGER

@<TRIPOS>ATOM
      1 C          47.1288   11.3788  -23.3759 C.2     1  UNL1        0.2491
      2 O          47.9187   10.5804  -23.9505 O.2     1  UNL1       -0.2699
      3 N          46.0645   11.9918  -24.1315 N.am    1  UNL1       -0.2760
      4 C          45.6930   13.3948  -23.8942 C.3     1  UNL1        0.0954
      5 C          45.3017   14.0982  -25.2070 C.3     1  UNL1        0.0399
      6 C          46.1181   13.5899  -26.4297 C.3     1  UNL1        0.0645
      7 C          45.9302   12.0422  -26.5976 C.3     1  UNL1        0.0399
      8 C          45.5081   11.3174  -25.3072 C.3     1  UNL1        0.0954
      9 C          47.6474   13.9150  -26.2419 C.3     1  UNL1        0.0477
     10 C          47.9071   15.3762  -26.4378 C.ar    1  UNL1        0.0220
     11 C          48.9685   16.1629  -26.0567 C.ar    1  UNL1        0.0923
     12 N          48.8248   17.3722  -26.6555 N.ar    1  UNL1       -0.2534
     13 N          47.7409   17.3627  -27.4272 N.ar    1  UNL1       -0.1651
     14 C          47.1847   16.1464  -27.2945 C.ar    1  UNL1        0.1515
     15 C          46.0150   15.6131  -27.9757 C.2     1  UNL1        0.2650
     16 O          45.3969   16.2875  -28.8413 O.2     1  UNL1       -0.2684
     17 N          45.5946   14.2807  -27.6361 N.am    1  UNL1       -0.3023
     18 H          44.7446   13.9082  -28.1172 H       1  UNL1        0.1497
     19 C          50.0925   12.4990  -19.5601 C.ar    1  UNL1        0.2249
     20 N          50.2379   12.7727  -18.2331 N.ar    1  UNL1       -0.2101
     21 C          49.1814   12.8043  -17.3806 C.ar    1  UNL1        0.1021
     22 C          47.8927   12.5531  -17.8501 C.ar    1  UNL1        0.0231
     23 C          47.6961   12.2672  -19.2086 C.ar    1  UNL1        0.0335
     24 C          46.4100   12.0155  -19.7148 C.ar    1  UNL1        0.1404
     25 F          45.3240   12.0430  -18.9000 F       1  UNL1       -0.2042
     26 C          46.2332   11.7305  -21.0711 C.ar    1  UNL1        0.0342
     27 C          47.3329   11.6819  -21.9415 C.ar    1  UNL1        0.0560
     28 C          48.6175   11.9518  -21.4434 C.ar    1  UNL1        0.0093
     29 C          48.8105   12.2375  -20.0807 C.ar    1  UNL1        0.0555
     30 C          52.0432   13.6117  -20.6110 C.3     1  UNL1        0.2542
     31 O          51.2126   12.4762  -20.4003 O.3     1  UNL1       -0.4561
     32 C          49.7629   18.5076  -26.5499 C.3     1  UNL1        0.0867
     33 C          49.5825   19.1922  -25.1828 C.3     1  UNL1        0.0244
     34 C          51.2223   18.0195  -26.6765 C.3     1  UNL1        0.0244
     35 C          49.4829   19.5185  -27.6791 C.3     1  UNL1        0.0244
@<TRIPOS>BOND
     1    30    31    1
     2    31    19    1
     3    19    20   ar
     4    20    21   ar
     5    21    22   ar
     6    22    23   ar
     7    23    24   ar
     8    24    25    1
     9    24    26   ar
    10    26    27   ar
    11    27     1    1
    12     1     2    2
    13     1     3   am
    14     3     4    1
    15     4     5    1
    16     5     6    1
    17     6     7    1
    18     7     8    1
    19     6     9    1
    20     9    10    1
    21    10    11   ar
    22    11    12   ar
    23    12    32    1
    24    32    33    1
    25    32    34    1
    26    32    35    1
    27    12    13   ar
    28    13    14   ar
    29    14    15    1
    30    15    16    2
    31    15    17   am
    32    27    28   ar
    33    28    29   ar
    34    29    19   ar
    35    29    23   ar
    36     8     3    1
    37    14    10   ar
    38    17     6    1
    39    17    18    1
@<TRIPOS>MOLECULE
*****
 35 39 0 0 0
SMALL
GASTEIGER

@<TRIPOS>ATOM
      1 C          46.7788   13.5812  -23.7549 C.2     1  UNL1        0.2491
      2 O          45.5971   13.1446  -23.6888 O.2     1  UNL1       -0.2699
      3 N          47.8831   12.6595  -23.6519 N.am    1  UNL1       -0.2760
      4 C          49.0987   13.0311  -22.9123 C.3     1  UNL1        0.0954
      5 C          49.6857   11.8224  -22.1601 C.3     1  UNL1        0.0399
      6 C          48.5913   10.8478  -21.6383 C.3     1  UNL1        0.0645
      7 C          47.7120   10.3357  -22.8315 C.3     1  UNL1        0.0399
      8 C          47.7211   11.2618  -24.0606 C.3     1  UNL1        0.0954
      9 C          47.6727   11.5691  -20.5819 C.3     1  UNL1        0.0477
     10 C          48.3970   11.7493  -19.2843 C.ar    1  UNL1        0.0220
     11 C          48.1529   12.5902  -18.2241 C.ar    1  UNL1        0.0923
     12 N          48.9685   12.2202  -17.2046 N.ar    1  UNL1       -0.2534
     13 N          49.6833   11.1581  -17.5672 N.ar    1  UNL1       -0.1651
     14 C          49.3328   10.8721  -18.8327 C.ar    1  UNL1        0.1515
     15 C          49.7851    9.7666  -19.6633 C.2     1  UNL1        0.2650
     16 O          50.5793    8.8960  -19.2194 O.2     1  UNL1       -0.2684
     17 N          49.2828    9.6936  -21.0086 N.am    1  UNL1       -0.3023
     18 H          49.6229    8.9060  -21.6060 H       1  UNL1        0.1497
     19 C          48.7488   17.4287  -26.1867 C.ar    1  UNL1        0.2249
     20 N          48.9277   18.7751  -26.2970 N.ar    1  UNL1       -0.2101
     21 C          48.3807   19.6524  -25.4167 C.ar    1  UNL1        0.1021
     22 C          47.6046   19.1897  -24.3548 C.ar    1  UNL1        0.0231
     23 C          47.3937   17.8118  -24.2025 C.ar    1  UNL1        0.0335
     24 C          46.6120   17.3133  -23.1471 C.ar    1  UNL1        0.1404
     25 F          46.0405   18.1543  -22.2472 F       1  UNL1       -0.2042
     26 C          46.4141   15.9370  -23.0100 C.ar    1  UNL1        0.0342
     27 C          46.9982   15.0364  -23.9138 C.ar    1  UNL1        0.0560
     28 C          47.7643   15.5316  -24.9811 C.ar    1  UNL1        0.0093
     29 C          47.9737   16.9135  -25.1299 C.ar    1  UNL1        0.0555
     30 C          50.5545   15.8739  -26.8723 C.3     1  UNL1        0.2542
     31 O          49.3344   16.5628  -27.1186 O.3     1  UNL1       -0.4561
     32 C          49.0086   12.8330  -15.8617 C.3     1  UNL1        0.0867
     33 C          48.1571   14.1156  -15.8614 C.3     1  UNL1        0.0244
     34 C          48.4466   11.8589  -14.8036 C.3     1  UNL1        0.0244
     35 C          50.4649   13.1750  -15.4909 C.3     1  UNL1        0.0244
@<TRIPOS>BOND
     1    30    31    1
     2    31    19    1
     3    19    20   ar
     4    20    21   ar
     5    21    22   ar
     6    22    23   ar
     7    23    24   ar
     8    24    25    1
     9    24    26   ar
    10    26    27   ar
    11    27     1    1
    12     1     2    2
    13     1     3   am
    14     3     4    1
    15     4     5    1
    16     5     6    1
    17     6     7    1
    18     7     8    1
    19     6     9    1
    20     9    10    1
    21    10    11   ar
    22    11    12   ar
    23    12    32    1
    24    32    33    1
    25    32    34    1
    26    32    35    1
    27    12    13   ar
    28    13    14   ar
    29    14    15    1
    30    15    16    2
    31    15    17   am
    32    27    28   ar
    33    28    29   ar
    34    29    19   ar
    35    29    23   ar
    36     8     3    1
    37    14    10   ar
    38    17     6    1
    39    17    18    1
@<TRIPOS>MOLECULE
*****
 35 39 0 0 0
SMALL
GASTEIGER

@<TRIPOS>ATOM
      1 C          50.7226    8.8129  -26.5033 C.2     1  UNL1        0.2491
      2 O          49.9540    8.2153  -25.7011 O.2     1  UNL1       -0.2699
      3 N          51.5867    9.8583  -26.0134 N.am    1  UNL1       -0.2760
      4 C          51.8251   11.0669  -26.8165 C.3     1  UNL1        0.0954
      5 C          51.9358   12.3170  -25.9241 C.3     1  UNL1        0.0399
      6 C          51.0127   12.2488  -24.6739 C.3     1  UNL1        0.0645
      7 C          51.3507   10.9757  -23.8230 C.3     1  UNL1        0.0399
      8 C          52.0383    9.8526  -24.6196 C.3     1  UNL1        0.0954
      9 C          49.5004   12.2013  -25.1104 C.3     1  UNL1        0.0477
     10 C          49.0484   13.5404  -25.6040 C.ar    1  UNL1        0.0220
     11 C          47.9711   13.8995  -26.3793 C.ar    1  UNL1        0.0923
     12 N          47.8852   15.2538  -26.3687 N.ar    1  UNL1       -0.2534
     13 N          48.8379   15.7557  -25.5871 N.ar    1  UNL1       -0.1651
     14 C          49.5437   14.7112  -25.1213 C.ar    1  UNL1        0.1515
     15 C          50.6542   14.7234  -24.1815 C.2     1  UNL1        0.2650
     16 O          51.0568   15.7952  -23.6570 O.2     1  UNL1       -0.2684
     17 N          51.2703   13.4646  -23.8601 N.am    1  UNL1       -0.3023
     18 H          52.0777   13.4809  -23.1962 H       1  UNL1        0.1497
     19 C          53.0205    7.2927  -30.6273 C.ar    1  UNL1        0.2249
     20 N          52.9553    6.9558  -31.9461 N.ar    1  UNL1       -0.2101
     21 C          51.7902    6.9821  -32.6431 C.ar    1  UNL1        0.1021
     22 C          50.6047    7.3618  -32.0149 C.ar    1  UNL1        0.0231
     23 C          50.6248    7.7166  -30.6585 C.ar    1  UNL1        0.0335
     24 C          49.4470    8.0979  -29.9944 C.ar    1  UNL1        0.1404
     25 F          48.2585    8.1324  -30.6503 F       1  UNL1       -0.2042
     26 C          49.4862    8.4499  -28.6428 C.ar    1  UNL1        0.0342
     27 C          50.6978    8.4374  -27.9349 C.ar    1  UNL1        0.0560
     28 C          51.8738    8.0384  -28.5899 C.ar    1  UNL1        0.0093
     29 C          51.8496    7.6840  -29.9499 C.ar    1  UNL1        0.0555
     30 C          55.4648    6.8788  -30.5825 C.3     1  UNL1        0.2542
     31 O          54.2459    7.2516  -29.9507 O.3     1  UNL1       -0.4561
     32 C          46.8485   16.0610  -27.0425 C.3     1  UNL1        0.0867
     33 C          45.9131   15.1299  -27.8352 C.3     1  UNL1        0.0244
     34 C          46.0138   16.8459  -26.0074 C.3     1  UNL1        0.0244
     35 C          47.5157   17.0670  -28.0007 C.3     1  UNL1        0.0244
@<TRIPOS>BOND
     1    30    31    1
     2    31    19    1
     3    19    20   ar
     4    20    21   ar
     5    21    22   ar
     6    22    23   ar
     7    23    24   ar
     8    24    25    1
     9    24    26   ar
    10    26    27   ar
    11    27     1    1
    12     1     2    2
    13     1     3   am
    14     3     4    1
    15     4     5    1
    16     5     6    1
    17     6     7    1
    18     7     8    1
    19     6     9    1
    20     9    10    1
    21    10    11   ar
    22    11    12   ar
    23    12    32    1
    24    32    33    1
    25    32    34    1
    26    32    35    1
    27    12    13   ar
    28    13    14   ar
    29    14    15    1
    30    15    16    2
    31    15    17   am
    32    27    28   ar
    33    28    29   ar
    34    29    19   ar
    35    29    23   ar
    36     8     3    1
    37    14    10   ar
    38    17     6    1
    39    17    18    1
@<TRIPOS>MOLECULE
*****
 35 39 0 0 0
SMALL
GASTEIGER

@<TRIPOS>ATOM
      1 C          47.5661   11.1716  -22.5964 C.2     1  UNL1        0.2491
      2 O          46.7666   10.2260  -22.3555 O.2     1  UNL1       -0.2699
      3 N          48.8075   11.2550  -21.8673 N.am    1  UNL1       -0.2760
      4 C          49.3336   12.5589  -21.4363 C.3     1  UNL1        0.0954
      5 C          50.0127   12.4587  -20.0579 C.3     1  UNL1        0.0399
      6 C          49.3254   11.4244  -19.1211 C.3     1  UNL1        0.0645
      7 C          49.3158   10.0089  -19.7957 C.3     1  UNL1        0.0399
      8 C          49.4330   10.0439  -21.3299 C.3     1  UNL1        0.0954
      9 C          47.8466   11.8658  -18.8076 C.3     1  UNL1        0.0477
     10 C          47.8283   13.0213  -17.8561 C.ar    1  UNL1        0.0220
     11 C          46.8436   13.9366  -17.5673 C.ar    1  UNL1        0.0923
     12 N          47.2448   14.6502  -16.4849 N.ar    1  UNL1       -0.2534
     13 N          48.4198   14.1935  -16.0592 N.ar    1  UNL1       -0.1651
     14 C          48.7724   13.2011  -16.8941 C.ar    1  UNL1        0.1515
     15 C          49.9438   12.3410  -16.8251 C.2     1  UNL1        0.2650
     16 O          50.7737   12.4390  -15.8829 O.2     1  UNL1       -0.2684
     17 N          50.1161   11.3632  -17.8650 N.am    1  UNL1       -0.3023
     18 H          50.9674   10.7582  -17.8189 H       1  UNL1        0.1497
     19 C          46.5839   12.4607  -27.2838 C.ar    1  UNL1        0.2249
     20 N          46.2408   13.4239  -28.1845 N.ar    1  UNL1       -0.2101
     21 C          46.0121   14.7108  -27.8162 C.ar    1  UNL1        0.1021
     22 C          46.1239   15.0887  -26.4787 C.ar    1  UNL1        0.0231
     23 C          46.4746   14.1303  -25.5172 C.ar    1  UNL1        0.0335
     24 C          46.5898   14.4769  -24.1607 C.ar    1  UNL1        0.1404
     25 F          46.3640   15.7502  -23.7465 F       1  UNL1       -0.2042
     26 C          46.9419   13.5089  -23.2167 C.ar    1  UNL1        0.0342
     27 C          47.1942   12.1853  -23.6088 C.ar    1  UNL1        0.0560
     28 C          47.0614   11.8305  -24.9607 C.ar    1  UNL1        0.0093
     29 C          46.7102   12.7945  -25.9215 C.ar    1  UNL1        0.0555
     30 C          46.7742   10.7631  -29.0810 C.3     1  UNL1        0.2542
     31 O          46.8113   11.1468  -27.7116 O.3     1  UNL1       -0.4561
     32 C          46.4714   15.7142  -15.8140 C.3     1  UNL1        0.0867
     33 C          46.9805   17.0885  -16.2854 C.3     1  UNL1        0.0244
     34 C          44.9706   15.5922  -16.1560 C.3     1  UNL1        0.0244
     35 C          46.6391   15.5929  -14.2867 C.3     1  UNL1        0.0244
@<TRIPOS>BOND
     1    30    31    1
     2    31    19    1
     3    19    20   ar
     4    20    21   ar
     5    21    22   ar
     6    22    23   ar
     7    23    24   ar
     8    24    25    1
     9    24    26   ar
    10    26    27   ar
    11    27     1    1
    12     1     2    2
    13     1     3   am
    14     3     4    1
    15     4     5    1
    16     5     6    1
    17     6     7    1
    18     7     8    1
    19     6     9    1
    20     9    10    1
    21    10    11   ar
    22    11    12   ar
    23    12    32    1
    24    32    33    1
    25    32    34    1
    26    32    35    1
    27    12    13   ar
    28    13    14   ar
    29    14    15    1
    30    15    16    2
    31    15    17   am
    32    27    28   ar
    33    28    29   ar
    34    29    19   ar
    35    29    23   ar
    36     8     3    1
    37    14    10   ar
    38    17     6    1
    39    17    18    1
@<TRIPOS>MOLECULE
*****
 35 39 0 0 0
SMALL
GASTEIGER

@<TRIPOS>ATOM
      1 C          49.5647   11.4799  -19.2822 C.2     1  UNL1        0.2491
      2 O          50.7825   11.3432  -19.5816 O.2     1  UNL1       -0.2699
      3 N          48.5541   10.9187  -20.1443 N.am    1  UNL1       -0.2760
      4 C          47.3009   11.6457  -20.3969 C.3     1  UNL1        0.0954
      5 C          46.8267   11.4526  -21.8492 C.3     1  UNL1        0.0399
      6 C          48.0054   11.3366  -22.8577 C.3     1  UNL1        0.0645
      7 C          48.9418   10.1441  -22.4578 C.3     1  UNL1        0.0399
      8 C          48.8549    9.7484  -20.9730 C.3     1  UNL1        0.0954
      9 C          48.8392   12.6723  -22.8832 C.3     1  UNL1        0.0477
     10 C          48.0881   13.7530  -23.5965 C.ar    1  UNL1        0.0220
     11 C          48.2389   15.1196  -23.5781 C.ar    1  UNL1        0.0923
     12 N          47.4532   15.6371  -24.5560 N.ar    1  UNL1       -0.2534
     13 N          46.8484   14.6502  -25.2123 N.ar    1  UNL1       -0.1651
     14 C          47.2375   13.5043  -24.6278 C.ar    1  UNL1        0.1515
     15 C          46.9028   12.1409  -25.0099 C.2     1  UNL1        0.2650
     16 O          46.1925   11.8998  -26.0214 O.2     1  UNL1       -0.2684
     17 N          47.4230   11.0737  -24.1988 N.am    1  UNL1       -0.3023
     18 H          47.1668   10.0969  -24.4688 H       1  UNL1        0.1497
     19 C          50.2712   12.5730  -14.4963 C.ar    1  UNL1        0.2249
     20 N          49.9094   13.2881  -13.3942 N.ar    1  UNL1       -0.2101
     21 C          48.8921   14.1872  -13.4165 C.ar    1  UNL1        0.1021
     22 C          48.1760   14.4080  -14.5923 C.ar    1  UNL1        0.0231
     23 C          48.5139   13.6945  -15.7511 C.ar    1  UNL1        0.0335
     24 C          47.8163   13.8978  -16.9534 C.ar    1  UNL1        0.1404
     25 F          46.7964   14.7915  -17.0234 F       1  UNL1       -0.2042
     26 C          48.1657   13.1765  -18.0979 C.ar    1  UNL1        0.0342
     27 C          49.2066   12.2360  -18.0610 C.ar    1  UNL1        0.0560
     28 C          49.9188   12.0437  -16.8665 C.ar    1  UNL1        0.0093
     29 C          49.5766   12.7607  -15.7069 C.ar    1  UNL1        0.0555
     30 C          51.3730   10.6055  -13.4656 C.3     1  UNL1        0.2542
     31 O          51.3267   11.6556  -14.4242 O.3     1  UNL1       -0.4561
     32 C          47.3406   17.0660  -24.9109 C.3     1  UNL1        0.0867
     33 C          46.4544   17.2121  -26.1613 C.3     1  UNL1        0.0244
     34 C          46.7065   17.8650  -23.7518 C.3     1  UNL1        0.0244
     35 C          48.7417   17.6415  -25.1961 C.3     1  UNL1        0.0244
@<TRIPOS>BOND
     1    30    31    1
     2    31    19    1
     3    19    20   ar
     4    20    21   ar
     5    21    22   ar
     6    22    23   ar
     7    23    24   ar
     8    24    25    1
     9    24    26   ar
    10    26    27   ar
    11    27     1    1
    12     1     2    2
    13     1     3   am
    14     3     4    1
    15     4     5    1
    16     5     6    1
    17     6     7    1
    18     7     8    1
    19     6     9    1
    20     9    10    1
    21    10    11   ar
    22    11    12   ar
    23    12    32    1
    24    32    33    1
    25    32    34    1
    26    32    35    1
    27    12    13   ar
    28    13    14   ar
    29    14    15    1
    30    15    16    2
    31    15    17   am
    32    27    28   ar
    33    28    29   ar
    34    29    19   ar
    35    29    23   ar
    36     8     3    1
    37    14    10   ar
    38    17     6    1
    39    17    18    1
@<TRIPOS>MOLECULE
*****
 35 39 0 0 0
SMALL
GASTEIGER

@<TRIPOS>ATOM
      1 C          49.4639   11.1356  -18.7691 C.2     1  UNL1        0.2491
      2 O          50.5514   10.7826  -19.3023 O.2     1  UNL1       -0.2699
      3 N          48.2165   10.7920  -19.4058 N.am    1  UNL1       -0.2760
      4 C          47.0960   11.7445  -19.4148 C.3     1  UNL1        0.0954
      5 C          46.3169   11.6771  -20.7414 C.3     1  UNL1        0.0399
      6 C          47.2305   11.3684  -21.9620 C.3     1  UNL1        0.0645
      7 C          47.9885   10.0139  -21.7392 C.3     1  UNL1        0.0399
      8 C          48.1243    9.6061  -20.2614 C.3     1  UNL1        0.0954
      9 C          48.2770   12.5266  -22.1709 C.3     1  UNL1        0.0477
     10 C          47.6147   13.7443  -22.7359 C.ar    1  UNL1        0.0220
     11 C          48.0183   15.0585  -22.7667 C.ar    1  UNL1        0.0923
     12 N          47.1654   15.7357  -23.5764 N.ar    1  UNL1       -0.2534
     13 N          46.2699   14.8938  -24.0859 N.ar    1  UNL1       -0.1651
     14 C          46.5461   13.6821  -23.5744 C.ar    1  UNL1        0.1515
     15 C          45.8944   12.4138  -23.8636 C.2     1  UNL1        0.2650
     16 O          44.9661   12.3326  -24.7107 O.2     1  UNL1       -0.2684
     17 N          46.3563   11.2499  -23.1571 N.am    1  UNL1       -0.3023
     18 H          45.8743   10.3441  -23.3574 H       1  UNL1        0.1497
     19 C          47.5209   14.5179  -15.7059 C.ar    1  UNL1        0.2249
     20 N          47.5928   15.2168  -14.5383 N.ar    1  UNL1       -0.2101
     21 C          48.6064   15.0425  -13.6517 C.ar    1  UNL1        0.1021
     22 C          49.6214   14.1242  -13.9173 C.ar    1  UNL1        0.0231
     23 C          49.5878   13.3825  -15.1068 C.ar    1  UNL1        0.0335
     24 C          50.5916   12.4450  -15.4017 C.ar    1  UNL1        0.1404
     25 F          51.6204   12.2334  -14.5411 F       1  UNL1       -0.2042
     26 C          50.5428   11.7161  -16.5927 C.ar    1  UNL1        0.0342
     27 C          49.5013   11.9158  -17.5118 C.ar    1  UNL1        0.0560
     28 C          48.4859   12.8379  -17.2120 C.ar    1  UNL1        0.0093
     29 C          48.5235   13.5798  -16.0187 C.ar    1  UNL1        0.0555
     30 C          45.4209   15.6752  -16.3371 C.3     1  UNL1        0.2542
     31 O          46.4565   14.7332  -16.5900 O.3     1  UNL1       -0.4561
     32 C          47.2534   17.1686  -23.9218 C.3     1  UNL1        0.0867
     33 C          48.7250   17.5418  -24.1769 C.3     1  UNL1        0.0244
     34 C          46.4323   17.4718  -25.1938 C.3     1  UNL1        0.0244
     35 C          46.6949   18.0168  -22.7624 C.3     1  UNL1        0.0244
@<TRIPOS>BOND
     1    30    31    1
     2    31    19    1
     3    19    20   ar
     4    20    21   ar
     5    21    22   ar
     6    22    23   ar
     7    23    24   ar
     8    24    25    1
     9    24    26   ar
    10    26    27   ar
    11    27     1    1
    12     1     2    2
    13     1     3   am
    14     3     4    1
    15     4     5    1
    16     5     6    1
    17     6     7    1
    18     7     8    1
    19     6     9    1
    20     9    10    1
    21    10    11   ar
    22    11    12   ar
    23    12    32    1
    24    32    33    1
    25    32    34    1
    26    32    35    1
    27    12    13   ar
    28    13    14   ar
    29    14    15    1
    30    15    16    2
    31    15    17   am
    32    27    28   ar
    33    28    29   ar
    34    29    19   ar
    35    29    23   ar
    36     8     3    1
    37    14    10   ar
    38    17     6    1
    39    17    18    1
@<TRIPOS>MOLECULE
*****
 35 39 0 0 0
SMALL
GASTEIGER

@<TRIPOS>ATOM
      1 C          50.4275    8.8158  -26.6466 C.2     1  UNL1        0.2491
      2 O          49.2128    8.5103  -26.4961 O.2     1  UNL1       -0.2699
      3 N          51.1887    9.2799  -25.5131 N.am    1  UNL1       -0.2760
      4 C          52.1736   10.3610  -25.6679 C.3     1  UNL1        0.0954
      5 C          52.1909   11.2811  -24.4332 C.3     1  UNL1        0.0399
      6 C          50.7869   11.4446  -23.7836 C.3     1  UNL1        0.0645
      7 C          50.2156   10.0427  -23.3745 C.3     1  UNL1        0.0399
      8 C          50.8236    8.8646  -24.1563 C.3     1  UNL1        0.0954
      9 C          49.7952   12.1420  -24.7886 C.3     1  UNL1        0.0477
     10 C          50.1112   13.5992  -24.9206 C.ar    1  UNL1        0.0220
     11 C          49.7686   14.5125  -25.8897 C.ar    1  UNL1        0.0923
     12 N          50.1193   15.7445  -25.4416 N.ar    1  UNL1       -0.2534
     13 N          50.6293   15.6458  -24.2166 N.ar    1  UNL1       -0.1651
     14 C          50.6220   14.3396  -23.9007 C.ar    1  UNL1        0.1515
     15 C          51.0221   13.7145  -22.6493 C.2     1  UNL1        0.2650
     16 O          51.4064   14.4025  -21.6671 O.2     1  UNL1       -0.2684
     17 N          50.9511   12.2808  -22.5669 N.am    1  UNL1       -0.3023
     18 H          51.2543   11.8359  -21.6708 H       1  UNL1        0.1497
     19 C          50.3348    7.1691  -31.3240 C.ar    1  UNL1        0.2249
     20 N          50.9254    7.0951  -32.5498 N.ar    1  UNL1       -0.2101
     21 C          52.1108    7.6998  -32.8199 C.ar    1  UNL1        0.1021
     22 C          52.7689    8.4284  -31.8298 C.ar    1  UNL1        0.0231
     23 C          52.1976    8.5315  -30.5534 C.ar    1  UNL1        0.0335
     24 C          52.8318    9.2631  -29.5354 C.ar    1  UNL1        0.1404
     25 F          54.0151    9.8893  -29.7625 F       1  UNL1       -0.2042
     26 C          52.2487    9.3535  -28.2690 C.ar    1  UNL1        0.0342
     27 C          51.0324    8.7102  -27.9935 C.ar    1  UNL1        0.0560
     28 C          50.3858    7.9941  -29.0135 C.ar    1  UNL1        0.0093
     29 C          50.9620    7.8927  -30.2915 C.ar    1  UNL1        0.0555
     30 C          48.2781    6.0524  -32.1429 C.3     1  UNL1        0.2542
     31 O          49.1119    6.5272  -31.0926 O.3     1  UNL1       -0.4561
     32 C          49.8968   17.0199  -26.1517 C.3     1  UNL1        0.0867
     33 C          49.0960   16.7532  -27.4392 C.3     1  UNL1        0.0244
     34 C          49.1044   18.0041  -25.2643 C.3     1  UNL1        0.0244
     35 C          51.2534   17.6599  -26.5057 C.3     1  UNL1        0.0244
@<TRIPOS>BOND
     1    30    31    1
     2    31    19    1
     3    19    20   ar
     4    20    21   ar
     5    21    22   ar
     6    22    23   ar
     7    23    24   ar
     8    24    25    1
     9    24    26   ar
    10    26    27   ar
    11    27     1    1
    12     1     2    2
    13     1     3   am
    14     3     4    1
    15     4     5    1
    16     5     6    1
    17     6     7    1
    18     7     8    1
    19     6     9    1
    20     9    10    1
    21    10    11   ar
    22    11    12   ar
    23    12    32    1
    24    32    33    1
    25    32    34    1
    26    32    35    1
    27    12    13   ar
    28    13    14   ar
    29    14    15    1
    30    15    16    2
    31    15    17   am
    32    27    28   ar
    33    28    29   ar
    34    29    19   ar
    35    29    23   ar
    36     8     3    1
    37    14    10   ar
    38    17     6    1
    39    17    18    1
@<TRIPOS>MOLECULE
*****
 35 39 0 0 0
SMALL
GASTEIGER

@<TRIPOS>ATOM
      1 C          49.4398   10.6464  -20.0573 C.2     1  UNL1        0.2491
      2 O          50.0777    9.7787  -20.7144 O.2     1  UNL1       -0.2699
      3 N          48.0874   10.9722  -20.4372 N.am    1  UNL1       -0.2760
      4 C          47.6096   12.3618  -20.3771 C.3     1  UNL1        0.0954
      5 C          46.6515   12.6733  -21.5416 C.3     1  UNL1        0.0399
      6 C          47.0265   11.9185  -22.8491 C.3     1  UNL1        0.0645
      7 C          47.0417   10.3715  -22.5931 C.3     1  UNL1        0.0399
      8 C          47.2510    9.9812  -21.1191 C.3     1  UNL1        0.0954
      9 C          48.4425   12.3790  -23.3617 C.3     1  UNL1        0.0477
     10 C          48.3719   13.7527  -23.9523 C.ar    1  UNL1        0.0220
     11 C          49.3573   14.6780  -24.2045 C.ar    1  UNL1        0.0923
     12 N          48.8090   15.6784  -24.9394 N.ar    1  UNL1       -0.2534
     13 N          47.5330   15.3990  -25.1926 N.ar    1  UNL1       -0.1651
     14 C          47.2694   14.2258  -24.5924 C.ar    1  UNL1        0.1515
     15 C          46.0328   13.4597  -24.6188 C.2     1  UNL1        0.2650
     16 O          45.0379   13.8448  -25.2878 O.2     1  UNL1       -0.2684
     17 N          45.9890   12.2371  -23.8634 N.am    1  UNL1       -0.3023
     18 H          45.0931   11.6985  -23.8734 H       1  UNL1        0.1497
     19 C          49.6525   11.8891  -15.2606 C.ar    1  UNL1        0.2249
     20 N          50.2998   12.5270  -14.2452 N.ar    1  UNL1       -0.2101
     21 C          51.4636   13.1995  -14.4383 C.ar    1  UNL1        0.1021
     22 C          52.0398   13.2558  -15.7067 C.ar    1  UNL1        0.0231
     23 C          51.4083   12.6134  -16.7813 C.ar    1  UNL1        0.0335
     24 C          51.9657   12.6459  -18.0704 C.ar    1  UNL1        0.1404
     25 F          53.1311   13.3010  -18.3082 F       1  UNL1       -0.2042
     26 C          51.3215   12.0015  -19.1297 C.ar    1  UNL1        0.0342
     27 C          50.1097   11.3242  -18.9247 C.ar    1  UNL1        0.0560
     28 C          49.5593   11.2731  -17.6341 C.ar    1  UNL1        0.0093
     29 C          50.1952   11.9189  -16.5597 C.ar    1  UNL1        0.0555
     30 C          47.9554   10.9748  -13.7012 C.3     1  UNL1        0.2542
     31 O          48.4535   11.2094  -15.0129 O.3     1  UNL1       -0.4561
     32 C          49.5232   16.8602  -25.4624 C.3     1  UNL1        0.0867
     33 C          48.5904   18.0838  -25.4099 C.3     1  UNL1        0.0244
     34 C          50.7809   17.1529  -24.6159 C.3     1  UNL1        0.0244
     35 C          49.9595   16.6005  -26.9177 C.3     1  UNL1        0.0244
@<TRIPOS>BOND
     1    30    31    1
     2    31    19    1
     3    19    20   ar
     4    20    21   ar
     5    21    22   ar
     6    22    23   ar
     7    23    24   ar
     8    24    25    1
     9    24    26   ar
    10    26    27   ar
    11    27     1    1
    12     1     2    2
    13     1     3   am
    14     3     4    1
    15     4     5    1
    16     5     6    1
    17     6     7    1
    18     7     8    1
    19     6     9    1
    20     9    10    1
    21    10    11   ar
    22    11    12   ar
    23    12    32    1
    24    32    33    1
    25    32    34    1
    26    32    35    1
    27    12    13   ar
    28    13    14   ar
    29    14    15    1
    30    15    16    2
    31    15    17   am
    32    27    28   ar
    33    28    29   ar
    34    29    19   ar
    35    29    23   ar
    36     8     3    1
    37    14    10   ar
    38    17     6    1
    39    17    18    1
@<TRIPOS>MOLECULE
*****
 35 39 0 0 0
SMALL
GASTEIGER

@<TRIPOS>ATOM
      1 C          47.4637   11.0298  -22.4049 C.2     1  UNL1        0.2491
      2 O          46.7266   10.0530  -22.0985 O.2     1  UNL1       -0.2699
      3 N          48.7282   11.2032  -21.7336 N.am    1  UNL1       -0.2760
      4 C          49.2014   12.5471  -21.3691 C.3     1  UNL1        0.0954
      5 C          49.9417   12.5309  -20.0189 C.3     1  UNL1        0.0399
      6 C          49.3502   11.4959  -19.0195 C.3     1  UNL1        0.0645
      7 C          49.3881   10.0589  -19.6461 C.3     1  UNL1        0.0399
      8 C          49.4393   10.0459  -21.1843 C.3     1  UNL1        0.0954
      9 C          47.8642   11.8707  -18.6569 C.3     1  UNL1        0.0477
     10 C          47.8239   13.0564  -17.7441 C.ar    1  UNL1        0.0220
     11 C          46.8046   13.9289  -17.4430 C.ar    1  UNL1        0.0923
     12 N          47.2119   14.7000  -16.4033 N.ar    1  UNL1       -0.2534
     13 N          48.4263   14.3202  -16.0142 N.ar    1  UNL1       -0.1651
     14 C          48.7963   13.3187  -16.8304 C.ar    1  UNL1        0.1515
     15 C          50.0139   12.5237  -16.7840 C.2     1  UNL1        0.2650
     16 O          50.8758   12.6977  -15.8826 O.2     1  UNL1       -0.2684
     17 N          50.1946   11.5201  -17.7977 N.am    1  UNL1       -0.3023
     18 H          51.0782   10.9622  -17.7687 H       1  UNL1        0.1497
     19 C          48.3779   14.2781  -26.0396 C.ar    1  UNL1        0.2249
     20 N          47.9068   15.1513  -26.9737 N.ar    1  UNL1       -0.2101
     21 C          46.5793   15.3755  -27.1504 C.ar    1  UNL1        0.1021
     22 C          45.6431   14.7039  -26.3651 C.ar    1  UNL1        0.0231
     23 C          46.0828   13.7958  -25.3914 C.ar    1  UNL1        0.0335
     24 C          45.1656   13.0984  -24.5878 C.ar    1  UNL1        0.1404
     25 F          43.8288   13.2865  -24.7343 F       1  UNL1       -0.2042
     26 C          45.6220   12.1986  -23.6213 C.ar    1  UNL1        0.0342
     27 C          46.9963   11.9866  -23.4331 C.ar    1  UNL1        0.0560
     28 C          47.9158   12.6671  -24.2471 C.ar    1  UNL1        0.0093
     29 C          47.4709   13.5771  -25.2217 C.ar    1  UNL1        0.0555
     30 C          50.6120   15.0359  -25.2764 C.3     1  UNL1        0.2542
     31 O          49.7566   14.0811  -25.8932 O.3     1  UNL1       -0.4561
     32 C          46.4113   15.7453  -15.7348 C.3     1  UNL1        0.0867
     33 C          46.9081   17.1319  -16.1827 C.3     1  UNL1        0.0244
     34 C          44.9186   15.6051  -16.1042 C.3     1  UNL1        0.0244
     35 C          46.5544   15.6100  -14.2062 C.3     1  UNL1        0.0244
@<TRIPOS>BOND
     1    30    31    1
     2    31    19    1
     3    19    20   ar
     4    20    21   ar
     5    21    22   ar
     6    22    23   ar
     7    23    24   ar
     8    24    25    1
     9    24    26   ar
    10    26    27   ar
    11    27     1    1
    12     1     2    2
    13     1     3   am
    14     3     4    1
    15     4     5    1
    16     5     6    1
    17     6     7    1
    18     7     8    1
    19     6     9    1
    20     9    10    1
    21    10    11   ar
    22    11    12   ar
    23    12    32    1
    24    32    33    1
    25    32    34    1
    26    32    35    1
    27    12    13   ar
    28    13    14   ar
    29    14    15    1
    30    15    16    2
    31    15    17   am
    32    27    28   ar
    33    28    29   ar
    34    29    19   ar
    35    29    23   ar
    36     8     3    1
    37    14    10   ar
    38    17     6    1
    39    17    18    1
