@<TRIPOS>MOLECULE
*****
 35 39 0 0 0
SMALL
GASTEIGER

@<TRIPOS>ATOM
      1 C          45.8787   15.8212  -27.9575 C.2     1  UNL1        0.2490
      2 O          45.1944   16.8048  -28.3517 O.2     1  UNL1       -0.2699
      3 N          46.5432   15.8924  -26.6818 N.am    1  UNL1       -0.2760
      4 C          47.9407   15.4725  -26.5349 C.3     1  UNL1        0.0954
      5 C          48.1192   14.5706  -25.2995 C.3     1  UNL1        0.0407
      6 C          47.0511   14.8042  -24.1783 C.3     1  UNL1        0.0731
      7 C          46.5408   16.2716  -24.2245 C.3     1  UNL1        0.0407
      8 C          45.9165   16.6390  -25.5850 C.3     1  UNL1        0.0954
      9 N          45.9133   13.8770  -24.4199 N.am    1  UNL1       -0.3015
     10 C          46.0027   12.4897  -24.0590 C.2     1  UNL1        0.2650
     11 O          45.1542   11.6556  -24.4713 O.2     1  UNL1       -0.2684
     12 C          47.0816   12.0974  -23.1640 C.ar    1  UNL1        0.1523
     13 N          47.3574   10.8693  -22.6948 N.ar    1  UNL1       -0.1650
     14 N          48.3516   11.0080  -21.8229 N.ar    1  UNL1       -0.2533
     15 C          48.6792   12.3198  -21.7113 C.ar    1  UNL1        0.0931
     16 C          47.8946   13.0320  -22.5928 C.ar    1  UNL1        0.0313
     17 C          47.6602   14.5105  -22.7533 C.3     1  UNL1        0.0945
     18 I          49.4202   15.6585  -22.2416 I       1  UNL1       -0.0687
     19 H          45.0483   14.1957  -24.9099 H       1  UNL1        0.1497
     20 C          46.8779   10.9941  -28.5435 C.ar    1  UNL1        0.2248
     21 N          46.9503    9.9062  -29.3614 N.ar    1  UNL1       -0.2101
     22 C          46.6229    9.9673  -30.6784 C.ar    1  UNL1        0.1021
     23 C          46.1999   11.1712  -31.2415 C.ar    1  UNL1        0.0209
     24 C          46.1119   12.3135  -30.4363 C.ar    1  UNL1        0.0060
     25 C          45.6946   13.5377  -30.9764 C.ar    1  UNL1        0.0003
     26 C          45.6197   14.6749  -30.1681 C.ar    1  UNL1        0.0045
     27 C          45.9601   14.6082  -28.8069 C.ar    1  UNL1        0.0537
     28 C          46.3503   13.3744  -28.2581 C.ar    1  UNL1        0.0092
     29 C          46.4474   12.2290  -29.0656 C.ar    1  UNL1        0.0534
     30 C          48.5788   11.0351  -26.7394 C.3     1  UNL1        0.2542
     31 O          47.2393   10.8865  -27.1947 O.3     1  UNL1       -0.4561
     32 C          48.9208    9.9015  -21.0283 C.3     1  UNL1        0.0867
     33 C          49.8715    9.0650  -21.9073 C.3     1  UNL1        0.0244
     34 C          49.6948   10.4812  -19.8307 C.3     1  UNL1        0.0244
     35 C          47.7991    8.9797  -20.5026 C.3     1  UNL1        0.0244
@<TRIPOS>BOND
     1    30    31    1
     2    31    20    1
     3    20    21   ar
     4    21    22   ar
     5    22    23   ar
     6    23    24   ar
     7    24    25   ar
     8    25    26   ar
     9    26    27   ar
    10    27     1    1
    11     1     2    2
    12     1     3   am
    13     3     4    1
    14     4     5    1
    15     5     6    1
    16     6     7    1
    17     7     8    1
    18     6     9    1
    19     9    10   am
    20    10    11    2
    21    10    12    1
    22    12    13   ar
    23    13    14   ar
    24    14    32    1
    25    32    33    1
    26    32    34    1
    27    32    35    1
    28    14    15   ar
    29    15    16   ar
    30    16    17    1
    31    17    18    1
    32    27    28   ar
    33    28    29   ar
    34    29    20   ar
    35    29    24   ar
    36     8     3    1
    37    16    12   ar
    38    17     6    1
    39     9    19    1
@<TRIPOS>MOLECULE
*****
 35 39 0 0 0
SMALL
GASTEIGER

@<TRIPOS>ATOM
      1 C          51.3071    9.7980  -25.9360 C.2     1  UNL1        0.2490
      2 O          52.3398    9.0741  -25.9599 O.2     1  UNL1       -0.2699
      3 N          51.1400   10.7505  -24.8688 N.am    1  UNL1       -0.2760
      4 C          49.8611   10.8742  -24.1618 C.3     1  UNL1        0.0954
      5 C          49.4512   12.3514  -24.0166 C.3     1  UNL1        0.0407
      6 C          50.6551   13.3529  -24.0310 C.3     1  UNL1        0.0731
      7 C          51.9340   12.6580  -23.4858 C.3     1  UNL1        0.0407
      8 C          52.3220   11.4082  -24.3001 C.3     1  UNL1        0.0954
      9 N          50.8861   13.7816  -25.4366 N.am    1  UNL1       -0.3015
     10 C          50.0454   14.7686  -26.0545 C.2     1  UNL1        0.2650
     11 O          50.0770   14.9614  -27.2985 O.2     1  UNL1       -0.2684
     12 C          49.1937   15.5649  -25.1832 C.ar    1  UNL1        0.1523
     13 N          48.3351   16.5367  -25.5341 N.ar    1  UNL1       -0.1650
     14 N          47.8694   17.0611  -24.4046 N.ar    1  UNL1       -0.2533
     15 C          48.4566   16.4519  -23.3440 C.ar    1  UNL1        0.0931
     16 C          49.2869   15.4629  -23.8261 C.ar    1  UNL1        0.0313
     17 C          50.3387   14.6232  -23.1513 C.3     1  UNL1        0.0945
     18 I          49.8362   14.2207  -21.0867 I       1  UNL1       -0.0687
     19 H          51.6233   13.3352  -26.0257 H       1  UNL1        0.1497
     20 C          47.1745   11.3124  -28.2318 C.ar    1  UNL1        0.2248
     21 N          46.2693   11.1493  -29.2376 N.ar    1  UNL1       -0.2101
     22 C          46.3861   10.1626  -30.1640 C.ar    1  UNL1        0.1021
     23 C          47.4550    9.2685  -30.1063 C.ar    1  UNL1        0.0209
     24 C          48.4076    9.4004  -29.0884 C.ar    1  UNL1        0.0060
     25 C          49.4894    8.5133  -29.0031 C.ar    1  UNL1        0.0003
     26 C          50.4294    8.6456  -27.9780 C.ar    1  UNL1        0.0045
     27 C          50.3048    9.6666  -27.0212 C.ar    1  UNL1        0.0537
     28 C          49.2366   10.5745  -27.1233 C.ar    1  UNL1        0.0092
     29 C          48.2752   10.4391  -28.1386 C.ar    1  UNL1        0.0534
     30 C          46.4541   13.6053  -27.6208 C.3     1  UNL1        0.2542
     31 O          47.0050   12.3360  -27.2909 O.3     1  UNL1       -0.4561
     32 C          46.9387   18.2054  -24.3410 C.3     1  UNL1        0.0867
     33 C          45.8640   18.0635  -25.4370 C.3     1  UNL1        0.0244
     34 C          46.2678   18.2390  -22.9561 C.3     1  UNL1        0.0244
     35 C          47.6962   19.5323  -24.5645 C.3     1  UNL1        0.0244
@<TRIPOS>BOND
     1    30    31    1
     2    31    20    1
     3    20    21   ar
     4    21    22   ar
     5    22    23   ar
     6    23    24   ar
     7    24    25   ar
     8    25    26   ar
     9    26    27   ar
    10    27     1    1
    11     1     2    2
    12     1     3   am
    13     3     4    1
    14     4     5    1
    15     5     6    1
    16     6     7    1
    17     7     8    1
    18     6     9    1
    19     9    10   am
    20    10    11    2
    21    10    12    1
    22    12    13   ar
    23    13    14   ar
    24    14    32    1
    25    32    33    1
    26    32    34    1
    27    32    35    1
    28    14    15   ar
    29    15    16   ar
    30    16    17    1
    31    17    18    1
    32    27    28   ar
    33    28    29   ar
    34    29    20   ar
    35    29    24   ar
    36     8     3    1
    37    16    12   ar
    38    17     6    1
    39     9    19    1
@<TRIPOS>MOLECULE
*****
 35 39 0 0 0
SMALL
GASTEIGER

@<TRIPOS>ATOM
      1 C          46.9545   10.6194  -27.9196 C.2     1  UNL1        0.2490
      2 O          45.8679   10.2486  -28.4421 O.2     1  UNL1       -0.2699
      3 N          46.9399   11.6743  -26.9394 N.am    1  UNL1       -0.2760
      4 C          47.9077   12.7746  -27.0012 C.3     1  UNL1        0.0954
      5 C          48.5277   13.0428  -25.6173 C.3     1  UNL1        0.0407
      6 C          47.6193   12.6131  -24.4161 C.3     1  UNL1        0.0731
      7 C          46.1217   12.6932  -24.8241 C.3     1  UNL1        0.0407
      8 C          45.7898   11.8022  -26.0372 C.3     1  UNL1        0.0954
      9 N          47.9593   11.2108  -24.0548 N.am    1  UNL1       -0.3015
     10 C          49.1346   10.9114  -23.2854 C.2     1  UNL1        0.2650
     11 O          49.5581    9.7301  -23.1803 O.2     1  UNL1       -0.2684
     12 C          49.7859   12.0166  -22.5978 C.ar    1  UNL1        0.1523
     13 N          50.8856   11.9743  -21.8274 N.ar    1  UNL1       -0.1650
     14 N          51.0415   13.1921  -21.3171 N.ar    1  UNL1       -0.2533
     15 C          50.0266   13.9920  -21.7304 C.ar    1  UNL1        0.0931
     16 C          49.2274   13.2610  -22.5830 C.ar    1  UNL1        0.0313
     17 C          47.8675   13.5411  -23.1651 C.3     1  UNL1        0.0945
     18 I          47.5632   15.6555  -23.5029 I       1  UNL1       -0.0687
     19 H          47.3882   10.4079  -24.4001 H       1  UNL1        0.1497
     20 C          49.4910    7.5464  -30.8802 C.ar    1  UNL1        0.2248
     21 N          50.6668    6.9348  -31.1980 N.ar    1  UNL1       -0.2101
     22 C          51.8077    7.1477  -30.4921 C.ar    1  UNL1        0.1021
     23 C          51.8050    8.0119  -29.3973 C.ar    1  UNL1        0.0209
     24 C          50.6175    8.6604  -29.0363 C.ar    1  UNL1        0.0060
     25 C          50.5843    9.5304  -27.9379 C.ar    1  UNL1        0.0003
     26 C          49.3927   10.1652  -27.5783 C.ar    1  UNL1        0.0045
     27 C          48.2146    9.9419  -28.3100 C.ar    1  UNL1        0.0537
     28 C          48.2541    9.0926  -29.4293 C.ar    1  UNL1        0.0092
     29 C          49.4421    8.4343  -29.7884 C.ar    1  UNL1        0.0534
     30 C          48.2469    6.2168  -32.5636 C.3     1  UNL1        0.2542
     31 O          48.3364    7.2853  -31.6288 O.3     1  UNL1       -0.4561
     32 C          52.1034   13.5631  -20.3609 C.3     1  UNL1        0.0867
     33 C          52.0323   15.0742  -20.0646 C.3     1  UNL1        0.0244
     34 C          51.9139   12.7679  -19.0566 C.3     1  UNL1        0.0244
     35 C          53.4956   13.2423  -20.9468 C.3     1  UNL1        0.0244
@<TRIPOS>BOND
     1    30    31    1
     2    31    20    1
     3    20    21   ar
     4    21    22   ar
     5    22    23   ar
     6    23    24   ar
     7    24    25   ar
     8    25    26   ar
     9    26    27   ar
    10    27     1    1
    11     1     2    2
    12     1     3   am
    13     3     4    1
    14     4     5    1
    15     5     6    1
    16     6     7    1
    17     7     8    1
    18     6     9    1
    19     9    10   am
    20    10    11    2
    21    10    12    1
    22    12    13   ar
    23    13    14   ar
    24    14    32    1
    25    32    33    1
    26    32    34    1
    27    32    35    1
    28    14    15   ar
    29    15    16   ar
    30    16    17    1
    31    17    18    1
    32    27    28   ar
    33    28    29   ar
    34    29    20   ar
    35    29    24   ar
    36     8     3    1
    37    16    12   ar
    38    17     6    1
    39     9    19    1
@<TRIPOS>MOLECULE
*****
 35 39 0 0 0
SMALL
GASTEIGER

@<TRIPOS>ATOM
      1 C          48.5942   13.3885  -24.7111 C.2     1  UNL1        0.2490
      2 O          48.4236   12.8754  -25.8507 O.2     1  UNL1       -0.2699
      3 N          47.8413   12.8834  -23.5921 N.am    1  UNL1       -0.2760
      4 C          47.1827   13.7966  -22.6524 C.3     1  UNL1        0.0954
      5 C          47.4601   13.3835  -21.1950 C.3     1  UNL1        0.0407
      6 C          47.7753   11.8605  -21.0116 C.3     1  UNL1        0.0731
      7 C          47.0707   11.0321  -22.1221 C.3     1  UNL1        0.0407
      8 C          47.4992   11.4574  -23.5402 C.3     1  UNL1        0.0954
      9 N          49.2475   11.6749  -21.1149 N.am    1  UNL1       -0.3015
     10 C          50.1107   11.9960  -20.0127 C.2     1  UNL1        0.2650
     11 O          51.3583   12.0721  -20.1660 O.2     1  UNL1       -0.2684
     12 C          49.4923   12.1830  -18.7085 C.ar    1  UNL1        0.1523
     13 N          50.0950   12.4840  -17.5463 N.ar    1  UNL1       -0.1650
     14 N          49.1563   12.4371  -16.6059 N.ar    1  UNL1       -0.2533
     15 C          47.9736   12.0719  -17.1613 C.ar    1  UNL1        0.0931
     16 C          48.1638   11.9371  -18.5198 C.ar    1  UNL1        0.0313
     17 C          47.2909   11.3536  -19.5987 C.3     1  UNL1        0.0945
     18 I          45.1910   11.6515  -19.1756 I       1  UNL1       -0.0687
     19 H          49.6941   11.3652  -22.0062 H       1  UNL1        0.1497
     20 C          50.4401   17.8018  -26.0369 C.ar    1  UNL1        0.2248
     21 N          51.3757   18.7775  -25.8632 N.ar    1  UNL1       -0.2101
     22 C          52.3465   18.6897  -24.9170 C.ar    1  UNL1        0.1021
     23 C          52.4161   17.5730  -24.0841 C.ar    1  UNL1        0.0209
     24 C          51.4742   16.5470  -24.2296 C.ar    1  UNL1        0.0060
     25 C          51.5229   15.4111  -23.4099 C.ar    1  UNL1        0.0003
     26 C          50.5856   14.3873  -23.5689 C.ar    1  UNL1        0.0045
     27 C          49.5838   14.4812  -24.5491 C.ar    1  UNL1        0.0537
     28 C          49.5164   15.6332  -25.3517 C.ar    1  UNL1        0.0092
     29 C          50.4652   16.6600  -25.2133 C.ar    1  UNL1        0.0534
     30 C          48.8467   19.1693  -27.3562 C.3     1  UNL1        0.2542
     31 O          49.4662   17.9296  -27.0353 O.3     1  UNL1       -0.4561
     32 C          49.4103   12.6469  -15.1667 C.3     1  UNL1        0.0867
     33 C          50.9258   12.7834  -14.9202 C.3     1  UNL1        0.0244
     34 C          48.6908   13.9267  -14.7046 C.3     1  UNL1        0.0244
     35 C          48.8846   11.4504  -14.3442 C.3     1  UNL1        0.0244
@<TRIPOS>BOND
     1    30    31    1
     2    31    20    1
     3    20    21   ar
     4    21    22   ar
     5    22    23   ar
     6    23    24   ar
     7    24    25   ar
     8    25    26   ar
     9    26    27   ar
    10    27     1    1
    11     1     2    2
    12     1     3   am
    13     3     4    1
    14     4     5    1
    15     5     6    1
    16     6     7    1
    17     7     8    1
    18     6     9    1
    19     9    10   am
    20    10    11    2
    21    10    12    1
    22    12    13   ar
    23    13    14   ar
    24    14    32    1
    25    32    33    1
    26    32    34    1
    27    32    35    1
    28    14    15   ar
    29    15    16   ar
    30    16    17    1
    31    17    18    1
    32    27    28   ar
    33    28    29   ar
    34    29    20   ar
    35    29    24   ar
    36     8     3    1
    37    16    12   ar
    38    17     6    1
    39     9    19    1
@<TRIPOS>MOLECULE
*****
 35 39 0 0 0
SMALL
GASTEIGER

@<TRIPOS>ATOM
      1 C          52.9638   13.0684  -19.5690 C.2     1  UNL1        0.2490
      2 O          54.1857   12.9029  -19.3030 O.2     1  UNL1       -0.2699
      3 N          52.5896   13.6088  -20.8504 N.am    1  UNL1       -0.2760
      4 C          51.5890   14.6759  -20.9557 C.3     1  UNL1        0.0954
      5 C          50.5626   14.3631  -22.0603 C.3     1  UNL1        0.0407
      6 C          51.1060   13.4246  -23.1902 C.3     1  UNL1        0.0731
      7 C          52.6434   13.5998  -23.3362 C.3     1  UNL1        0.0407
      8 C          53.4015   13.2901  -22.0303 C.3     1  UNL1        0.0954
      9 N          50.8020   12.0184  -22.8124 N.am    1  UNL1       -0.3015
     10 C          49.4827   11.4771  -22.9841 C.2     1  UNL1        0.2650
     11 O          49.1557   10.3830  -22.4531 O.2     1  UNL1       -0.2684
     12 C          48.5586   12.2175  -23.8306 C.ar    1  UNL1        0.1523
     13 N          47.2876   11.9050  -24.1333 N.ar    1  UNL1       -0.1650
     14 N          46.8771   12.7991  -25.0275 N.ar    1  UNL1       -0.2533
     15 C          47.8924   13.6506  -25.3188 C.ar    1  UNL1        0.0931
     16 C          48.9723   13.3118  -24.5321 C.ar    1  UNL1        0.0313
     17 C          50.4128   13.7479  -24.5696 C.3     1  UNL1        0.0945
     18 I          50.6115   15.7905  -25.2520 I       1  UNL1       -0.0687
     19 H          51.5202   11.4108  -22.3597 H       1  UNL1        0.1497
     20 C          48.4225   11.4358  -18.4055 C.ar    1  UNL1        0.2248
     21 N          47.5107   11.0985  -17.4502 N.ar    1  UNL1       -0.2101
     22 C          47.7948   11.1620  -16.1233 C.ar    1  UNL1        0.1021
     23 C          49.0517   11.5880  -15.6941 C.ar    1  UNL1        0.0209
     24 C          50.0179   11.9446  -16.6430 C.ar    1  UNL1        0.0060
     25 C          51.2876   12.3808  -16.2404 C.ar    1  UNL1        0.0003
     26 C          52.2420   12.7447  -17.1936 C.ar    1  UNL1        0.0045
     27 C          51.9443   12.6786  -18.5649 C.ar    1  UNL1        0.0537
     28 C          50.6813   12.2133  -18.9699 C.ar    1  UNL1        0.0092
     29 C          49.7077   11.8629  -18.0198 C.ar    1  UNL1        0.0534
     30 C          46.8057   11.7619  -20.2572 C.3     1  UNL1        0.2542
     31 O          48.0796   11.3678  -19.7617 O.3     1  UNL1       -0.4561
     32 C          45.5492   12.7805  -25.6724 C.3     1  UNL1        0.0867
     33 C          45.3100   14.1130  -26.4097 C.3     1  UNL1        0.0244
     34 C          45.4865   11.6134  -26.6740 C.3     1  UNL1        0.0244
     35 C          44.4373   12.5967  -24.6168 C.3     1  UNL1        0.0244
@<TRIPOS>BOND
     1    30    31    1
     2    31    20    1
     3    20    21   ar
     4    21    22   ar
     5    22    23   ar
     6    23    24   ar
     7    24    25   ar
     8    25    26   ar
     9    26    27   ar
    10    27     1    1
    11     1     2    2
    12     1     3   am
    13     3     4    1
    14     4     5    1
    15     5     6    1
    16     6     7    1
    17     7     8    1
    18     6     9    1
    19     9    10   am
    20    10    11    2
    21    10    12    1
    22    12    13   ar
    23    13    14   ar
    24    14    32    1
    25    32    33    1
    26    32    34    1
    27    32    35    1
    28    14    15   ar
    29    15    16   ar
    30    16    17    1
    31    17    18    1
    32    27    28   ar
    33    28    29   ar
    34    29    20   ar
    35    29    24   ar
    36     8     3    1
    37    16    12   ar
    38    17     6    1
    39     9    19    1
@<TRIPOS>MOLECULE
*****
 35 39 0 0 0
SMALL
GASTEIGER

@<TRIPOS>ATOM
      1 C          49.9715   12.5885  -25.6487 C.2     1  UNL1        0.2490
      2 O          50.3633   12.0853  -26.7370 O.2     1  UNL1       -0.2699
      3 N          49.5372   11.7178  -24.5870 N.am    1  UNL1       -0.2760
      4 C          48.3009   11.9901  -23.8465 C.3     1  UNL1        0.0954
      5 C          48.5254   11.8560  -22.3290 C.3     1  UNL1        0.0407
      6 C          49.7013   10.8978  -21.9393 C.3     1  UNL1        0.0731
      7 C          49.8873    9.8090  -23.0327 C.3     1  UNL1        0.0407
      8 C          50.1792   10.4087  -24.4222 C.3     1  UNL1        0.0954
      9 N          50.9443   11.7077  -21.8312 N.am    1  UNL1       -0.3015
     10 C          51.2021   12.5119  -20.6694 C.2     1  UNL1        0.2650
     11 O          52.1180   13.3762  -20.6684 O.2     1  UNL1       -0.2684
     12 C          50.3966   12.2564  -19.4843 C.ar    1  UNL1        0.1523
     13 N          50.4611   12.8772  -18.2946 N.ar    1  UNL1       -0.1650
     14 N          49.6255   12.2357  -17.4834 N.ar    1  UNL1       -0.2533
     15 C          49.0627   11.1919  -18.1426 C.ar    1  UNL1        0.0931
     16 C          49.5220   11.2104  -19.4420 C.ar    1  UNL1        0.0313
     17 C          49.4201   10.1996  -20.5532 C.3     1  UNL1        0.0945
     18 I          47.5793    9.0702  -20.4393 I       1  UNL1       -0.0687
     19 H          51.6286   11.7589  -22.6179 H       1  UNL1        0.1497
     20 C          48.4592   17.1262  -26.9770 C.ar    1  UNL1        0.2248
     21 N          48.5167   18.4763  -26.7991 N.ar    1  UNL1       -0.2101
     22 C          49.2949   19.0483  -25.8438 C.ar    1  UNL1        0.1021
     23 C          50.0760   18.2529  -25.0055 C.ar    1  UNL1        0.0209
     24 C          50.0467   16.8609  -25.1550 C.ar    1  UNL1        0.0060
     25 C          50.8249   16.0373  -24.3300 C.ar    1  UNL1        0.0003
     26 C          50.7977   14.6500  -24.4930 C.ar    1  UNL1        0.0045
     27 C          49.9925   14.0621  -25.4826 C.ar    1  UNL1        0.0537
     28 C          49.1895   14.8854  -26.2907 C.ar    1  UNL1        0.0092
     29 C          49.2235   16.2826  -26.1482 C.ar    1  UNL1        0.0534
     30 C          46.2915   16.2259  -27.7769 C.3     1  UNL1        0.2542
     31 O          47.6528   16.5824  -27.9847 O.3     1  UNL1       -0.4561
     32 C          49.4388   12.5617  -16.0557 C.3     1  UNL1        0.0867
     33 C          50.8061   12.8486  -15.4042 C.3     1  UNL1        0.0244
     34 C          48.5332   13.8001  -15.9309 C.3     1  UNL1        0.0244
     35 C          48.7788   11.3800  -15.3124 C.3     1  UNL1        0.0244
@<TRIPOS>BOND
     1    30    31    1
     2    31    20    1
     3    20    21   ar
     4    21    22   ar
     5    22    23   ar
     6    23    24   ar
     7    24    25   ar
     8    25    26   ar
     9    26    27   ar
    10    27     1    1
    11     1     2    2
    12     1     3   am
    13     3     4    1
    14     4     5    1
    15     5     6    1
    16     6     7    1
    17     7     8    1
    18     6     9    1
    19     9    10   am
    20    10    11    2
    21    10    12    1
    22    12    13   ar
    23    13    14   ar
    24    14    32    1
    25    32    33    1
    26    32    34    1
    27    32    35    1
    28    14    15   ar
    29    15    16   ar
    30    16    17    1
    31    17    18    1
    32    27    28   ar
    33    28    29   ar
    34    29    20   ar
    35    29    24   ar
    36     8     3    1
    37    16    12   ar
    38    17     6    1
    39     9    19    1
@<TRIPOS>MOLECULE
*****
 35 39 0 0 0
SMALL
GASTEIGER

@<TRIPOS>ATOM
      1 C          48.0935   13.3969  -25.6058 C.2     1  UNL1        0.2490
      2 O          48.3221   13.1085  -26.8124 O.2     1  UNL1       -0.2699
      3 N          48.1544   12.3580  -24.6104 N.am    1  UNL1       -0.2760
      4 C          47.1052   12.2246  -23.5944 C.3     1  UNL1        0.0954
      5 C          47.7148   12.0335  -22.1932 C.3     1  UNL1        0.0407
      6 C          49.1473   11.4008  -22.2005 C.3     1  UNL1        0.0731
      7 C          49.3246   10.4953  -23.4513 C.3     1  UNL1        0.0407
      8 C          49.1171   11.2624  -24.7720 C.3     1  UNL1        0.0954
      9 N          50.1429   12.5052  -22.2442 N.am    1  UNL1       -0.3015
     10 C          50.4685   13.2521  -21.0614 C.2     1  UNL1        0.2650
     11 O          51.1176   14.3289  -21.1318 O.2     1  UNL1       -0.2684
     12 C          50.0601   12.6929  -19.7811 C.ar    1  UNL1        0.1523
     13 N          50.2558   13.2093  -18.5564 N.ar    1  UNL1       -0.1650
     14 N          49.8234   12.3021  -17.6859 N.ar    1  UNL1       -0.2533
     15 C          49.3910   11.2020  -18.3521 C.ar    1  UNL1        0.0931
     16 C          49.5046   11.4495  -19.7033 C.ar    1  UNL1        0.0313
     17 C          49.3881   10.5425  -20.8993 C.3     1  UNL1        0.0945
     18 I          47.9627    8.9518  -20.5596 I       1  UNL1       -0.0687
     19 H          50.5833   12.8033  -23.1424 H       1  UNL1        0.1497
     20 C          49.0068   18.2629  -25.9668 C.ar    1  UNL1        0.2248
     21 N          48.7057   19.5394  -25.5962 N.ar    1  UNL1       -0.2101
     22 C          47.6987   19.8235  -24.7297 C.ar    1  UNL1        0.1021
     23 C          46.9335   18.7945  -24.1809 C.ar    1  UNL1        0.0209
     24 C          47.2101   17.4681  -24.5348 C.ar    1  UNL1        0.0060
     25 C          46.4607   16.4138  -23.9952 C.ar    1  UNL1        0.0003
     26 C          46.7503   15.0926  -24.3456 C.ar    1  UNL1        0.0045
     27 C          47.7930   14.8027  -25.2411 C.ar    1  UNL1        0.0537
     28 C          48.5256   15.8612  -25.8054 C.ar    1  UNL1        0.0092
     29 C          48.2556   17.1920  -25.4455 C.ar    1  UNL1        0.0534
     30 C          51.4212   17.9446  -26.4345 C.3     1  UNL1        0.2542
     31 O          50.0635   18.0174  -26.8527 O.3     1  UNL1       -0.4561
     32 C          49.9126   12.4483  -16.2195 C.3     1  UNL1        0.0867
     33 C          51.3601   12.7943  -15.8182 C.3     1  UNL1        0.0244
     34 C          48.9636   13.5705  -15.7617 C.3     1  UNL1        0.0244
     35 C          49.5095   11.1327  -15.5188 C.3     1  UNL1        0.0244
@<TRIPOS>BOND
     1    30    31    1
     2    31    20    1
     3    20    21   ar
     4    21    22   ar
     5    22    23   ar
     6    23    24   ar
     7    24    25   ar
     8    25    26   ar
     9    26    27   ar
    10    27     1    1
    11     1     2    2
    12     1     3   am
    13     3     4    1
    14     4     5    1
    15     5     6    1
    16     6     7    1
    17     7     8    1
    18     6     9    1
    19     9    10   am
    20    10    11    2
    21    10    12    1
    22    12    13   ar
    23    13    14   ar
    24    14    32    1
    25    32    33    1
    26    32    34    1
    27    32    35    1
    28    14    15   ar
    29    15    16   ar
    30    16    17    1
    31    17    18    1
    32    27    28   ar
    33    28    29   ar
    34    29    20   ar
    35    29    24   ar
    36     8     3    1
    37    16    12   ar
    38    17     6    1
    39     9    19    1
@<TRIPOS>MOLECULE
*****
 35 39 0 0 0
SMALL
GASTEIGER

@<TRIPOS>ATOM
      1 C          48.7781   10.3777  -19.8442 C.2     1  UNL1        0.2490
      2 O          47.9929    9.4827  -19.4276 O.2     1  UNL1       -0.2699
      3 N          48.8023   10.6943  -21.2489 N.am    1  UNL1       -0.2760
      4 C          50.0725   10.8401  -21.9673 C.3     1  UNL1        0.0954
      5 C          50.0694   12.1072  -22.8425 C.3     1  UNL1        0.0407
      6 C          48.6418   12.5732  -23.2869 C.3     1  UNL1        0.0731
      7 C          47.6834   11.3524  -23.3695 C.3     1  UNL1        0.0407
      8 C          47.5625   10.6025  -22.0283 C.3     1  UNL1        0.0954
      9 N          48.1310   13.5355  -22.2741 N.am    1  UNL1       -0.3015
     10 C          48.5818   14.8992  -22.2589 C.2     1  UNL1        0.2650
     11 O          48.3462   15.6498  -21.2756 O.2     1  UNL1       -0.2684
     12 C          49.2778   15.3890  -23.4396 C.ar    1  UNL1        0.1523
     13 N          49.7824   16.6164  -23.6488 N.ar    1  UNL1       -0.1650
     14 N          50.2178   16.6413  -24.9048 N.ar    1  UNL1       -0.2533
     15 C          49.9573   15.4505  -25.5005 C.ar    1  UNL1        0.0931
     16 C          49.3829   14.6205  -24.5618 C.ar    1  UNL1        0.0313
     17 C          48.6970   13.2867  -24.6925 C.3     1  UNL1        0.0945
     18 I          49.5396   12.1091  -26.2988 I       1  UNL1       -0.0687
     19 H          47.4811   13.2312  -21.5159 H       1  UNL1        0.1497
     20 C          49.6692   12.0737  -15.2647 C.ar    1  UNL1        0.2248
     21 N          50.4825   12.7528  -14.4073 N.ar    1  UNL1       -0.2101
     22 C          51.6660   13.2891  -14.8035 C.ar    1  UNL1        0.1021
     23 C          52.0869   13.1607  -16.1271 C.ar    1  UNL1        0.0209
     24 C          51.2808   12.4708  -17.0410 C.ar    1  UNL1        0.0060
     25 C          51.6763   12.3305  -18.3784 C.ar    1  UNL1        0.0003
     26 C          50.8610   11.6497  -19.2860 C.ar    1  UNL1        0.0045
     27 C          49.6372   11.0974  -18.8728 C.ar    1  UNL1        0.0537
     28 C          49.2540   11.2121  -17.5254 C.ar    1  UNL1        0.0092
     29 C          50.0569   11.9110  -16.6086 C.ar    1  UNL1        0.0534
     30 C          48.1806   11.2942  -13.4411 C.3     1  UNL1        0.2542
     31 O          48.4509   11.5502  -14.8140 O.3     1  UNL1       -0.4561
     32 C          50.7936   17.8316  -25.5614 C.3     1  UNL1        0.0867
     33 C          51.3222   17.4507  -26.9585 C.3     1  UNL1        0.0244
     34 C          49.7080   18.9147  -25.6937 C.3     1  UNL1        0.0244
     35 C          51.9662   18.3948  -24.7293 C.3     1  UNL1        0.0244
@<TRIPOS>BOND
     1    30    31    1
     2    31    20    1
     3    20    21   ar
     4    21    22   ar
     5    22    23   ar
     6    23    24   ar
     7    24    25   ar
     8    25    26   ar
     9    26    27   ar
    10    27     1    1
    11     1     2    2
    12     1     3   am
    13     3     4    1
    14     4     5    1
    15     5     6    1
    16     6     7    1
    17     7     8    1
    18     6     9    1
    19     9    10   am
    20    10    11    2
    21    10    12    1
    22    12    13   ar
    23    13    14   ar
    24    14    32    1
    25    32    33    1
    26    32    34    1
    27    32    35    1
    28    14    15   ar
    29    15    16   ar
    30    16    17    1
    31    17    18    1
    32    27    28   ar
    33    28    29   ar
    34    29    20   ar
    35    29    24   ar
    36     8     3    1
    37    16    12   ar
    38    17     6    1
    39     9    19    1
@<TRIPOS>MOLECULE
*****
 35 39 0 0 0
SMALL
GASTEIGER

@<TRIPOS>ATOM
      1 C          52.7484   12.9430  -19.3930 C.2     1  UNL1        0.2490
      2 O          53.9559   12.7857  -19.0635 O.2     1  UNL1       -0.2699
      3 N          52.4385   13.5166  -20.6771 N.am    1  UNL1       -0.2760
      4 C          51.4296   14.5730  -20.8075 C.3     1  UNL1        0.0954
      5 C          50.4714   14.2800  -21.9768 C.3     1  UNL1        0.0407
      6 C          51.0911   13.3831  -23.1012 C.3     1  UNL1        0.0731
      7 C          52.6315   13.5829  -23.1551 C.3     1  UNL1        0.0407
      8 C          53.3198   13.2442  -21.8183 C.3     1  UNL1        0.0954
      9 N          50.7874   11.9623  -22.7825 N.am    1  UNL1       -0.3015
     10 C          49.4880   11.4089  -23.0440 C.2     1  UNL1        0.2650
     11 O          49.1482   10.2952  -22.5646 O.2     1  UNL1       -0.2684
     12 C          48.6018   12.1621  -23.9193 C.ar    1  UNL1        0.1523
     13 N          47.3546   11.8420  -24.3021 N.ar    1  UNL1       -0.1650
     14 N          46.9814   12.7571  -25.1915 N.ar    1  UNL1       -0.2533
     15 C          47.9986   13.6304  -25.4001 C.ar    1  UNL1        0.0931
     16 C          49.0378   13.2824  -24.5641 C.ar    1  UNL1        0.0313
     17 C          50.4714   13.7385  -24.5075 C.3     1  UNL1        0.0945
     18 I          50.6775   15.8031  -25.1176 I       1  UNL1       -0.0687
     19 H          51.4881   11.3510  -22.3080 H       1  UNL1        0.1497
     20 C          50.8534   12.6222  -14.8161 C.ar    1  UNL1        0.2248
     21 N          49.8556   12.1961  -13.9913 N.ar    1  UNL1       -0.2101
     22 C          48.7660   11.5312  -14.4563 C.ar    1  UNL1        0.1021
     23 C          48.6393   11.2567  -15.8179 C.ar    1  UNL1        0.0209
     24 C          49.6425   11.6765  -16.7001 C.ar    1  UNL1        0.0060
     25 C          49.5440   11.4101  -18.0727 C.ar    1  UNL1        0.0003
     26 C          50.5546   11.8233  -18.9444 C.ar    1  UNL1        0.0045
     27 C          51.6803   12.5097  -18.4598 C.ar    1  UNL1        0.0537
     28 C          51.7656   12.8030  -17.0878 C.ar    1  UNL1        0.0092
     29 C          50.7646   12.3757  -16.1996 C.ar    1  UNL1        0.0534
     30 C          52.8836   12.6780  -13.3932 C.3     1  UNL1        0.2542
     31 O          51.9650   13.2918  -14.2892 O.3     1  UNL1       -0.4561
     32 C          45.6921   12.7403  -25.9105 C.3     1  UNL1        0.0867
     33 C          45.4601   14.1019  -26.5949 C.3     1  UNL1        0.0244
     34 C          45.7146   11.6232  -26.9692 C.3     1  UNL1        0.0244
     35 C          44.5286   12.4790  -24.9294 C.3     1  UNL1        0.0244
@<TRIPOS>BOND
     1    30    31    1
     2    31    20    1
     3    20    21   ar
     4    21    22   ar
     5    22    23   ar
     6    23    24   ar
     7    24    25   ar
     8    25    26   ar
     9    26    27   ar
    10    27     1    1
    11     1     2    2
    12     1     3   am
    13     3     4    1
    14     4     5    1
    15     5     6    1
    16     6     7    1
    17     7     8    1
    18     6     9    1
    19     9    10   am
    20    10    11    2
    21    10    12    1
    22    12    13   ar
    23    13    14   ar
    24    14    32    1
    25    32    33    1
    26    32    34    1
    27    32    35    1
    28    14    15   ar
    29    15    16   ar
    30    16    17    1
    31    17    18    1
    32    27    28   ar
    33    28    29   ar
    34    29    20   ar
    35    29    24   ar
    36     8     3    1
    37    16    12   ar
    38    17     6    1
    39     9    19    1
