@<TRIPOS>MOLECULE
*****
 54 60 0 0 0
SMALL
GASTEIGER

@<TRIPOS>ATOM
      1 C          59.8438   83.9157   12.7605 C.ar    1  UNL1        0.0481
      2 C          60.3240   82.6057   12.9110 C.ar    1  UNL1        0.0176
      3 C          59.5838   81.5218   12.4326 C.ar    1  UNL1        0.0382
      4 C          58.3441   81.7323   11.8042 C.ar    1  UNL1        0.1388
      5 C          57.8363   83.0333   11.7144 C.ar    1  UNL1        0.0382
      6 C          58.5849   84.1197   12.1761 C.ar    1  UNL1        0.0176
      7 N          61.8989   87.3122   14.1599 N.pl3   1  UNL1       -0.3041
      8 C          61.8365   86.1268   15.0225 C.3     1  UNL1        0.1122
      9 C          61.7036   84.8654   14.1695 C.3     1  UNL1        0.1122
     10 N          60.6404   85.0407   13.1728 N.pl3   1  UNL1       -0.3041
     11 C          60.6921   86.2318   12.3160 C.3     1  UNL1        0.1122
     12 C          60.8324   87.4934   13.1687 C.3     1  UNL1        0.1122
     13 C          64.5310   90.5139   15.1366 C.ar    1  UNL1        0.0702
     14 C          64.3447   90.1342   13.7987 C.ar    1  UNL1        0.0190
     15 C          63.4800   89.0850   13.4752 C.ar    1  UNL1        0.0160
     16 C          62.7886   88.3966   14.4857 C.ar    1  UNL1        0.0480
     17 C          62.9837   88.7703   15.8244 C.ar    1  UNL1        0.0160
     18 C          63.8498   89.8183   16.1474 C.ar    1  UNL1        0.0190
     19 N          67.2175   92.9054   15.5677 N.ar    1  UNL1       -0.2020
     20 N          66.3359   93.4010   16.4236 N.ar    1  UNL1       -0.1411
     21 C          65.2523   92.5981   16.3575 C.ar    1  UNL1        0.1938
     22 S          63.8173   92.8140   17.4082 S.3     1  UNL1       -0.1031
     23 N          65.4263   91.5876   15.4734 N.ar    1  UNL1       -0.2376
     24 C          66.6674   91.8118   15.0023 C.ar    1  UNL1        0.3525
     25 O          67.2346   91.0984   14.1310 O.2     1  UNL1       -0.2444
     26 H          63.2002   93.6737   16.4804 H       1  UNL1        0.1101
     27 C          68.5418   93.4916   15.3305 C.3     1  UNL1        0.1099
     28 C          68.9178   94.4313   16.4843 C.3     1  UNL1        0.0265
     29 C          69.8411   92.0889   13.6327 C.3     1  UNL1        0.0021
     30 C          69.5864   92.3770   15.1123 C.3     1  UNL1        0.0245
     31 O          57.5906   80.6820   11.2612 O.3     1  UNL1       -0.4727
     32 C          57.6118   80.2829    9.8890 C.3     1  UNL1        0.2374
     33 C          58.1302   81.4272    9.0067 C.3     1  UNL1        0.1909
     34 C          58.3232   81.0170    7.5763 C.3     1  UNL1        0.1783
     35 O          59.4153   81.7498    7.1134 O.3     1  UNL1       -0.3267
     36 C          59.9960   82.3688    8.2492 C.3     1  UNL1        0.2296
     37 O          59.3871   81.8607    9.4194 O.3     1  UNL1       -0.3255
     38 C          59.8092   83.8894    8.1426 C.ar    1  UNL1        0.0409
     39 C          58.7944   84.4943    8.9172 C.ar    1  UNL1        0.0022
     40 C          58.5494   85.8657    8.8426 C.ar    1  UNL1        0.0113
     41 C          59.3039   86.6657    7.9878 C.ar    1  UNL1        0.0585
     42 CL         58.9864   88.3878    7.8880 Cl      1  UNL1       -0.0822
     43 C          60.3006   86.0925    7.1988 C.ar    1  UNL1        0.0226
     44 C          60.5548   84.7160    7.2541 C.ar    1  UNL1        0.0591
     45 CL         61.7898   84.1091    6.1548 Cl      1  UNL1       -0.0824
     46 C          61.4995   82.0114    8.2472 C.3     1  UNL1        0.1679
     47 N          61.9140   81.3039    9.4638 N.ar    1  UNL1       -0.3084
     48 C          61.5049   80.0761    9.8238 C.ar    1  UNL1        0.0979
     49 C          62.1358   79.7349   10.9967 C.ar    1  UNL1        0.1188
     50 N          62.9594   80.7330   11.3708 N.ar    1  UNL1       -0.2293
     51 C          62.7963   81.6822   10.4213 C.ar    1  UNL1        0.1201
     52 C          63.6303   82.9415   10.3816 C.3     1  UNL1        0.0569
     53 C          62.7422   84.1907   10.3480 C.3     1  UNL1        0.0079
     54 C          64.5739   82.9802   11.5857 C.3     1  UNL1        0.0079
@<TRIPOS>BOND
     1    29    30    1
     2    30    27    1
     3    27    28    1
     4    27    19    1
     5    19    20   ar
     6    20    21   ar
     7    21    22    1
     8    21    23   ar
     9    23    13    1
    10    13    14   ar
    11    14    15   ar
    12    15    16   ar
    13    16     7    1
    14     7     8    1
    15     8     9    1
    16     9    10    1
    17    10     1    1
    18     1     2   ar
    19     2     3   ar
    20     3     4   ar
    21     4    31    1
    22    31    32    1
    23    32    33    1
    24    33    34    1
    25    34    35    1
    26    35    36    1
    27    36    46    1
    28    46    47    1
    29    47    48   ar
    30    48    49   ar
    31    49    50   ar
    32    50    51   ar
    33    51    52    1
    34    52    53    1
    35    52    54    1
    36    36    38    1
    37    38    39   ar
    38    39    40   ar
    39    40    41   ar
    40    41    42    1
    41    41    43   ar
    42    43    44   ar
    43    44    45    1
    44    36    37    1
    45     4     5   ar
    46     5     6   ar
    47    10    11    1
    48    11    12    1
    49    16    17   ar
    50    17    18   ar
    51    23    24   ar
    52    24    25    2
    53    24    19   ar
    54    18    13   ar
    55    12     7    1
    56     6     1   ar
    57    37    33    1
    58    51    47   ar
    59    44    38   ar
    60    22    26    1
@<TRIPOS>MOLECULE
*****
 54 60 0 0 0
SMALL
GASTEIGER

@<TRIPOS>ATOM
      1 C          59.6265   86.0519   10.0654 C.ar    1  UNL1        0.0481
      2 C          58.4482   85.5995   10.6787 C.ar    1  UNL1        0.0176
      3 C          57.6372   84.6563   10.0431 C.ar    1  UNL1        0.0382
      4 C          57.9886   84.1582    8.7764 C.ar    1  UNL1        0.1388
      5 C          59.1283   84.6595    8.1377 C.ar    1  UNL1        0.0382
      6 C          59.9502   85.5893    8.7811 C.ar    1  UNL1        0.0176
      7 N          62.0357   88.9639   11.9188 N.pl3   1  UNL1       -0.3041
      8 C          60.7249   88.6627   12.5055 C.3     1  UNL1        0.1122
      9 C          60.3258   87.2228   12.1835 C.3     1  UNL1        0.1122
     10 N          60.5098   86.9570   10.7518 N.pl3   1  UNL1       -0.3041
     11 C          61.8159   87.2684   10.1579 C.3     1  UNL1        0.1122
     12 C          62.2187   88.7066   10.4859 C.3     1  UNL1        0.1122
     13 C          64.8532   91.3132   14.0808 C.ar    1  UNL1        0.0702
     14 C          64.3468   91.7675   12.8536 C.ar    1  UNL1        0.0190
     15 C          63.4206   90.9993   12.1428 C.ar    1  UNL1        0.0160
     16 C          62.9870   89.7622   12.6475 C.ar    1  UNL1        0.0480
     17 C          63.5021   89.3039   13.8700 C.ar    1  UNL1        0.0160
     18 C          64.4296   90.0716   14.5794 C.ar    1  UNL1        0.0190
     19 N          67.6838   93.1472   15.4025 N.ar    1  UNL1       -0.2020
     20 N          66.8282   93.3035   16.4020 N.ar    1  UNL1       -0.1411
     21 C          65.6959   92.6670   16.0333 C.ar    1  UNL1        0.1938
     22 S          64.2683   92.5235   17.1063 S.3     1  UNL1       -0.1031
     23 N          65.8125   92.0975   14.8105 N.ar    1  UNL1       -0.2376
     24 C          67.0697   92.4168   14.4498 C.ar    1  UNL1        0.3525
     25 O          67.5977   92.0880   13.3530 O.2     1  UNL1       -0.2444
     26 H          63.7161   93.7239   16.6219 H       1  UNL1        0.1101
     27 C          69.0451   93.6954   15.4016 C.3     1  UNL1        0.1099
     28 C          69.1794   94.7779   16.4812 C.3     1  UNL1        0.0265
     29 C          69.9015   91.7963   16.8843 C.3     1  UNL1        0.0021
     30 C          70.0766   92.5604   15.5718 C.3     1  UNL1        0.0245
     31 O          57.2355   83.1725    8.1229 O.3     1  UNL1       -0.4727
     32 C          57.7622   81.9499    7.6029 C.3     1  UNL1        0.2374
     33 C          58.5650   81.2108    8.6827 C.3     1  UNL1        0.1909
     34 C          57.8334   81.1173    9.9894 C.3     1  UNL1        0.1783
     35 O          58.8129   81.1752   10.9799 O.3     1  UNL1       -0.3267
     36 C          60.0223   81.5303   10.3305 C.3     1  UNL1        0.2296
     37 O          59.7457   81.8814    8.9894 O.3     1  UNL1       -0.3255
     38 C          60.9979   80.3465   10.4037 C.ar    1  UNL1        0.0409
     39 C          61.7280   80.0089    9.2424 C.ar    1  UNL1        0.0022
     40 C          62.6057   78.9246    9.2308 C.ar    1  UNL1        0.0113
     41 C          62.7702   78.1453   10.3734 C.ar    1  UNL1        0.0585
     42 CL         63.8661   76.7761   10.3525 Cl      1  UNL1       -0.0822
     43 C          62.0493   78.4452   11.5287 C.ar    1  UNL1        0.0226
     44 C          61.1570   79.5248   11.5562 C.ar    1  UNL1        0.0591
     45 CL         60.2565   79.7508   13.0529 Cl      1  UNL1       -0.0824
     46 C          60.6029   82.7512   11.0793 C.3     1  UNL1        0.1679
     47 N          62.0463   82.9095   10.8687 N.ar    1  UNL1       -0.3084
     48 C          62.6244   83.2891    9.7171 C.ar    1  UNL1        0.0979
     49 C          63.9826   83.3630    9.9171 C.ar    1  UNL1        0.1188
     50 N          64.2660   83.0522   11.1968 N.ar    1  UNL1       -0.2293
     51 C          63.0655   82.7702   11.7520 C.ar    1  UNL1        0.1201
     52 C          62.9007   82.4851   13.2266 C.3     1  UNL1        0.0569
     53 C          63.6460   81.2069   13.6281 C.3     1  UNL1        0.0079
     54 C          63.3932   83.6794   14.0468 C.3     1  UNL1        0.0079
@<TRIPOS>BOND
     1    29    30    1
     2    30    27    1
     3    27    28    1
     4    27    19    1
     5    19    20   ar
     6    20    21   ar
     7    21    22    1
     8    21    23   ar
     9    23    13    1
    10    13    14   ar
    11    14    15   ar
    12    15    16   ar
    13    16     7    1
    14     7     8    1
    15     8     9    1
    16     9    10    1
    17    10     1    1
    18     1     2   ar
    19     2     3   ar
    20     3     4   ar
    21     4    31    1
    22    31    32    1
    23    32    33    1
    24    33    34    1
    25    34    35    1
    26    35    36    1
    27    36    46    1
    28    46    47    1
    29    47    48   ar
    30    48    49   ar
    31    49    50   ar
    32    50    51   ar
    33    51    52    1
    34    52    53    1
    35    52    54    1
    36    36    38    1
    37    38    39   ar
    38    39    40   ar
    39    40    41   ar
    40    41    42    1
    41    41    43   ar
    42    43    44   ar
    43    44    45    1
    44    36    37    1
    45     4     5   ar
    46     5     6   ar
    47    10    11    1
    48    11    12    1
    49    16    17   ar
    50    17    18   ar
    51    23    24   ar
    52    24    25    2
    53    24    19   ar
    54    18    13   ar
    55    12     7    1
    56     6     1   ar
    57    37    33    1
    58    51    47   ar
    59    44    38   ar
    60    22    26    1
@<TRIPOS>MOLECULE
*****
 54 60 0 0 0
SMALL
GASTEIGER

@<TRIPOS>ATOM
      1 C          59.0408   87.3122   10.0335 C.ar    1  UNL1        0.0481
      2 C          59.2933   87.7496   11.3427 C.ar    1  UNL1        0.0176
      3 C          59.0456   86.9078   12.4298 C.ar    1  UNL1        0.0382
      4 C          58.5304   85.6164   12.2230 C.ar    1  UNL1        0.1388
      5 C          58.2170   85.2064   10.9222 C.ar    1  UNL1        0.0382
      6 C          58.4821   86.0411    9.8328 C.ar    1  UNL1        0.0176
      7 N          59.7177   89.9129    6.7936 N.pl3   1  UNL1       -0.3041
      8 C          60.0549   90.3751    8.1448 C.3     1  UNL1        0.1122
      9 C          60.4022   89.1817    9.0346 C.3     1  UNL1        0.1122
     10 N          59.3748   88.1413    8.9059 N.pl3   1  UNL1       -0.3041
     11 C          59.0253   87.6848    7.5550 C.3     1  UNL1        0.1122
     12 C          58.6849   88.8789    6.6626 C.3     1  UNL1        0.1122
     13 C          61.0219   92.1156    3.3907 C.ar    1  UNL1        0.0702
     14 C          59.7600   92.3627    3.9524 C.ar    1  UNL1        0.0190
     15 C          59.3302   91.6426    5.0704 C.ar    1  UNL1        0.0160
     16 C          60.1555   90.6612    5.6439 C.ar    1  UNL1        0.0480
     17 C          61.4132   90.4075    5.0750 C.ar    1  UNL1        0.0160
     18 C          61.8417   91.1266    3.9560 C.ar    1  UNL1        0.0190
     19 N          62.7138   94.0323    0.8243 N.ar    1  UNL1       -0.2020
     20 N          61.5189   93.9127    0.2645 N.ar    1  UNL1       -0.1411
     21 C          60.7688   93.1916    1.1251 C.ar    1  UNL1        0.1938
     22 S          59.0341   92.8420    0.8449 S.3     1  UNL1       -0.1031
     23 N          61.4636   92.8491    2.2355 N.ar    1  UNL1       -0.2376
     24 C          62.6739   93.3950    2.0120 C.ar    1  UNL1        0.3525
     25 O          63.6493   93.3058    2.8060 O.2     1  UNL1       -0.2444
     26 H          59.3300   91.6530    0.1527 H       1  UNL1        0.1101
     27 C          63.8353   94.7494    0.2065 C.3     1  UNL1        0.1099
     28 C          65.1584   94.0447    0.5357 C.3     1  UNL1        0.0265
     29 C          63.8663   93.5927   -2.0737 C.3     1  UNL1        0.0021
     30 C          63.6043   94.8922   -1.3125 C.3     1  UNL1        0.0245
     31 O          58.3156   84.7171   13.2771 O.3     1  UNL1       -0.4727
     32 C          59.2655   83.7541   13.7385 C.3     1  UNL1        0.2374
     33 C          60.4377   83.6439   12.7535 C.3     1  UNL1        0.1909
     34 C          61.4496   82.6158   13.1664 C.3     1  UNL1        0.1783
     35 O          62.6844   83.1034   12.7407 O.3     1  UNL1       -0.3267
     36 C          62.4679   84.4419   12.3260 C.3     1  UNL1        0.2296
     37 O          61.1568   84.8336   12.6808 O.3     1  UNL1       -0.3255
     38 C          62.6838   84.5385   10.8085 C.ar    1  UNL1        0.0409
     39 C          61.8556   85.4125   10.0696 C.ar    1  UNL1        0.0022
     40 C          61.9763   85.5229    8.6841 C.ar    1  UNL1        0.0113
     41 C          62.9190   84.7586    8.0008 C.ar    1  UNL1        0.0585
     42 CL         63.0610   84.8915    6.2577 Cl      1  UNL1       -0.0822
     43 C          63.7380   83.8749    8.7027 C.ar    1  UNL1        0.0226
     44 C          63.6251   83.7444   10.0929 C.ar    1  UNL1        0.0591
     45 CL         64.6677   82.5422   10.8478 Cl      1  UNL1       -0.0824
     46 C          63.4948   85.3242   13.0712 C.3     1  UNL1        0.1679
     47 N          63.0514   86.7162   13.2064 N.ar    1  UNL1       -0.3084
     48 C          62.9312   87.5929   12.1957 C.ar    1  UNL1        0.0979
     49 C          62.4536   88.7778   12.7035 C.ar    1  UNL1        0.1188
     50 N          62.2505   88.6494   14.0290 N.ar    1  UNL1       -0.2293
     51 C          62.6333   87.3832   14.3103 C.ar    1  UNL1        0.1201
     52 C          62.4577   86.7680   15.6791 C.3     1  UNL1        0.0569
     53 C          62.9334   87.7243   16.7790 C.3     1  UNL1        0.0079
     54 C          60.9924   86.3823   15.8935 C.3     1  UNL1        0.0079
@<TRIPOS>BOND
     1    29    30    1
     2    30    27    1
     3    27    28    1
     4    27    19    1
     5    19    20   ar
     6    20    21   ar
     7    21    22    1
     8    21    23   ar
     9    23    13    1
    10    13    14   ar
    11    14    15   ar
    12    15    16   ar
    13    16     7    1
    14     7     8    1
    15     8     9    1
    16     9    10    1
    17    10     1    1
    18     1     2   ar
    19     2     3   ar
    20     3     4   ar
    21     4    31    1
    22    31    32    1
    23    32    33    1
    24    33    34    1
    25    34    35    1
    26    35    36    1
    27    36    46    1
    28    46    47    1
    29    47    48   ar
    30    48    49   ar
    31    49    50   ar
    32    50    51   ar
    33    51    52    1
    34    52    53    1
    35    52    54    1
    36    36    38    1
    37    38    39   ar
    38    39    40   ar
    39    40    41   ar
    40    41    42    1
    41    41    43   ar
    42    43    44   ar
    43    44    45    1
    44    36    37    1
    45     4     5   ar
    46     5     6   ar
    47    10    11    1
    48    11    12    1
    49    16    17   ar
    50    17    18   ar
    51    23    24   ar
    52    24    25    2
    53    24    19   ar
    54    18    13   ar
    55    12     7    1
    56     6     1   ar
    57    37    33    1
    58    51    47   ar
    59    44    38   ar
    60    22    26    1
@<TRIPOS>MOLECULE
*****
 54 60 0 0 0
SMALL
GASTEIGER

@<TRIPOS>ATOM
      1 C          60.4863   87.6432   10.7687 C.ar    1  UNL1        0.0481
      2 C          59.3072   87.2526   11.4216 C.ar    1  UNL1        0.0176
      3 C          59.3648   86.6032   12.6571 C.ar    1  UNL1        0.0382
      4 C          60.6066   86.3250   13.2542 C.ar    1  UNL1        0.1388
      5 C          61.7822   86.6556   12.5709 C.ar    1  UNL1        0.0382
      6 C          61.7250   87.3221   11.3435 C.ar    1  UNL1        0.0176
      7 N          59.9912   89.9015    7.2510 N.pl3   1  UNL1       -0.3041
      8 C          60.2777   90.6102    8.5036 C.3     1  UNL1        0.1122
      9 C          61.0715   89.7061    9.4464 C.3     1  UNL1        0.1122
     10 N          60.4314   88.3885    9.5391 N.pl3   1  UNL1       -0.3041
     11 C          60.1315   87.6814    8.2879 C.3     1  UNL1        0.1122
     12 C          59.3437   88.5879    7.3415 C.3     1  UNL1        0.1122
     13 C          60.2012   91.9609    3.5298 C.ar    1  UNL1        0.0702
     14 C          59.0014   91.9341    4.2569 C.ar    1  UNL1        0.0190
     15 C          58.9302   91.2605    5.4794 C.ar    1  UNL1        0.0160
     16 C          60.0583   90.6005    5.9939 C.ar    1  UNL1        0.0480
     17 C          61.2550   90.6191    5.2608 C.ar    1  UNL1        0.0160
     18 C          61.3251   91.2912    4.0376 C.ar    1  UNL1        0.0190
     19 N          59.7340   93.5226    0.2948 N.ar    1  UNL1       -0.2020
     20 N          61.0327   93.7283    0.4582 N.ar    1  UNL1       -0.1411
     21 C          61.3515   93.1968    1.6579 C.ar    1  UNL1        0.1938
     22 S          63.0291   93.1499    2.2851 S.3     1  UNL1       -0.1031
     23 N          60.2755   92.6462    2.2678 N.ar    1  UNL1       -0.2376
     24 C          59.2842   92.8670    1.3839 C.ar    1  UNL1        0.3525
     25 O          58.0854   92.5190    1.5616 O.2     1  UNL1       -0.2444
     26 H          62.8875   94.4026    2.9107 H       1  UNL1        0.1101
     27 C          58.9829   93.9549   -0.8895 C.3     1  UNL1        0.1099
     28 C          59.8435   94.8922   -1.7476 C.3     1  UNL1        0.0265
     29 C          56.9541   92.6550   -1.7453 C.3     1  UNL1        0.0021
     30 C          58.4796   92.7279   -1.6783 C.3     1  UNL1        0.0245
     31 O          60.7139   85.7236   14.5163 O.3     1  UNL1       -0.4727
     32 C          61.6255   84.6743   14.8486 C.3     1  UNL1        0.2374
     33 C          61.5284   83.5361   13.8232 C.3     1  UNL1        0.1909
     34 C          62.8114   83.3142   13.0774 C.3     1  UNL1        0.1783
     35 O          62.4422   82.9072   11.7960 O.3     1  UNL1       -0.3267
     36 C          61.0425   83.1101   11.6962 C.3     1  UNL1        0.2296
     37 O          60.5922   83.8198   12.8329 O.3     1  UNL1       -0.3255
     38 C          60.3446   81.7470   11.5814 C.ar    1  UNL1        0.0409
     39 C          59.1534   81.5419   12.3128 C.ar    1  UNL1        0.0022
     40 C          58.4874   80.3165   12.2796 C.ar    1  UNL1        0.0113
     41 C          58.9971   79.2634   11.5240 C.ar    1  UNL1        0.0585
     42 CL         58.1634   77.7206   11.4928 Cl      1  UNL1       -0.0822
     43 C          60.1804   79.4323   10.8059 C.ar    1  UNL1        0.0226
     44 C          60.8674   80.6528   10.8343 C.ar    1  UNL1        0.0591
     45 CL         62.3852   80.7112    9.9428 Cl      1  UNL1       -0.0824
     46 C          60.7909   83.9506   10.4240 C.3     1  UNL1        0.1679
     47 N          59.4132   83.8346    9.9331 N.ar    1  UNL1       -0.3084
     48 C          58.3441   84.4422   10.4736 C.ar    1  UNL1        0.0979
     49 C          57.2387   84.1280    9.7190 C.ar    1  UNL1        0.1188
     50 N          57.6061   83.3405    8.6898 N.ar    1  UNL1       -0.2293
     51 C          58.9380   83.1697    8.8512 C.ar    1  UNL1        0.1201
     52 C          59.7910   82.4420    7.8384 C.3     1  UNL1        0.0569
     53 C          58.9666   81.4060    7.0654 C.3     1  UNL1        0.0079
     54 C          60.4340   83.4468    6.8800 C.3     1  UNL1        0.0079
@<TRIPOS>BOND
     1    29    30    1
     2    30    27    1
     3    27    28    1
     4    27    19    1
     5    19    20   ar
     6    20    21   ar
     7    21    22    1
     8    21    23   ar
     9    23    13    1
    10    13    14   ar
    11    14    15   ar
    12    15    16   ar
    13    16     7    1
    14     7     8    1
    15     8     9    1
    16     9    10    1
    17    10     1    1
    18     1     2   ar
    19     2     3   ar
    20     3     4   ar
    21     4    31    1
    22    31    32    1
    23    32    33    1
    24    33    34    1
    25    34    35    1
    26    35    36    1
    27    36    46    1
    28    46    47    1
    29    47    48   ar
    30    48    49   ar
    31    49    50   ar
    32    50    51   ar
    33    51    52    1
    34    52    53    1
    35    52    54    1
    36    36    38    1
    37    38    39   ar
    38    39    40   ar
    39    40    41   ar
    40    41    42    1
    41    41    43   ar
    42    43    44   ar
    43    44    45    1
    44    36    37    1
    45     4     5   ar
    46     5     6   ar
    47    10    11    1
    48    11    12    1
    49    16    17   ar
    50    17    18   ar
    51    23    24   ar
    52    24    25    2
    53    24    19   ar
    54    18    13   ar
    55    12     7    1
    56     6     1   ar
    57    37    33    1
    58    51    47   ar
    59    44    38   ar
    60    22    26    1
@<TRIPOS>MOLECULE
*****
 54 60 0 0 0
SMALL
GASTEIGER

@<TRIPOS>ATOM
      1 C          58.5714   83.7533   11.0807 C.ar    1  UNL1        0.0481
      2 C          58.2879   83.9790   12.4365 C.ar    1  UNL1        0.0176
      3 C          58.2174   82.9090   13.3318 C.ar    1  UNL1        0.0382
      4 C          58.4197   81.5931   12.8809 C.ar    1  UNL1        0.1388
      5 C          58.6363   81.3642   11.5174 C.ar    1  UNL1        0.0382
      6 C          58.7255   82.4358   10.6243 C.ar    1  UNL1        0.0176
      7 N          59.3801   86.9828    8.5047 N.pl3   1  UNL1       -0.3041
      8 C          59.6723   85.6232    8.0363 C.3     1  UNL1        0.1122
      9 C          58.7429   84.6223    8.7224 C.3     1  UNL1        0.1122
     10 N          58.7309   84.8569   10.1712 N.pl3   1  UNL1       -0.3041
     11 C          58.4512   86.2184   10.6441 C.3     1  UNL1        0.1122
     12 C          59.3759   87.2209    9.9526 C.3     1  UNL1        0.1122
     13 C          59.4736   90.2479    5.7730 C.ar    1  UNL1        0.0702
     14 C          58.3841   89.3637    5.7817 C.ar    1  UNL1        0.0190
     15 C          58.3499   88.2923    6.6785 C.ar    1  UNL1        0.0160
     16 C          59.4069   88.0866    7.5805 C.ar    1  UNL1        0.0480
     17 C          60.5011   88.9654    7.5638 C.ar    1  UNL1        0.0160
     18 C          60.5355   90.0355    6.6656 C.ar    1  UNL1        0.0190
     19 N          60.2501   92.9280    3.4629 N.ar    1  UNL1       -0.2020
     20 N          58.9353   93.0720    3.5405 N.ar    1  UNL1       -0.1411
     21 C          58.4982   92.1074    4.3782 C.ar    1  UNL1        0.1938
     22 S          56.7827   91.9527    4.8713 S.3     1  UNL1       -0.1031
     23 N          59.5155   91.3464    4.8460 N.ar    1  UNL1       -0.2376
     24 C          60.5947   91.8917    4.2539 C.ar    1  UNL1        0.3525
     25 O          61.7745   91.4743    4.4077 O.2     1  UNL1       -0.2444
     26 H          56.4919   91.1027    3.7881 H       1  UNL1        0.1101
     27 C          61.1170   93.7839    2.6445 C.3     1  UNL1        0.1099
     28 C          61.9231   92.9289    1.6572 C.3     1  UNL1        0.0265
     29 C          59.9968   94.5371    0.4728 C.3     1  UNL1        0.0021
     30 C          60.2792   94.8701    1.9379 C.3     1  UNL1        0.0245
     31 O          58.4114   80.4929   13.7500 O.3     1  UNL1       -0.4727
     32 C          59.5769   79.8153   14.2246 C.3     1  UNL1        0.2374
     33 C          60.8427   80.4431   13.6244 C.3     1  UNL1        0.1909
     34 C          62.0917   79.6960   13.9897 C.3     1  UNL1        0.1783
     35 O          63.0954   80.6582   14.0922 O.3     1  UNL1       -0.3267
     36 C          62.4510   81.9201   14.0408 C.3     1  UNL1        0.2296
     37 O          61.0515   81.7319   14.1074 O.3     1  UNL1       -0.3255
     38 C          62.8528   82.6365   12.7432 C.ar    1  UNL1        0.0409
     39 C          61.8987   83.4681   12.1155 C.ar    1  UNL1        0.0022
     40 C          62.1871   84.1215   10.9171 C.ar    1  UNL1        0.0113
     41 C          63.4299   83.9549   10.3109 C.ar    1  UNL1        0.0585
     42 CL         63.7858   84.7689    8.7987 Cl      1  UNL1       -0.0822
     43 C          64.3846   83.1262   10.8993 C.ar    1  UNL1        0.0226
     44 C          64.1095   82.4553   12.0980 C.ar    1  UNL1        0.0591
     45 CL         65.3731   81.3843   12.6967 Cl      1  UNL1       -0.0824
     46 C          62.9269   82.7280   15.2692 C.3     1  UNL1        0.1679
     47 N          63.5140   84.0215   14.9023 N.ar    1  UNL1       -0.3084
     48 C          64.7644   84.2037   14.4465 C.ar    1  UNL1        0.0979
     49 C          64.9366   85.5402   14.1740 C.ar    1  UNL1        0.1188
     50 N          63.7934   86.2031   14.4353 N.ar    1  UNL1       -0.2293
     51 C          62.9450   85.2521   14.8878 C.ar    1  UNL1        0.1201
     52 C          61.4921   85.5379   15.1885 C.3     1  UNL1        0.0569
     53 C          61.3506   86.4382   16.4214 C.3     1  UNL1        0.0079
     54 C          60.8238   86.1792   13.9703 C.3     1  UNL1        0.0079
@<TRIPOS>BOND
     1    29    30    1
     2    30    27    1
     3    27    28    1
     4    27    19    1
     5    19    20   ar
     6    20    21   ar
     7    21    22    1
     8    21    23   ar
     9    23    13    1
    10    13    14   ar
    11    14    15   ar
    12    15    16   ar
    13    16     7    1
    14     7     8    1
    15     8     9    1
    16     9    10    1
    17    10     1    1
    18     1     2   ar
    19     2     3   ar
    20     3     4   ar
    21     4    31    1
    22    31    32    1
    23    32    33    1
    24    33    34    1
    25    34    35    1
    26    35    36    1
    27    36    46    1
    28    46    47    1
    29    47    48   ar
    30    48    49   ar
    31    49    50   ar
    32    50    51   ar
    33    51    52    1
    34    52    53    1
    35    52    54    1
    36    36    38    1
    37    38    39   ar
    38    39    40   ar
    39    40    41   ar
    40    41    42    1
    41    41    43   ar
    42    43    44   ar
    43    44    45    1
    44    36    37    1
    45     4     5   ar
    46     5     6   ar
    47    10    11    1
    48    11    12    1
    49    16    17   ar
    50    17    18   ar
    51    23    24   ar
    52    24    25    2
    53    24    19   ar
    54    18    13   ar
    55    12     7    1
    56     6     1   ar
    57    37    33    1
    58    51    47   ar
    59    44    38   ar
    60    22    26    1
@<TRIPOS>MOLECULE
*****
 54 60 0 0 0
SMALL
GASTEIGER

@<TRIPOS>ATOM
      1 C          59.2635   87.4252   10.2570 C.ar    1  UNL1        0.0481
      2 C          59.6455   87.8946   11.5232 C.ar    1  UNL1        0.0176
      3 C          59.4924   87.0869   12.6526 C.ar    1  UNL1        0.0382
      4 C          58.9439   85.7982   12.5332 C.ar    1  UNL1        0.1388
      5 C          58.5024   85.3574   11.2806 C.ar    1  UNL1        0.0382
      6 C          58.6724   86.1577   10.1472 C.ar    1  UNL1        0.0176
      7 N          59.6515   89.9154    6.8855 N.pl3   1  UNL1       -0.3041
      8 C          60.0729   90.4345    8.1917 C.3     1  UNL1        0.1122
      9 C          60.5087   89.2825    9.0968 C.3     1  UNL1        0.1122
     10 N          59.4984   88.2179    9.0794 N.pl3   1  UNL1       -0.3041
     11 C          59.0647   87.7042    7.7742 C.3     1  UNL1        0.1122
     12 C          58.6355   88.8570    6.8660 C.3     1  UNL1        0.1122
     13 C          60.6426   92.0337    3.3270 C.ar    1  UNL1        0.0702
     14 C          61.5876   91.1953    3.9378 C.ar    1  UNL1        0.0190
     15 C          61.2644   90.4975    5.1047 C.ar    1  UNL1        0.0160
     16 C          59.9902   90.6286    5.6813 C.ar    1  UNL1        0.0480
     17 C          59.0492   91.4755    5.0755 C.ar    1  UNL1        0.0160
     18 C          59.3736   92.1745    3.9096 C.ar    1  UNL1        0.0190
     19 N          60.8267   93.7763    0.1565 N.ar    1  UNL1       -0.2020
     20 N          62.1017   93.8240    0.5136 N.ar    1  UNL1       -0.1411
     21 C          62.1817   93.2083    1.7126 C.ar    1  UNL1        0.1938
     22 S          63.7340   92.9420    2.5666 S.3     1  UNL1       -0.1031
     23 N          60.9748   92.7594    2.1309 N.ar    1  UNL1       -0.2376
     24 C          60.1538   93.1306    1.1305 C.ar    1  UNL1        0.3525
     25 O          58.9115   92.9155    1.1162 O.2     1  UNL1       -0.2444
     26 H          63.6377   94.1745    3.2390 H       1  UNL1        0.1101
     27 C          60.3087   94.3426   -1.0944 C.3     1  UNL1        0.1099
     28 C          61.4632   94.8920   -1.9434 C.3     1  UNL1        0.0265
     29 C          58.0232   93.7332   -2.0657 C.3     1  UNL1        0.0021
     30 C          59.4700   93.2897   -1.8487 C.3     1  UNL1        0.0245
     31 O          58.8197   84.9316   13.6284 O.3     1  UNL1       -0.4727
     32 C          59.7728   83.9310   13.9932 C.3     1  UNL1        0.2374
     33 C          60.8578   83.8065   12.9144 C.3     1  UNL1        0.1909
     34 C          61.9433   82.8411   13.2901 C.3     1  UNL1        0.1783
     35 O          63.1150   83.3477   12.7295 O.3     1  UNL1       -0.3267
     36 C          62.8083   84.6513   12.2638 C.3     1  UNL1        0.2296
     37 O          61.5183   85.0152   12.7130 O.3     1  UNL1       -0.3255
     38 C          62.8863   84.6678   10.7302 C.ar    1  UNL1        0.0409
     39 C          62.1826   85.6769   10.0357 C.ar    1  UNL1        0.0022
     40 C          62.1839   85.7295    8.6416 C.ar    1  UNL1        0.0113
     41 C          62.8792   84.7728    7.9060 C.ar    1  UNL1        0.0585
     42 CL         62.8701   84.8352    6.1532 Cl      1  UNL1       -0.0822
     43 C          63.5683   83.7554    8.5649 C.ar    1  UNL1        0.0226
     44 C          63.5709   83.6816    9.9638 C.ar    1  UNL1        0.0591
     45 CL         64.4187   82.3077   10.6680 Cl      1  UNL1       -0.0824
     46 C          63.8593   85.6116   12.8650 C.3     1  UNL1        0.1679
     47 N          63.2762   86.8838   13.3055 N.ar    1  UNL1       -0.3084
     48 C          63.1828   87.9945   12.5557 C.ar    1  UNL1        0.0979
     49 C          62.5455   88.9638   13.2934 C.ar    1  UNL1        0.1188
     50 N          62.2155   88.4656   14.5006 N.ar    1  UNL1       -0.2293
     51 C          62.6826   87.1965   14.4837 C.ar    1  UNL1        0.1201
     52 C          62.4206   86.2208   15.6073 C.3     1  UNL1        0.0569
     53 C          63.6247   86.1310   16.5520 C.3     1  UNL1        0.0079
     54 C          61.1613   86.6328   16.3728 C.3     1  UNL1        0.0079
@<TRIPOS>BOND
     1    29    30    1
     2    30    27    1
     3    27    28    1
     4    27    19    1
     5    19    20   ar
     6    20    21   ar
     7    21    22    1
     8    21    23   ar
     9    23    13    1
    10    13    14   ar
    11    14    15   ar
    12    15    16   ar
    13    16     7    1
    14     7     8    1
    15     8     9    1
    16     9    10    1
    17    10     1    1
    18     1     2   ar
    19     2     3   ar
    20     3     4   ar
    21     4    31    1
    22    31    32    1
    23    32    33    1
    24    33    34    1
    25    34    35    1
    26    35    36    1
    27    36    46    1
    28    46    47    1
    29    47    48   ar
    30    48    49   ar
    31    49    50   ar
    32    50    51   ar
    33    51    52    1
    34    52    53    1
    35    52    54    1
    36    36    38    1
    37    38    39   ar
    38    39    40   ar
    39    40    41   ar
    40    41    42    1
    41    41    43   ar
    42    43    44   ar
    43    44    45    1
    44    36    37    1
    45     4     5   ar
    46     5     6   ar
    47    10    11    1
    48    11    12    1
    49    16    17   ar
    50    17    18   ar
    51    23    24   ar
    52    24    25    2
    53    24    19   ar
    54    18    13   ar
    55    12     7    1
    56     6     1   ar
    57    37    33    1
    58    51    47   ar
    59    44    38   ar
    60    22    26    1
@<TRIPOS>MOLECULE
*****
 54 60 0 0 0
SMALL
GASTEIGER

@<TRIPOS>ATOM
      1 C          59.0539   87.3811    9.9613 C.ar    1  UNL1        0.0481
      2 C          59.2554   87.8529   11.2675 C.ar    1  UNL1        0.0176
      3 C          58.9957   87.0286   12.3650 C.ar    1  UNL1        0.0382
      4 C          58.5196   85.7202   12.1718 C.ar    1  UNL1        0.1388
      5 C          58.2563   85.2745   10.8716 C.ar    1  UNL1        0.0382
      6 C          58.5335   86.0921    9.7723 C.ar    1  UNL1        0.0176
      7 N          59.7770   89.9452    6.7022 N.pl3   1  UNL1       -0.3041
      8 C          60.1482   90.4002    8.0470 C.3     1  UNL1        0.1122
      9 C          60.4657   89.1987    8.9368 C.3     1  UNL1        0.1122
     10 N          59.4013   88.1942    8.8260 N.pl3   1  UNL1       -0.3041
     11 C          59.0181   87.7452    7.4818 C.3     1  UNL1        0.1122
     12 C          58.7073   88.9473    6.5892 C.3     1  UNL1        0.1122
     13 C          61.0921   92.1098    3.2791 C.ar    1  UNL1        0.0702
     14 C          61.9381   91.1728    3.8918 C.ar    1  UNL1        0.0190
     15 C          61.5083   90.4597    5.0143 C.ar    1  UNL1        0.0160
     16 C          60.2250   90.6738    5.5438 C.ar    1  UNL1        0.0480
     17 C          59.3836   91.6188    4.9366 C.ar    1  UNL1        0.0160
     18 C          59.8145   92.3329    3.8154 C.ar    1  UNL1        0.0190
     19 N          62.7816   94.0521    0.7305 N.ar    1  UNL1       -0.2020
     20 N          61.5927   93.9196    0.1609 N.ar    1  UNL1       -0.1411
     21 C          60.8444   93.1877    1.0138 C.ar    1  UNL1        0.1938
     22 S          59.1163   92.8181    0.7189 S.3     1  UNL1       -0.1031
     23 N          61.5344   92.8511    2.1291 N.ar    1  UNL1       -0.2376
     24 C          62.7398   93.4118    1.9165 C.ar    1  UNL1        0.3525
     25 O          63.7098   93.3325    2.7181 O.2     1  UNL1       -0.2444
     26 H          59.4320   91.6342    0.0266 H       1  UNL1        0.1101
     27 C          63.8994   94.7839    0.1233 C.3     1  UNL1        0.1099
     28 C          65.2310   94.1173    0.4947 C.3     1  UNL1        0.0265
     29 C          63.5474   93.5284   -2.0762 C.3     1  UNL1        0.0021
     30 C          63.6987   94.8925   -1.4028 C.3     1  UNL1        0.0245
     31 O          58.2953   84.8386   13.2387 O.3     1  UNL1       -0.4727
     32 C          59.2673   83.9393   13.7762 C.3     1  UNL1        0.2374
     33 C          60.4298   83.7559   12.7905 C.3     1  UNL1        0.1909
     34 C          61.3517   82.6380   13.1801 C.3     1  UNL1        0.1783
     35 O          62.6241   83.0318   12.7680 O.3     1  UNL1       -0.3267
     36 C          62.5206   84.3931   12.3853 C.3     1  UNL1        0.2296
     37 O          61.2451   84.8834   12.7475 O.3     1  UNL1       -0.3255
     38 C          62.7489   84.5076   10.8709 C.ar    1  UNL1        0.0409
     39 C          62.0604   85.5196   10.1655 C.ar    1  UNL1        0.0022
     40 C          62.1967   85.6575    8.7840 C.ar    1  UNL1        0.0113
     41 C          63.0153   84.7849    8.0711 C.ar    1  UNL1        0.0585
     42 CL         63.1761   84.9540    6.3327 Cl      1  UNL1       -0.0822
     43 C          63.6933   83.7660    8.7392 C.ar    1  UNL1        0.0226
     44 C          63.5617   83.6069   10.1248 C.ar    1  UNL1        0.0591
     45 CL         64.4134   82.2381   10.8342 Cl      1  UNL1       -0.0824
     46 C          63.6143   85.1693   13.1531 C.3     1  UNL1        0.1679
     47 N          63.0755   85.9399   14.2794 N.ar    1  UNL1       -0.3084
     48 C          62.5673   85.4136   15.4059 C.ar    1  UNL1        0.0979
     49 C          62.2026   86.4437   16.2401 C.ar    1  UNL1        0.1188
     50 N          62.4968   87.6211   15.6556 N.ar    1  UNL1       -0.2293
     51 C          63.0199   87.2832   14.4551 C.ar    1  UNL1        0.1201
     52 C          63.6047   88.3054   13.5084 C.3     1  UNL1        0.0569
     53 C          62.6153   88.6505   12.3893 C.3     1  UNL1        0.0079
     54 C          64.0069   89.5628   14.2823 C.3     1  UNL1        0.0079
@<TRIPOS>BOND
     1    29    30    1
     2    30    27    1
     3    27    28    1
     4    27    19    1
     5    19    20   ar
     6    20    21   ar
     7    21    22    1
     8    21    23   ar
     9    23    13    1
    10    13    14   ar
    11    14    15   ar
    12    15    16   ar
    13    16     7    1
    14     7     8    1
    15     8     9    1
    16     9    10    1
    17    10     1    1
    18     1     2   ar
    19     2     3   ar
    20     3     4   ar
    21     4    31    1
    22    31    32    1
    23    32    33    1
    24    33    34    1
    25    34    35    1
    26    35    36    1
    27    36    46    1
    28    46    47    1
    29    47    48   ar
    30    48    49   ar
    31    49    50   ar
    32    50    51   ar
    33    51    52    1
    34    52    53    1
    35    52    54    1
    36    36    38    1
    37    38    39   ar
    38    39    40   ar
    39    40    41   ar
    40    41    42    1
    41    41    43   ar
    42    43    44   ar
    43    44    45    1
    44    36    37    1
    45     4     5   ar
    46     5     6   ar
    47    10    11    1
    48    11    12    1
    49    16    17   ar
    50    17    18   ar
    51    23    24   ar
    52    24    25    2
    53    24    19   ar
    54    18    13   ar
    55    12     7    1
    56     6     1   ar
    57    37    33    1
    58    51    47   ar
    59    44    38   ar
    60    22    26    1
@<TRIPOS>MOLECULE
*****
 54 60 0 0 0
SMALL
GASTEIGER

@<TRIPOS>ATOM
      1 C          59.1218   87.1031    9.8821 C.ar    1  UNL1        0.0481
      2 C          59.6169   87.3728   11.1672 C.ar    1  UNL1        0.0176
      3 C          59.3752   86.4855   12.2188 C.ar    1  UNL1        0.0382
      4 C          58.6237   85.3175   12.0020 C.ar    1  UNL1        0.1388
      5 C          58.0750   85.0838   10.7361 C.ar    1  UNL1        0.0382
      6 C          58.3321   85.9616    9.6791 C.ar    1  UNL1        0.0176
      7 N          59.7587   89.8117    6.7235 N.pl3   1  UNL1       -0.3041
      8 C          60.1447   90.2151    8.0805 C.3     1  UNL1        0.1122
      9 C          60.4925   88.9820    8.9140 C.3     1  UNL1        0.1122
     10 N          59.4402   87.9679    8.7771 N.pl3   1  UNL1       -0.3041
     11 C          59.0421   87.5703    7.4210 C.3     1  UNL1        0.1122
     12 C          58.7010   88.8042    6.5847 C.3     1  UNL1        0.1122
     13 C          61.0101   92.1168    3.3690 C.ar    1  UNL1        0.0702
     14 C          59.7347   92.3073    3.9223 C.ar    1  UNL1        0.0190
     15 C          59.3222   91.5535    5.0244 C.ar    1  UNL1        0.0160
     16 C          60.1785   90.5945    5.5902 C.ar    1  UNL1        0.0480
     17 C          61.4499   90.3972    5.0294 C.ar    1  UNL1        0.0160
     18 C          61.8612   91.1500    3.9263 C.ar    1  UNL1        0.0190
     19 N          62.6750   94.0793    0.8196 N.ar    1  UNL1       -0.2020
     20 N          61.4528   94.0385    0.3095 N.ar    1  UNL1       -0.1411
     21 C          60.7086   93.3101    1.1689 C.ar    1  UNL1        0.1938
     22 S          58.9494   93.0496    0.9516 S.3     1  UNL1       -0.1031
     23 N          61.4344   92.8850    2.2299 N.ar    1  UNL1       -0.2376
     24 C          62.6574   93.3881    1.9773 C.ar    1  UNL1        0.3525
     25 O          63.6611   93.2189    2.7215 O.2     1  UNL1       -0.2444
     26 H          59.1610   91.8835    0.1928 H       1  UNL1        0.1101
     27 C          63.8002   94.7760    0.1854 C.3     1  UNL1        0.1099
     28 C          65.1187   94.0676    0.5243 C.3     1  UNL1        0.0265
     29 C          63.8420   93.5835   -2.0761 C.3     1  UNL1        0.0021
     30 C          63.5659   94.8920   -1.3354 C.3     1  UNL1        0.0245
     31 O          58.3999   84.3715   13.0124 O.3     1  UNL1       -0.4727
     32 C          58.7280   82.9834   12.9219 C.3     1  UNL1        0.2374
     33 C          59.4369   82.6865   11.5930 C.3     1  UNL1        0.1909
     34 C          59.5089   81.2191   11.2876 C.3     1  UNL1        0.1783
     35 O          60.7107   81.0299   10.6066 O.3     1  UNL1       -0.3267
     36 C          61.4303   82.2469   10.7130 C.3     1  UNL1        0.2296
     37 O          60.7644   83.1046   11.6181 O.3     1  UNL1       -0.3255
     38 C          61.5414   82.8878    9.3218 C.ar    1  UNL1        0.0409
     39 C          62.5754   83.8238    9.0974 C.ar    1  UNL1        0.0022
     40 C          62.7124   84.4677    7.8674 C.ar    1  UNL1        0.0113
     41 C          61.8170   84.2009    6.8344 C.ar    1  UNL1        0.0585
     42 CL         61.9852   85.0200    5.2927 Cl      1  UNL1       -0.0822
     43 C          60.7765   83.2943    7.0336 C.ar    1  UNL1        0.0226
     44 C          60.6182   82.6449    8.2647 C.ar    1  UNL1        0.0591
     45 CL         59.2226   81.5800    8.4078 Cl      1  UNL1       -0.0824
     46 C          62.8345   81.9026   11.2588 C.3     1  UNL1        0.1679
     47 N          62.8836   81.8899   12.7251 N.ar    1  UNL1       -0.3084
     48 C          62.5781   80.8374   13.5017 C.ar    1  UNL1        0.0979
     49 C          62.7813   81.1928   14.8141 C.ar    1  UNL1        0.1188
     50 N          63.2347   82.4600   14.8715 N.ar    1  UNL1       -0.2293
     51 C          63.2782   82.8641   13.5816 C.ar    1  UNL1        0.1201
     52 C          63.8502   84.2004   13.1692 C.3     1  UNL1        0.0569
     53 C          62.7765   85.2943   13.2029 C.3     1  UNL1        0.0079
     54 C          65.0256   84.5673   14.0778 C.3     1  UNL1        0.0079
@<TRIPOS>BOND
     1    29    30    1
     2    30    27    1
     3    27    28    1
     4    27    19    1
     5    19    20   ar
     6    20    21   ar
     7    21    22    1
     8    21    23   ar
     9    23    13    1
    10    13    14   ar
    11    14    15   ar
    12    15    16   ar
    13    16     7    1
    14     7     8    1
    15     8     9    1
    16     9    10    1
    17    10     1    1
    18     1     2   ar
    19     2     3   ar
    20     3     4   ar
    21     4    31    1
    22    31    32    1
    23    32    33    1
    24    33    34    1
    25    34    35    1
    26    35    36    1
    27    36    46    1
    28    46    47    1
    29    47    48   ar
    30    48    49   ar
    31    49    50   ar
    32    50    51   ar
    33    51    52    1
    34    52    53    1
    35    52    54    1
    36    36    38    1
    37    38    39   ar
    38    39    40   ar
    39    40    41   ar
    40    41    42    1
    41    41    43   ar
    42    43    44   ar
    43    44    45    1
    44    36    37    1
    45     4     5   ar
    46     5     6   ar
    47    10    11    1
    48    11    12    1
    49    16    17   ar
    50    17    18   ar
    51    23    24   ar
    52    24    25    2
    53    24    19   ar
    54    18    13   ar
    55    12     7    1
    56     6     1   ar
    57    37    33    1
    58    51    47   ar
    59    44    38   ar
    60    22    26    1
@<TRIPOS>MOLECULE
*****
 54 60 0 0 0
SMALL
GASTEIGER

@<TRIPOS>ATOM
      1 C          59.1119   87.2792    9.8289 C.ar    1  UNL1        0.0481
      2 C          58.3660   86.1071    9.6309 C.ar    1  UNL1        0.0176
      3 C          57.9632   85.3325   10.7214 C.ar    1  UNL1        0.0382
      4 C          58.3105   85.7144   12.0288 C.ar    1  UNL1        0.1388
      5 C          59.1104   86.8467   12.2197 C.ar    1  UNL1        0.0382
      6 C          59.4980   87.6325   11.1305 C.ar    1  UNL1        0.0176
      7 N          59.8373   89.9561    6.6624 N.pl3   1  UNL1       -0.3041
      8 C          60.2918   90.3238    8.0083 C.3     1  UNL1        0.1122
      9 C          60.5789   89.0647    8.8259 C.3     1  UNL1        0.1122
     10 N          59.4553   88.1265    8.7178 N.pl3   1  UNL1       -0.3041
     11 C          58.9891   87.7655    7.3733 C.3     1  UNL1        0.1122
     12 C          58.7087   89.0249    6.5527 C.3     1  UNL1        0.1122
     13 C          61.1423   92.1899    3.2802 C.ar    1  UNL1        0.0702
     14 C          59.8614   92.3979    3.8141 C.ar    1  UNL1        0.0190
     15 C          59.4313   91.6675    4.9253 C.ar    1  UNL1        0.0160
     16 C          60.2753   90.7149    5.5197 C.ar    1  UNL1        0.0480
     17 C          61.5523   90.5001    4.9784 C.ar    1  UNL1        0.0160
     18 C          61.9812   91.2294    3.8662 C.ar    1  UNL1        0.0190
     19 N          62.8438   94.1093    0.7222 N.ar    1  UNL1       -0.2020
     20 N          61.6362   94.0357    0.1820 N.ar    1  UNL1       -0.1411
     21 C          60.8807   93.3190    1.0415 C.ar    1  UNL1        0.1938
     22 S          59.1319   93.0252    0.7861 S.3     1  UNL1       -0.1031
     23 N          61.5848   92.9339    2.1320 N.ar    1  UNL1       -0.2376
     24 C          62.8063   93.4492    1.8974 C.ar    1  UNL1        0.3525
     25 O          63.7926   93.3158    2.6715 O.2     1  UNL1       -0.2444
     26 H          59.3808   91.8426    0.0650 H       1  UNL1        0.1101
     27 C          63.9746   94.8063    0.0985 C.3     1  UNL1        0.1099
     28 C          65.2933   94.1194    0.4788 C.3     1  UNL1        0.0265
     29 C          63.5703   93.5191   -2.0736 C.3     1  UNL1        0.0021
     30 C          63.7716   94.8905   -1.4289 C.3     1  UNL1        0.0245
     31 O          57.8849   84.9991   13.1571 O.3     1  UNL1       -0.4727
     32 C          58.4814   83.7912   13.6342 C.3     1  UNL1        0.2374
     33 C          58.7900   82.8477   12.4632 C.3     1  UNL1        0.1909
     34 C          59.4071   81.5537   12.9060 C.3     1  UNL1        0.1783
     35 O          60.2849   81.1818   11.8886 O.3     1  UNL1       -0.3267
     36 C          60.3804   82.2926   11.0126 C.3     1  UNL1        0.2296
     37 O          59.7251   83.4022   11.5937 O.3     1  UNL1       -0.3255
     38 C          59.7508   81.9222    9.6617 C.ar    1  UNL1        0.0409
     39 C          58.5543   82.5700    9.2815 C.ar    1  UNL1        0.0022
     40 C          57.9125   82.2563    8.0832 C.ar    1  UNL1        0.0113
     41 C          58.4427   81.2833    7.2394 C.ar    1  UNL1        0.0585
     42 CL         57.6276   80.8834    5.7387 Cl      1  UNL1       -0.0822
     43 C          59.6132   80.6157    7.5977 C.ar    1  UNL1        0.0226
     44 C          60.2666   80.9113    8.8011 C.ar    1  UNL1        0.0591
     45 CL         61.6936   79.9463    9.1680 Cl      1  UNL1       -0.0824
     46 C          61.8827   82.6088   10.8358 C.3     1  UNL1        0.1679
     47 N          62.1174   83.9466   10.2809 N.ar    1  UNL1       -0.3084
     48 C          61.9786   84.2847    8.9883 C.ar    1  UNL1        0.0979
     49 C          62.2450   85.6273    8.8599 C.ar    1  UNL1        0.1188
     50 N          62.5316   86.1464   10.0694 N.ar    1  UNL1       -0.2293
     51 C          62.4556   85.0952   10.9170 C.ar    1  UNL1        0.1201
     52 C          62.5884   85.2492   12.4142 C.3     1  UNL1        0.0569
     53 C          63.7829   84.4496   12.9473 C.3     1  UNL1        0.0079
     54 C          62.7232   86.7300   12.7761 C.3     1  UNL1        0.0079
@<TRIPOS>BOND
     1    29    30    1
     2    30    27    1
     3    27    28    1
     4    27    19    1
     5    19    20   ar
     6    20    21   ar
     7    21    22    1
     8    21    23   ar
     9    23    13    1
    10    13    14   ar
    11    14    15   ar
    12    15    16   ar
    13    16     7    1
    14     7     8    1
    15     8     9    1
    16     9    10    1
    17    10     1    1
    18     1     2   ar
    19     2     3   ar
    20     3     4   ar
    21     4    31    1
    22    31    32    1
    23    32    33    1
    24    33    34    1
    25    34    35    1
    26    35    36    1
    27    36    46    1
    28    46    47    1
    29    47    48   ar
    30    48    49   ar
    31    49    50   ar
    32    50    51   ar
    33    51    52    1
    34    52    53    1
    35    52    54    1
    36    36    38    1
    37    38    39   ar
    38    39    40   ar
    39    40    41   ar
    40    41    42    1
    41    41    43   ar
    42    43    44   ar
    43    44    45    1
    44    36    37    1
    45     4     5   ar
    46     5     6   ar
    47    10    11    1
    48    11    12    1
    49    16    17   ar
    50    17    18   ar
    51    23    24   ar
    52    24    25    2
    53    24    19   ar
    54    18    13   ar
    55    12     7    1
    56     6     1   ar
    57    37    33    1
    58    51    47   ar
    59    44    38   ar
    60    22    26    1
