@<TRIPOS>MOLECULE
*****
 38 42 0 0 0
SMALL
GASTEIGER

@<TRIPOS>ATOM
      1 C          -7.6615  -15.9404   25.1487 C.ar    1  UNL1        0.1300
      2 C          -6.4987  -16.3440   24.4492 C.ar    1  UNL1        0.0342
      3 C          -5.2300  -15.9007   24.8931 C.ar    1  UNL1        0.0758
      4 C          -5.1339  -15.0809   26.0262 C.ar    1  UNL1        0.2965
      5 N          -6.2778  -14.7306   26.6638 N.ar    1  UNL1       -0.1225
      6 C          -6.4565  -13.9690   27.7516 C.ar    1  UNL1        0.3137
      7 C          -7.8266  -13.9212   27.9931 C.ar    1  UNL1        0.1320
      8 N          -8.4847  -14.6505   27.0568 N.ar    1  UNL1       -0.2941
      9 C          -7.4980  -15.1227   26.2694 C.ar    1  UNL1        0.3121
     10 H          -9.4542  -14.7995   26.9725 H       1  UNL1        0.1718
     11 N         -11.5044  -17.1878   23.8275 N.3     1  UNL1       -0.2647
     12 C         -10.7405  -16.2027   23.0355 C.3     1  UNL1        0.0941
     13 C          -9.7873  -15.4192   23.9405 C.3     1  UNL1        0.1084
     14 N          -8.9677  -16.3475   24.7198 N.pl3   1  UNL1       -0.2989
     15 C          -9.6320  -17.4519   25.4115 C.3     1  UNL1        0.1084
     16 C         -10.5827  -18.1637   24.4486 C.3     1  UNL1        0.0941
     17 C         -12.4932  -17.8724   22.9706 C.3     1  UNL1        0.1200
     18 N         -10.6949  -19.1937   20.0655 N.ar    1  UNL1       -0.3128
     19 C         -11.2659  -18.0601   19.6087 C.ar    1  UNL1        0.1780
     20 N         -12.0062  -17.4327   20.5470 N.ar    1  UNL1       -0.2273
     21 C         -11.8881  -18.2135   21.6404 C.ar    1  UNL1        0.0885
     22 C         -11.0860  -19.3026   21.3514 C.ar    1  UNL1        0.0537
     23 C         -10.5992  -20.3355   22.3257 C.3     1  UNL1        0.0514
     24 C          -8.3572  -19.3976   19.3469 C.3     1  UNL1        0.0265
     25 C          -9.7441  -20.0296   19.3312 C.3     1  UNL1        0.1073
     26 C          -8.5123  -13.1982   29.0924 C.ar    1  UNL1        0.0218
     27 C          -9.8325  -13.5306   29.4310 C.ar    1  UNL1        0.0013
     28 C         -10.4972  -12.8627   30.4629 C.ar    1  UNL1       -0.0042
     29 C          -9.8595  -11.8345   31.1943 C.ar    1  UNL1       -0.0228
     30 C          -8.5312  -11.5097   30.8435 C.ar    1  UNL1       -0.0042
     31 C          -7.8691  -12.1789   29.8115 C.ar    1  UNL1        0.0013
     32 C         -10.5539  -11.0706   32.3409 C.3     1  UNL1        0.0189
     33 C         -10.8710   -9.6305   31.8823 C.3     1  UNL1        0.0044
     34 C         -11.8836  -11.7244   32.7882 C.3     1  UNL1        0.0044
     35 C          -9.6187  -11.0235   33.5688 C.3     1  UNL1        0.0044
     36 C          -6.6088  -17.2059   23.2202 C.3     1  UNL1        0.1704
     37 O          -6.9971  -16.3997   22.1283 O.3     1  UNL1       -0.3463
     38 C          -5.8745  -16.1343   21.3183 C.3     1  UNL1        0.1746
@<TRIPOS>BOND
     1    24    25    1
     2    25    18    1
     3    18    19   ar
     4    19    20   ar
     5    20    21   ar
     6    21    17    1
     7    17    11    1
     8    11    12    1
     9    12    13    1
    10    13    14    1
    11    14     1    1
    12     1     2   ar
    13     2    36    1
    14    36    37    1
    15    37    38    1
    16     2     3   ar
    17     3     4   ar
    18     4     5   ar
    19     5     6   ar
    20     6     7   ar
    21     7    26    1
    22    26    27   ar
    23    27    28   ar
    24    28    29   ar
    25    29    32    1
    26    32    33    1
    27    32    34    1
    28    32    35    1
    29    29    30   ar
    30    30    31   ar
    31     7     8   ar
    32     8     9   ar
    33    14    15    1
    34    15    16    1
    35    21    22   ar
    36    22    23    1
    37    22    18   ar
    38    16    11    1
    39     9     1   ar
    40     9     5   ar
    41    31    26   ar
    42     8    10    1
@<TRIPOS>MOLECULE
*****
 38 42 0 0 0
SMALL
GASTEIGER

@<TRIPOS>ATOM
      1 C          -8.2365  -16.8982   24.7110 C.ar    1  UNL1        0.1300
      2 C          -8.9433  -18.1049   24.4906 C.ar    1  UNL1        0.0342
      3 C          -9.7748  -18.6215   25.5127 C.ar    1  UNL1        0.0758
      4 C          -9.9033  -17.9294   26.7250 C.ar    1  UNL1        0.2965
      5 N          -9.2109  -16.7744   26.8811 N.ar    1  UNL1       -0.1225
      6 C          -9.1613  -15.9367   27.9257 C.ar    1  UNL1        0.3137
      7 C          -8.3001  -14.9009   27.5749 C.ar    1  UNL1        0.1320
      8 N          -7.8236  -15.1033   26.3205 N.ar    1  UNL1       -0.2941
      9 C          -8.4068  -16.2575   25.9406 C.ar    1  UNL1        0.3121
     10 H          -7.1991  -14.5400   25.8086 H       1  UNL1        0.1718
     11 N          -5.6597  -15.3384   21.7116 N.3     1  UNL1       -0.2647
     12 C          -5.1445  -16.3284   22.6790 C.3     1  UNL1        0.0941
     13 C          -5.9326  -16.2502   23.9883 C.3     1  UNL1        0.1084
     14 N          -7.3657  -16.3518   23.7116 N.pl3   1  UNL1       -0.2989
     15 C          -7.9323  -15.5151   22.6541 C.3     1  UNL1        0.1084
     16 C          -7.0747  -15.6290   21.3935 C.3     1  UNL1        0.0941
     17 C          -4.8346  -15.3471   20.4869 C.3     1  UNL1        0.1200
     18 N          -1.9842  -17.6279   20.7908 N.ar    1  UNL1       -0.3128
     19 C          -1.6156  -16.5466   21.5085 C.ar    1  UNL1        0.1780
     20 N          -2.5450  -15.5678   21.4937 N.ar    1  UNL1       -0.2273
     21 C          -3.5401  -16.0657   20.7313 C.ar    1  UNL1        0.0885
     22 C          -3.2010  -17.3321   20.2906 C.ar    1  UNL1        0.0537
     23 C          -4.0842  -18.2786   19.5310 C.3     1  UNL1        0.0514
     24 C           0.2015  -18.6418   20.3242 C.3     1  UNL1        0.0265
     25 C          -1.2516  -18.8923   20.7102 C.3     1  UNL1        0.1073
     26 C          -7.9275  -13.7317   28.4089 C.ar    1  UNL1        0.0218
     27 C          -8.9039  -13.0835   29.1799 C.ar    1  UNL1        0.0013
     28 C          -8.5750  -11.9807   29.9727 C.ar    1  UNL1       -0.0042
     29 C          -7.2510  -11.4873   30.0206 C.ar    1  UNL1       -0.0228
     30 C          -6.2781  -12.1485   29.2400 C.ar    1  UNL1       -0.0042
     31 C          -6.6096  -13.2506   28.4484 C.ar    1  UNL1        0.0013
     32 C          -6.8422  -10.2737   30.8812 C.3     1  UNL1        0.0189
     33 C          -5.4024  -10.4737   31.4025 C.3     1  UNL1        0.0044
     34 C          -6.8778   -8.9370   30.1016 C.3     1  UNL1        0.0044
     35 C          -7.8079  -10.1432   32.0791 C.3     1  UNL1        0.0044
     36 C          -8.7847  -18.8558   23.1959 C.3     1  UNL1        0.1704
     37 O          -9.8774  -19.7360   23.0398 O.3     1  UNL1       -0.3463
     38 C         -10.5680  -19.4206   21.8521 C.3     1  UNL1        0.1746
@<TRIPOS>BOND
     1    24    25    1
     2    25    18    1
     3    18    19   ar
     4    19    20   ar
     5    20    21   ar
     6    21    17    1
     7    17    11    1
     8    11    12    1
     9    12    13    1
    10    13    14    1
    11    14     1    1
    12     1     2   ar
    13     2    36    1
    14    36    37    1
    15    37    38    1
    16     2     3   ar
    17     3     4   ar
    18     4     5   ar
    19     5     6   ar
    20     6     7   ar
    21     7    26    1
    22    26    27   ar
    23    27    28   ar
    24    28    29   ar
    25    29    32    1
    26    32    33    1
    27    32    34    1
    28    32    35    1
    29    29    30   ar
    30    30    31   ar
    31     7     8   ar
    32     8     9   ar
    33    14    15    1
    34    15    16    1
    35    21    22   ar
    36    22    23    1
    37    22    18   ar
    38    16    11    1
    39     9     1   ar
    40     9     5   ar
    41    31    26   ar
    42     8    10    1
@<TRIPOS>MOLECULE
*****
 38 42 0 0 0
SMALL
GASTEIGER

@<TRIPOS>ATOM
      1 C          -7.3152  -10.3343   31.6008 C.ar    1  UNL1        0.1300
      2 C          -6.3589   -9.4185   32.1020 C.ar    1  UNL1        0.0342
      3 C          -5.0700   -9.3692   31.5194 C.ar    1  UNL1        0.0758
      4 C          -4.7564  -10.2136   30.4453 C.ar    1  UNL1        0.2965
      5 N          -5.7114  -11.0660   29.9989 N.ar    1  UNL1       -0.1225
      6 C          -5.6664  -11.9617   29.0035 C.ar    1  UNL1        0.3137
      7 C          -6.9122  -12.5811   28.9580 C.ar    1  UNL1        0.1320
      8 N          -7.7172  -12.0671   29.9221 N.ar    1  UNL1       -0.2941
      9 C          -6.9401  -11.1485   30.5296 C.ar    1  UNL1        0.3121
     10 H          -8.6490  -12.3083   30.1290 H       1  UNL1        0.1718
     11 N         -11.2097  -10.6847   33.2679 N.3     1  UNL1       -0.2647
     12 C         -11.0431  -10.1625   31.8965 C.3     1  UNL1        0.0941
     13 C          -9.6697   -9.5057   31.7424 C.3     1  UNL1        0.1084
     14 N          -8.6247  -10.4333   32.1764 N.pl3   1  UNL1       -0.2989
     15 C          -8.7888  -11.1176   33.4586 C.3     1  UNL1        0.1084
     16 C         -10.1910  -11.7212   33.5432 C.3     1  UNL1        0.0941
     17 C         -12.5715  -11.2285   33.4431 C.3     1  UNL1        0.1200
     18 N         -12.6926  -14.8197   32.7306 N.ar    1  UNL1       -0.3128
     19 C         -12.6594  -14.2454   31.5104 C.ar    1  UNL1        0.1780
     20 N         -12.6376  -12.8969   31.5678 N.ar    1  UNL1       -0.2273
     21 C         -12.6565  -12.6200   32.8878 C.ar    1  UNL1        0.0885
     22 C         -12.6949  -13.7984   33.6110 C.ar    1  UNL1        0.0537
     23 C         -12.5928  -13.9334   35.1024 C.3     1  UNL1        0.0514
     24 C         -12.8452  -17.0555   31.7301 C.3     1  UNL1        0.0265
     25 C         -12.6029  -16.2547   33.0042 C.3     1  UNL1        0.1073
     26 C          -7.3437  -13.6455   28.0188 C.ar    1  UNL1        0.0218
     27 C          -6.4482  -14.1320   27.0546 C.ar    1  UNL1        0.0013
     28 C          -6.8335  -15.1343   26.1603 C.ar    1  UNL1       -0.0042
     29 C          -8.1345  -15.6861   26.2013 C.ar    1  UNL1       -0.0228
     30 C          -9.0257  -15.1877   27.1761 C.ar    1  UNL1       -0.0042
     31 C          -8.6380  -14.1858   28.0688 C.ar    1  UNL1        0.0013
     32 C          -8.6033  -16.7934   25.2346 C.3     1  UNL1        0.0189
     33 C          -9.1644  -17.9816   26.0459 C.3     1  UNL1        0.0044
     34 C          -9.7128  -16.3222   24.2637 C.3     1  UNL1        0.0044
     35 C          -7.4080  -17.2732   24.3827 C.3     1  UNL1        0.0044
     36 C          -6.6931   -8.5297   33.2697 C.3     1  UNL1        0.1704
     37 O          -6.1942   -7.2335   33.0167 O.3     1  UNL1       -0.3463
     38 C          -7.2492   -6.3982   32.5972 C.3     1  UNL1        0.1746
@<TRIPOS>BOND
     1    24    25    1
     2    25    18    1
     3    18    19   ar
     4    19    20   ar
     5    20    21   ar
     6    21    17    1
     7    17    11    1
     8    11    12    1
     9    12    13    1
    10    13    14    1
    11    14     1    1
    12     1     2   ar
    13     2    36    1
    14    36    37    1
    15    37    38    1
    16     2     3   ar
    17     3     4   ar
    18     4     5   ar
    19     5     6   ar
    20     6     7   ar
    21     7    26    1
    22    26    27   ar
    23    27    28   ar
    24    28    29   ar
    25    29    32    1
    26    32    33    1
    27    32    34    1
    28    32    35    1
    29    29    30   ar
    30    30    31   ar
    31     7     8   ar
    32     8     9   ar
    33    14    15    1
    34    15    16    1
    35    21    22   ar
    36    22    23    1
    37    22    18   ar
    38    16    11    1
    39     9     1   ar
    40     9     5   ar
    41    31    26   ar
    42     8    10    1
@<TRIPOS>MOLECULE
*****
 38 42 0 0 0
SMALL
GASTEIGER

@<TRIPOS>ATOM
      1 C          -7.3391  -11.4382   30.1509 C.ar    1  UNL1        0.1300
      2 C          -6.2497  -10.6104   30.5148 C.ar    1  UNL1        0.0342
      3 C          -5.0010  -10.7794   29.8705 C.ar    1  UNL1        0.0758
      4 C          -4.8571  -11.7511   28.8704 C.ar    1  UNL1        0.2965
      5 N          -5.9342  -12.5114   28.5545 N.ar    1  UNL1       -0.1225
      6 C          -6.0581  -13.4924   27.6503 C.ar    1  UNL1        0.3137
      7 C          -7.3711  -13.9490   27.7240 C.ar    1  UNL1        0.1320
      8 N          -8.0488  -13.2507   28.6700 N.ar    1  UNL1       -0.2941
      9 C          -7.1304  -12.3876   29.1478 C.ar    1  UNL1        0.3121
     10 H          -8.9894  -13.3510   28.9428 H       1  UNL1        0.1718
     11 N         -11.0949  -11.1096   32.1143 N.3     1  UNL1       -0.2647
     12 C         -10.6732  -12.4077   31.5501 C.3     1  UNL1        0.0941
     13 C          -9.7124  -12.1901   30.3792 C.3     1  UNL1        0.1084
     14 N          -8.6147  -11.3162   30.7941 N.pl3   1  UNL1       -0.2989
     15 C          -8.9389  -10.0788   31.5034 C.3     1  UNL1        0.1084
     16 C          -9.9203  -10.3781   32.6368 C.3     1  UNL1        0.0941
     17 C         -12.0978  -11.3191   33.1778 C.3     1  UNL1        0.1200
     18 N         -13.4850  -14.7061   33.0259 N.ar    1  UNL1       -0.3128
     19 C         -14.1664  -14.0310   32.0774 C.ar    1  UNL1        0.1780
     20 N         -13.8057  -12.7325   31.9990 N.ar    1  UNL1       -0.2273
     21 C         -12.8527  -12.5947   32.9435 C.ar    1  UNL1        0.0885
     22 C         -12.6522  -13.8041   33.5838 C.ar    1  UNL1        0.0537
     23 C         -11.5917  -14.1099   34.6010 C.3     1  UNL1        0.0514
     24 C         -12.8287  -16.9142   32.1795 C.3     1  UNL1        0.0265
     25 C         -13.5617  -16.1466   33.2734 C.3     1  UNL1        0.1073
     26 C          -7.9844  -15.0304   26.9143 C.ar    1  UNL1        0.0218
     27 C          -8.4154  -16.2113   27.5372 C.ar    1  UNL1        0.0013
     28 C          -8.9960  -17.2425   26.7940 C.ar    1  UNL1       -0.0042
     29 C          -9.1656  -17.1256   25.3952 C.ar    1  UNL1       -0.0228
     30 C          -8.7278  -15.9324   24.7809 C.ar    1  UNL1       -0.0042
     31 C          -8.1477  -14.9033   25.5262 C.ar    1  UNL1        0.0013
     32 C          -9.8013  -18.2376   24.5350 C.3     1  UNL1        0.0189
     33 C          -8.8343  -18.6219   23.3939 C.3     1  UNL1        0.0044
     34 C         -10.1138  -19.5230   25.3385 C.3     1  UNL1        0.0044
     35 C         -11.1283  -17.7273   23.9324 C.3     1  UNL1        0.0044
     36 C          -6.4031   -9.5837   31.6046 C.3     1  UNL1        0.1704
     37 O          -5.2511   -8.7681   31.6314 O.3     1  UNL1       -0.3463
     38 C          -5.4054   -7.7702   32.6149 C.3     1  UNL1        0.1746
@<TRIPOS>BOND
     1    24    25    1
     2    25    18    1
     3    18    19   ar
     4    19    20   ar
     5    20    21   ar
     6    21    17    1
     7    17    11    1
     8    11    12    1
     9    12    13    1
    10    13    14    1
    11    14     1    1
    12     1     2   ar
    13     2    36    1
    14    36    37    1
    15    37    38    1
    16     2     3   ar
    17     3     4   ar
    18     4     5   ar
    19     5     6   ar
    20     6     7   ar
    21     7    26    1
    22    26    27   ar
    23    27    28   ar
    24    28    29   ar
    25    29    32    1
    26    32    33    1
    27    32    34    1
    28    32    35    1
    29    29    30   ar
    30    30    31   ar
    31     7     8   ar
    32     8     9   ar
    33    14    15    1
    34    15    16    1
    35    21    22   ar
    36    22    23    1
    37    22    18   ar
    38    16    11    1
    39     9     1   ar
    40     9     5   ar
    41    31    26   ar
    42     8    10    1
@<TRIPOS>MOLECULE
*****
 38 42 0 0 0
SMALL
GASTEIGER

@<TRIPOS>ATOM
      1 C          -9.6293   -7.2030   30.7882 C.ar    1  UNL1        0.1300
      2 C          -9.9495   -5.8439   30.5538 C.ar    1  UNL1        0.0342
      3 C         -11.2840   -5.4038   30.7224 C.ar    1  UNL1        0.0758
      4 C         -12.2716   -6.3101   31.1330 C.ar    1  UNL1        0.2965
      5 N         -11.9097   -7.5982   31.3516 N.ar    1  UNL1       -0.1225
      6 C         -12.6501   -8.6441   31.7430 C.ar    1  UNL1        0.3137
      7 C         -11.7966   -9.7414   31.8150 C.ar    1  UNL1        0.1320
      8 N         -10.5383   -9.3693   31.4688 N.ar    1  UNL1       -0.2941
      9 C         -10.6588   -8.0552   31.1945 C.ar    1  UNL1        0.3121
     10 H          -9.7284   -9.9275   31.4276 H       1  UNL1        0.1718
     11 N          -5.6994   -8.7293   30.2451 N.3     1  UNL1       -0.2647
     12 C          -6.3891   -8.9220   31.5367 C.3     1  UNL1        0.0941
     13 C          -7.4081   -7.8036   31.7657 C.3     1  UNL1        0.1084
     14 N          -8.2951   -7.6958   30.6071 N.pl3   1  UNL1       -0.2989
     15 C          -7.6972   -7.6580   29.2728 C.3     1  UNL1        0.1084
     16 C          -6.6755   -8.7870   29.1353 C.3     1  UNL1        0.0941
     17 C          -4.6481   -9.7520   30.0724 C.3     1  UNL1        0.1200
     18 N          -6.2441  -12.6323   28.4675 N.ar    1  UNL1       -0.3128
     19 C          -5.2581  -12.2873   27.6139 C.ar    1  UNL1        0.1780
     20 N          -4.5606  -11.2088   28.0293 N.ar    1  UNL1       -0.2273
     21 C          -5.1403  -10.8682   29.1986 C.ar    1  UNL1        0.0885
     22 C          -6.1809  -11.7369   29.4737 C.ar    1  UNL1        0.0537
     23 C          -6.9925  -11.7853   30.7354 C.3     1  UNL1        0.0514
     24 C          -6.5771  -14.7456   27.2651 C.3     1  UNL1        0.0265
     25 C          -7.0937  -13.8191   28.3596 C.3     1  UNL1        0.1073
     26 C         -12.1580  -11.1264   32.2052 C.ar    1  UNL1        0.0218
     27 C         -13.2686  -11.7508   31.6180 C.ar    1  UNL1        0.0013
     28 C         -13.6268  -13.0547   31.9706 C.ar    1  UNL1       -0.0042
     29 C         -12.8815  -13.7812   32.9275 C.ar    1  UNL1       -0.0228
     30 C         -11.7664  -13.1414   33.5107 C.ar    1  UNL1       -0.0042
     31 C         -11.4106  -11.8379   33.1565 C.ar    1  UNL1        0.0013
     32 C         -13.2397  -15.2221   33.3470 C.3     1  UNL1        0.0189
     33 C         -12.8437  -15.4420   34.8234 C.3     1  UNL1        0.0044
     34 C         -14.7496  -15.5355   33.2143 C.3     1  UNL1        0.0044
     35 C         -12.4731  -16.2235   32.4559 C.3     1  UNL1        0.0044
     36 C          -8.8902   -4.8797   30.0918 C.3     1  UNL1        0.1704
     37 O          -7.8707   -4.8174   31.0663 O.3     1  UNL1       -0.3463
     38 C          -6.6163   -4.7356   30.4286 C.3     1  UNL1        0.1746
@<TRIPOS>BOND
     1    24    25    1
     2    25    18    1
     3    18    19   ar
     4    19    20   ar
     5    20    21   ar
     6    21    17    1
     7    17    11    1
     8    11    12    1
     9    12    13    1
    10    13    14    1
    11    14     1    1
    12     1     2   ar
    13     2    36    1
    14    36    37    1
    15    37    38    1
    16     2     3   ar
    17     3     4   ar
    18     4     5   ar
    19     5     6   ar
    20     6     7   ar
    21     7    26    1
    22    26    27   ar
    23    27    28   ar
    24    28    29   ar
    25    29    32    1
    26    32    33    1
    27    32    34    1
    28    32    35    1
    29    29    30   ar
    30    30    31   ar
    31     7     8   ar
    32     8     9   ar
    33    14    15    1
    34    15    16    1
    35    21    22   ar
    36    22    23    1
    37    22    18   ar
    38    16    11    1
    39     9     1   ar
    40     9     5   ar
    41    31    26   ar
    42     8    10    1
@<TRIPOS>MOLECULE
*****
 38 42 0 0 0
SMALL
GASTEIGER

@<TRIPOS>ATOM
      1 C         -10.1114  -11.8481   30.4319 C.ar    1  UNL1        0.1300
      2 C         -10.9891  -12.0432   31.5254 C.ar    1  UNL1        0.0342
      3 C         -11.4654  -13.3446   31.8125 C.ar    1  UNL1        0.0758
      4 C         -11.0541  -14.4284   31.0242 C.ar    1  UNL1        0.2965
      5 N         -10.2062  -14.1876   29.9942 N.ar    1  UNL1       -0.1225
      6 C          -9.6719  -15.0355   29.1050 C.ar    1  UNL1        0.3137
      7 C          -8.8695  -14.2798   28.2548 C.ar    1  UNL1        0.1320
      8 N          -8.9123  -12.9739   28.6216 N.ar    1  UNL1       -0.2941
      9 C          -9.7402  -12.9688   29.6852 C.ar    1  UNL1        0.3121
     10 H          -8.4482  -12.2104   28.2083 H       1  UNL1        0.1718
     11 N          -8.6762   -7.9593   29.4903 N.3     1  UNL1       -0.2647
     12 C         -10.1272   -8.1885   29.6437 C.3     1  UNL1        0.0941
     13 C         -10.4724   -9.6420   29.3126 C.3     1  UNL1        0.1084
     14 N          -9.6234  -10.5435   30.0919 N.pl3   1  UNL1       -0.2989
     15 C          -8.1828  -10.2921   30.1219 C.3     1  UNL1        0.1084
     16 C          -7.9248   -8.8174   30.4320 C.3     1  UNL1        0.0941
     17 C          -8.3602   -6.5341   29.7132 C.3     1  UNL1        0.1200
     18 N          -5.8046   -6.3562   32.3317 N.ar    1  UNL1       -0.3128
     19 C          -6.9600   -6.1180   32.9859 C.ar    1  UNL1        0.1780
     20 N          -8.0336   -6.1174   32.1676 N.ar    1  UNL1       -0.2273
     21 C          -7.5204   -6.3693   30.9459 C.ar    1  UNL1        0.0885
     22 C          -6.1479   -6.5132   31.0372 C.ar    1  UNL1        0.0537
     23 C          -5.2193   -6.9296   29.9339 C.3     1  UNL1        0.0514
     24 C          -4.3883   -7.9193   33.5861 C.3     1  UNL1        0.0265
     25 C          -4.4912   -6.5373   32.9517 C.3     1  UNL1        0.1073
     26 C          -8.0697  -14.7781   27.1088 C.ar    1  UNL1        0.0218
     27 C          -6.6723  -14.8505   27.2105 C.ar    1  UNL1        0.0013
     28 C          -5.8997  -15.3169   26.1437 C.ar    1  UNL1       -0.0042
     29 C          -6.5028  -15.7286   24.9330 C.ar    1  UNL1       -0.0228
     30 C          -7.9095  -15.6507   24.8437 C.ar    1  UNL1       -0.0042
     31 C          -8.6795  -15.1841   25.9117 C.ar    1  UNL1        0.0013
     32 C          -5.6900  -16.2502   23.7298 C.3     1  UNL1        0.0189
     33 C          -5.1256  -15.0542   22.9324 C.3     1  UNL1        0.0044
     34 C          -4.4958  -17.1432   24.1449 C.3     1  UNL1        0.0044
     35 C          -6.6070  -17.0901   22.8141 C.3     1  UNL1        0.0044
     36 C         -11.4452  -10.8731   32.3551 C.3     1  UNL1        0.1704
     37 O         -10.3124  -10.2136   32.8792 O.3     1  UNL1       -0.3463
     38 C          -9.6751  -11.0499   33.8180 C.3     1  UNL1        0.1746
@<TRIPOS>BOND
     1    24    25    1
     2    25    18    1
     3    18    19   ar
     4    19    20   ar
     5    20    21   ar
     6    21    17    1
     7    17    11    1
     8    11    12    1
     9    12    13    1
    10    13    14    1
    11    14     1    1
    12     1     2   ar
    13     2    36    1
    14    36    37    1
    15    37    38    1
    16     2     3   ar
    17     3     4   ar
    18     4     5   ar
    19     5     6   ar
    20     6     7   ar
    21     7    26    1
    22    26    27   ar
    23    27    28   ar
    24    28    29   ar
    25    29    32    1
    26    32    33    1
    27    32    34    1
    28    32    35    1
    29    29    30   ar
    30    30    31   ar
    31     7     8   ar
    32     8     9   ar
    33    14    15    1
    34    15    16    1
    35    21    22   ar
    36    22    23    1
    37    22    18   ar
    38    16    11    1
    39     9     1   ar
    40     9     5   ar
    41    31    26   ar
    42     8    10    1
@<TRIPOS>MOLECULE
*****
 38 42 0 0 0
SMALL
GASTEIGER

@<TRIPOS>ATOM
      1 C         -10.2447   -7.0298   30.7464 C.ar    1  UNL1        0.1300
      2 C         -10.6175   -5.6656   30.8128 C.ar    1  UNL1        0.0342
      3 C         -11.8438   -5.3077   31.4221 C.ar    1  UNL1        0.0758
      4 C         -12.6693   -6.3014   31.9663 C.ar    1  UNL1        0.2965
      5 N         -12.2611   -7.5915   31.8832 N.ar    1  UNL1       -0.1225
      6 C         -12.8560   -8.7107   32.3177 C.ar    1  UNL1        0.3137
      7 C         -12.0202   -9.7717   31.9809 C.ar    1  UNL1        0.1320
      8 N         -10.9177   -9.3044   31.3423 N.ar    1  UNL1       -0.2941
      9 C         -11.1115   -7.9711   31.3065 C.ar    1  UNL1        0.3121
     10 H         -10.1561   -9.8182   30.9886 H       1  UNL1        0.1718
     11 N          -6.5990   -8.2667   28.9442 N.3     1  UNL1       -0.2647
     12 C          -6.6179   -7.0775   29.8197 C.3     1  UNL1        0.0941
     13 C          -8.0055   -6.4326   29.8083 C.3     1  UNL1        0.1084
     14 N          -9.0225   -7.4381   30.1178 N.pl3   1  UNL1       -0.2989
     15 C          -8.9807   -8.7141   29.4041 C.3     1  UNL1        0.1084
     16 C          -7.5595   -9.2766   29.4395 C.3     1  UNL1        0.0941
     17 C          -5.2348   -8.8284   28.8788 C.3     1  UNL1        0.1200
     18 N          -4.7315  -11.1658   31.6542 N.ar    1  UNL1       -0.3128
     19 C          -4.8868  -11.9645   30.5782 C.ar    1  UNL1        0.1780
     20 N          -5.1129  -11.2723   29.4415 N.ar    1  UNL1       -0.2273
     21 C          -5.0955   -9.9808   29.8299 C.ar    1  UNL1        0.0885
     22 C          -4.8658   -9.9062   31.1917 C.ar    1  UNL1        0.0537
     23 C          -4.6419   -8.6560   31.9915 C.3     1  UNL1        0.0514
     24 C          -2.8755  -11.9540   33.0530 C.3     1  UNL1        0.0265
     25 C          -4.3582  -11.6046   32.9995 C.3     1  UNL1        0.1073
     26 C         -12.2536  -11.2109   32.2557 C.ar    1  UNL1        0.0218
     27 C         -13.3341  -11.8716   31.6521 C.ar    1  UNL1        0.0013
     28 C         -13.5722  -13.2267   31.8967 C.ar    1  UNL1       -0.0042
     29 C         -12.7326  -13.9697   32.7580 C.ar    1  UNL1       -0.0228
     30 C         -11.6491  -13.2931   33.3589 C.ar    1  UNL1       -0.0042
     31 C         -11.4134  -11.9385   33.1127 C.ar    1  UNL1        0.0013
     32 C         -12.9571  -15.4667   33.0568 C.3     1  UNL1        0.0189
     33 C         -14.4716  -15.7491   33.1626 C.3     1  UNL1        0.0044
     34 C         -12.3813  -16.3973   31.9623 C.3     1  UNL1        0.0044
     35 C         -12.2726  -15.8336   34.3915 C.3     1  UNL1        0.0044
     36 C          -9.7384   -4.6046   30.2073 C.3     1  UNL1        0.1704
     37 O         -10.2138   -4.2986   28.9137 O.3     1  UNL1       -0.3463
     38 C         -10.6774   -2.9677   28.8868 C.3     1  UNL1        0.1746
@<TRIPOS>BOND
     1    24    25    1
     2    25    18    1
     3    18    19   ar
     4    19    20   ar
     5    20    21   ar
     6    21    17    1
     7    17    11    1
     8    11    12    1
     9    12    13    1
    10    13    14    1
    11    14     1    1
    12     1     2   ar
    13     2    36    1
    14    36    37    1
    15    37    38    1
    16     2     3   ar
    17     3     4   ar
    18     4     5   ar
    19     5     6   ar
    20     6     7   ar
    21     7    26    1
    22    26    27   ar
    23    27    28   ar
    24    28    29   ar
    25    29    32    1
    26    32    33    1
    27    32    34    1
    28    32    35    1
    29    29    30   ar
    30    30    31   ar
    31     7     8   ar
    32     8     9   ar
    33    14    15    1
    34    15    16    1
    35    21    22   ar
    36    22    23    1
    37    22    18   ar
    38    16    11    1
    39     9     1   ar
    40     9     5   ar
    41    31    26   ar
    42     8    10    1
