@<TRIPOS>MOLECULE
*****
 47 52 0 0 0
SMALL
GASTEIGER

@<TRIPOS>ATOM
      1 C         -64.5483  -53.1616  -23.4972 C.ar    1  UNL1        0.0702
      2 C         -64.0545  -54.0919  -22.5688 C.ar    1  UNL1        0.0191
      3 C         -64.9331  -54.9336  -21.8852 C.ar    1  UNL1        0.0356
      4 C         -66.3114  -54.8405  -22.1283 C.ar    1  UNL1        0.1318
      5 N         -66.7706  -53.9087  -23.0094 N.ar    1  UNL1       -0.2279
      6 C         -65.9340  -53.0780  -23.6859 C.ar    1  UNL1        0.1149
      7 N         -67.2431  -55.6859  -21.4285 N.pl3   1  UNL1       -0.2932
      8 C         -67.0424  -55.9931  -20.0054 C.3     1  UNL1        0.0923
      9 C         -68.3926  -56.0710  -19.2889 C.3     1  UNL1        0.0252
     10 C         -69.3289  -57.0605  -20.0070 C.3     1  UNL1        0.0472
     11 C         -69.5097  -56.6484  -21.4810 C.3     1  UNL1        0.0252
     12 C         -68.1555  -56.5471  -22.1916 C.3     1  UNL1        0.0923
     13 C         -70.6891  -57.2084  -19.2951 C.3     1  UNL1        0.2054
     14 O         -71.4808  -56.0203  -19.3902 O.3     1  UNL1       -0.4755
     15 C         -71.9242  -55.2172  -18.3254 C.ar    1  UNL1        0.1388
     16 C         -71.8792  -55.7625  -17.0379 C.ar    1  UNL1        0.0369
     17 C         -72.3092  -55.0214  -15.9365 C.ar    1  UNL1        0.0033
     18 C         -72.7884  -53.7219  -16.1091 C.ar    1  UNL1        0.0066
     19 C         -72.8383  -53.1478  -17.3911 C.ar    1  UNL1        0.0785
     20 C         -72.3990  -53.9001  -18.4961 C.ar    1  UNL1        0.0433
     21 C         -73.3474  -51.7705  -17.5790 C.2     1  UNL1        0.3381
     22 O         -74.0746  -51.4881  -18.5697 O.2     1  UNL1       -0.2451
     23 O         -73.0267  -50.7716  -16.6633 O.3     1  UNL1       -0.4771
     24 H         -73.3693  -49.8258  -16.7834 H       1  UNL1        0.2954
     25 C         -63.1359  -51.0614  -23.6261 C.2     1  UNL1        0.2839
     26 O         -62.9911  -50.9718  -22.3773 O.2     1  UNL1       -0.2665
     27 N         -63.6772  -52.2600  -24.2014 N.am    1  UNL1       -0.2766
     28 H         -63.3318  -52.5462  -25.1447 H       1  UNL1        0.1553
     29 C         -61.3951  -46.6693  -27.3418 C.ar    1  UNL1        0.0002
     30 C         -60.5834  -46.3772  -26.2123 C.ar    1  UNL1        0.0031
     31 C         -60.6528  -47.1669  -25.0511 C.ar    1  UNL1        0.0375
     32 C         -61.5383  -48.2390  -25.0429 C.ar    1  UNL1        0.1452
     33 O         -61.7506  -49.0897  -24.0687 O.2     1  UNL1       -0.4492
     34 C         -62.6641  -49.9536  -24.4755 C.ar    1  UNL1        0.1946
     35 C         -63.0823  -49.6324  -25.7731 C.ar    1  UNL1        0.0202
     36 C         -64.1182  -50.3138  -26.6154 C.3     1  UNL1        0.0345
     37 C         -62.3266  -48.5310  -26.1225 C.ar    1  UNL1        0.0337
     38 C         -62.2839  -47.7701  -27.2910 C.ar    1  UNL1        0.0028
     39 C         -61.1550  -44.2259  -30.8914 C.ar    1  UNL1        0.0347
     40 C         -59.9876  -44.6593  -30.2368 C.ar    1  UNL1        0.0028
     41 C         -60.0654  -45.4512  -29.0879 C.ar    1  UNL1        0.0001
     42 C         -61.3124  -45.8291  -28.5634 C.ar    1  UNL1        0.0000
     43 C         -62.4803  -45.3975  -29.2144 C.ar    1  UNL1        0.0001
     44 C         -62.4036  -44.6064  -30.3641 C.ar    1  UNL1        0.0028
     45 C         -60.1083  -43.7144  -33.2290 C.3     1  UNL1        0.0773
     46 C         -61.0547  -43.3836  -32.1139 C.2     1  UNL1        0.1735
     47 O         -61.7805  -42.3585  -32.2290 O.2     1  UNL1       -0.2913
@<TRIPOS>BOND
     1    45    46    1
     2    46    47    2
     3    46    39    1
     4    39    40   ar
     5    40    41   ar
     6    41    42   ar
     7    42    29    1
     8    29    30   ar
     9    30    31   ar
    10    31    32   ar
    11    32    33   ar
    12    33    34   ar
    13    34    25    1
    14    25    26    2
    15    25    27   am
    16    27     1    1
    17     1     2   ar
    18     2     3   ar
    19     3     4   ar
    20     4     7    1
    21     7     8    1
    22     8     9    1
    23     9    10    1
    24    10    13    1
    25    13    14    1
    26    14    15    1
    27    15    16   ar
    28    16    17   ar
    29    17    18   ar
    30    18    19   ar
    31    19    21    1
    32    21    22    2
    33    21    23    1
    34    19    20   ar
    35    10    11    1
    36    11    12    1
    37     4     5   ar
    38     5     6   ar
    39    34    35   ar
    40    35    36    1
    41    35    37   ar
    42    37    38   ar
    43    42    43   ar
    44    43    44   ar
    45    44    39   ar
    46    38    29   ar
    47    37    32   ar
    48     6     1   ar
    49    12     7    1
    50    20    15   ar
    51    27    28    1
    52    23    24    1
@<TRIPOS>MOLECULE
*****
 47 52 0 0 0
SMALL
GASTEIGER

@<TRIPOS>ATOM
      1 C         -64.9091  -53.0640  -23.4225 C.ar    1  UNL1        0.0702
      2 C         -64.4570  -54.1975  -22.7283 C.ar    1  UNL1        0.0191
      3 C         -65.3728  -55.0654  -22.1320 C.ar    1  UNL1        0.0356
      4 C         -66.7460  -54.7953  -22.2269 C.ar    1  UNL1        0.1318
      5 N         -67.1602  -53.6727  -22.8778 N.ar    1  UNL1       -0.2279
      6 C         -66.2867  -52.8128  -23.4653 C.ar    1  UNL1        0.1149
      7 N         -67.7137  -55.6649  -21.6105 N.pl3   1  UNL1       -0.2932
      8 C         -67.4948  -56.1720  -20.2486 C.3     1  UNL1        0.0923
      9 C         -68.8266  -56.2578  -19.4993 C.3     1  UNL1        0.0252
     10 C         -69.8485  -57.0799  -20.3063 C.3     1  UNL1        0.0472
     11 C         -70.0417  -56.4635  -21.7055 C.3     1  UNL1        0.0252
     12 C         -68.7042  -56.3555  -22.4462 C.3     1  UNL1        0.0923
     13 C         -71.1952  -57.2337  -19.5703 C.3     1  UNL1        0.2054
     14 O         -71.9440  -56.0145  -19.5534 O.3     1  UNL1       -0.4755
     15 C         -72.1295  -55.1562  -18.4560 C.ar    1  UNL1        0.1388
     16 C         -71.7578  -55.6277  -17.1925 C.ar    1  UNL1        0.0369
     17 C         -71.9200  -54.8291  -16.0597 C.ar    1  UNL1        0.0033
     18 C         -72.4548  -53.5453  -16.1770 C.ar    1  UNL1        0.0066
     19 C         -72.8306  -53.0447  -17.4356 C.ar    1  UNL1        0.0785
     20 C         -72.6600  -53.8547  -18.5736 C.ar    1  UNL1        0.0433
     21 C         -73.3998  -51.6843  -17.5645 C.2     1  UNL1        0.3381
     22 O         -74.0894  -51.3736  -18.5735 O.2     1  UNL1       -0.2451
     23 O         -73.1781  -50.7327  -16.5723 O.3     1  UNL1       -0.4771
     24 H         -73.5625  -49.7988  -16.6515 H       1  UNL1        0.2954
     25 C         -63.0668  -51.3293  -23.2842 C.2     1  UNL1        0.2839
     26 O         -62.6606  -51.7171  -22.1558 O.2     1  UNL1       -0.2665
     27 N         -63.9955  -52.1329  -24.0275 N.am    1  UNL1       -0.2766
     28 H         -63.9266  -52.1180  -25.0695 H       1  UNL1        0.1553
     29 C         -61.0777  -46.2256  -25.7585 C.ar    1  UNL1        0.0002
     30 C         -59.8949  -46.6626  -25.1026 C.ar    1  UNL1        0.0031
     31 C         -59.8812  -47.8571  -24.3612 C.ar    1  UNL1        0.0375
     32 C         -61.0579  -48.5947  -24.2900 C.ar    1  UNL1        0.1452
     33 O         -61.2523  -49.7259  -23.6573 O.2     1  UNL1       -0.4492
     34 C         -62.5082  -50.0889  -23.8505 C.ar    1  UNL1        0.1946
     35 C         -63.1686  -49.1312  -24.6305 C.ar    1  UNL1        0.0202
     36 C         -64.6016  -49.1121  -25.0698 C.3     1  UNL1        0.0345
     37 C         -62.2041  -48.1852  -24.9153 C.ar    1  UNL1        0.0337
     38 C         -62.2544  -47.0064  -25.6596 C.ar    1  UNL1        0.0028
     39 C         -61.0833  -42.5549  -28.0286 C.ar    1  UNL1        0.0347
     40 C         -60.4017  -43.6911  -28.5011 C.ar    1  UNL1        0.0028
     41 C         -60.4005  -44.8800  -27.7664 C.ar    1  UNL1        0.0001
     42 C         -61.0801  -44.9628  -26.5399 C.ar    1  UNL1        0.0000
     43 C         -61.7613  -43.8296  -26.0648 C.ar    1  UNL1        0.0001
     44 C         -61.7641  -42.6405  -26.7994 C.ar    1  UNL1        0.0028
     45 C         -62.0223  -41.0738  -29.9642 C.3     1  UNL1        0.0773
     46 C         -61.0751  -41.2970  -28.8234 C.2     1  UNL1        0.1735
     47 O         -60.2527  -40.3834  -28.5408 O.2     1  UNL1       -0.2913
@<TRIPOS>BOND
     1    45    46    1
     2    46    47    2
     3    46    39    1
     4    39    40   ar
     5    40    41   ar
     6    41    42   ar
     7    42    29    1
     8    29    30   ar
     9    30    31   ar
    10    31    32   ar
    11    32    33   ar
    12    33    34   ar
    13    34    25    1
    14    25    26    2
    15    25    27   am
    16    27     1    1
    17     1     2   ar
    18     2     3   ar
    19     3     4   ar
    20     4     7    1
    21     7     8    1
    22     8     9    1
    23     9    10    1
    24    10    13    1
    25    13    14    1
    26    14    15    1
    27    15    16   ar
    28    16    17   ar
    29    17    18   ar
    30    18    19   ar
    31    19    21    1
    32    21    22    2
    33    21    23    1
    34    19    20   ar
    35    10    11    1
    36    11    12    1
    37     4     5   ar
    38     5     6   ar
    39    34    35   ar
    40    35    36    1
    41    35    37   ar
    42    37    38   ar
    43    42    43   ar
    44    43    44   ar
    45    44    39   ar
    46    38    29   ar
    47    37    32   ar
    48     6     1   ar
    49    12     7    1
    50    20    15   ar
    51    27    28    1
    52    23    24    1
@<TRIPOS>MOLECULE
*****
 47 52 0 0 0
SMALL
GASTEIGER

@<TRIPOS>ATOM
      1 C         -63.6951  -52.0928  -24.0942 C.ar    1  UNL1        0.0702
      2 C         -63.2863  -52.8792  -23.0054 C.ar    1  UNL1        0.0191
      3 C         -64.1443  -53.8449  -22.4772 C.ar    1  UNL1        0.0356
      4 C         -65.4180  -54.0207  -23.0380 C.ar    1  UNL1        0.1318
      5 N         -65.8054  -53.2246  -24.0731 N.ar    1  UNL1       -0.2279
      6 C         -64.9873  -52.2773  -24.6031 C.ar    1  UNL1        0.1149
      7 N         -66.3299  -54.9995  -22.5060 N.pl3   1  UNL1       -0.2932
      8 C         -66.0548  -55.6461  -21.2151 C.3     1  UNL1        0.0923
      9 C         -67.3624  -55.8792  -20.4548 C.3     1  UNL1        0.0252
     10 C         -68.3658  -56.6528  -21.3302 C.3     1  UNL1        0.0472
     11 C         -68.6212  -55.8923  -22.6461 C.3     1  UNL1        0.0252
     12 C         -67.3086  -55.6378  -23.3954 C.3     1  UNL1        0.0923
     13 C         -69.6856  -56.9526  -20.5905 C.3     1  UNL1        0.2054
     14 O         -70.5123  -55.7912  -20.4679 O.3     1  UNL1       -0.4755
     15 C         -71.0509  -55.2632  -19.2819 C.ar    1  UNL1        0.1388
     16 C         -70.7848  -55.9430  -18.0886 C.ar    1  UNL1        0.0369
     17 C         -71.2932  -55.4762  -16.8758 C.ar    1  UNL1        0.0033
     18 C         -72.0740  -54.3198  -16.8410 C.ar    1  UNL1        0.0066
     19 C         -72.3512  -53.6141  -18.0246 C.ar    1  UNL1        0.0785
     20 C         -71.8313  -54.0890  -19.2429 C.ar    1  UNL1        0.0433
     21 C         -73.1801  -52.3880  -17.9926 C.2     1  UNL1        0.3381
     22 O         -72.7947  -51.3731  -17.3512 O.2     1  UNL1       -0.2451
     23 O         -74.3959  -52.3438  -18.6701 O.3     1  UNL1       -0.4771
     24 H         -74.9709  -51.5100  -18.6537 H       1  UNL1        0.2954
     25 C         -63.1330  -49.6660  -24.5600 C.2     1  UNL1        0.2839
     26 O         -63.8426  -49.2249  -23.6163 O.2     1  UNL1       -0.2665
     27 N         -62.8497  -51.0704  -24.6489 N.am    1  UNL1       -0.2766
     28 H         -61.9257  -51.3566  -25.0428 H       1  UNL1        0.1553
     29 C         -60.8790  -45.9115  -28.6771 C.ar    1  UNL1        0.0002
     30 C         -60.1644  -45.4792  -27.5271 C.ar    1  UNL1        0.0031
     31 C         -60.3730  -46.0887  -26.2775 C.ar    1  UNL1        0.0375
     32 C         -61.2981  -47.1242  -26.2026 C.ar    1  UNL1        0.1452
     33 O         -61.6340  -47.8175  -25.1423 O.2     1  UNL1       -0.4492
     34 C         -62.5401  -48.7070  -25.5088 C.ar    1  UNL1        0.1946
     35 C         -62.8229  -48.5678  -26.8735 C.ar    1  UNL1        0.0202
     36 C         -63.8029  -49.3370  -27.7069 C.3     1  UNL1        0.0345
     37 C         -61.9940  -47.5497  -27.3012 C.ar    1  UNL1        0.0337
     38 C         -61.8125  -46.9690  -28.5566 C.ar    1  UNL1        0.0028
     39 C         -60.2123  -44.0231  -32.5003 C.ar    1  UNL1        0.0347
     40 C         -61.4681  -43.9478  -31.8708 C.ar    1  UNL1        0.0028
     41 C         -61.6837  -44.5586  -30.6323 C.ar    1  UNL1        0.0001
     42 C         -60.6495  -45.2612  -29.9923 C.ar    1  UNL1        0.0000
     43 C         -59.3943  -45.3389  -30.6186 C.ar    1  UNL1        0.0001
     44 C         -59.1773  -44.7274  -31.8566 C.ar    1  UNL1        0.0028
     45 C         -61.0237  -43.4320  -34.9116 C.3     1  UNL1        0.0773
     46 C         -59.9992  -43.3667  -33.8186 C.2     1  UNL1        0.1735
     47 O         -58.9303  -42.7338  -34.0371 O.2     1  UNL1       -0.2913
@<TRIPOS>BOND
     1    45    46    1
     2    46    47    2
     3    46    39    1
     4    39    40   ar
     5    40    41   ar
     6    41    42   ar
     7    42    29    1
     8    29    30   ar
     9    30    31   ar
    10    31    32   ar
    11    32    33   ar
    12    33    34   ar
    13    34    25    1
    14    25    26    2
    15    25    27   am
    16    27     1    1
    17     1     2   ar
    18     2     3   ar
    19     3     4   ar
    20     4     7    1
    21     7     8    1
    22     8     9    1
    23     9    10    1
    24    10    13    1
    25    13    14    1
    26    14    15    1
    27    15    16   ar
    28    16    17   ar
    29    17    18   ar
    30    18    19   ar
    31    19    21    1
    32    21    22    2
    33    21    23    1
    34    19    20   ar
    35    10    11    1
    36    11    12    1
    37     4     5   ar
    38     5     6   ar
    39    34    35   ar
    40    35    36    1
    41    35    37   ar
    42    37    38   ar
    43    42    43   ar
    44    43    44   ar
    45    44    39   ar
    46    38    29   ar
    47    37    32   ar
    48     6     1   ar
    49    12     7    1
    50    20    15   ar
    51    27    28    1
    52    23    24    1
@<TRIPOS>MOLECULE
*****
 47 52 0 0 0
SMALL
GASTEIGER

@<TRIPOS>ATOM
      1 C         -65.9722  -53.5840  -23.4193 C.ar    1  UNL1        0.0702
      2 C         -65.2463  -54.5712  -22.7340 C.ar    1  UNL1        0.0191
      3 C         -65.8368  -55.2704  -21.6803 C.ar    1  UNL1        0.0356
      4 C         -67.1570  -54.9771  -21.3083 C.ar    1  UNL1        0.1318
      5 N         -67.8312  -53.9932  -21.9662 N.ar    1  UNL1       -0.2279
      6 C         -67.2764  -53.2986  -22.9945 C.ar    1  UNL1        0.1149
      7 N         -67.7881  -55.6721  -20.2168 N.pl3   1  UNL1       -0.2932
      8 C         -67.4372  -55.3462  -18.8273 C.3     1  UNL1        0.0923
      9 C         -68.6767  -55.4456  -17.9350 C.3     1  UNL1        0.0252
     10 C         -69.3481  -56.8223  -18.0945 C.3     1  UNL1        0.0472
     11 C         -69.7108  -57.0698  -19.5718 C.3     1  UNL1        0.0252
     12 C         -68.4736  -56.9463  -20.4679 C.3     1  UNL1        0.0923
     13 C         -70.5786  -56.9883  -17.1795 C.3     1  UNL1        0.2054
     14 O         -71.5020  -55.9035  -17.3137 O.3     1  UNL1       -0.4755
     15 C         -71.8660  -54.9804  -16.3183 C.ar    1  UNL1        0.1388
     16 C         -71.5015  -55.2701  -14.9991 C.ar    1  UNL1        0.0369
     17 C         -71.8360  -54.3990  -13.9615 C.ar    1  UNL1        0.0033
     18 C         -72.5387  -53.2236  -14.2312 C.ar    1  UNL1        0.0066
     19 C         -72.9115  -52.9054  -15.5485 C.ar    1  UNL1        0.0785
     20 C         -72.5668  -53.7870  -16.5898 C.ar    1  UNL1        0.0433
     21 C         -73.6583  -51.6607  -15.8390 C.2     1  UNL1        0.3381
     22 O         -74.8696  -51.5503  -15.5062 O.2     1  UNL1       -0.2451
     23 O         -73.0303  -50.5986  -16.4846 O.3     1  UNL1       -0.4771
     24 H         -73.5327  -49.7431  -16.6887 H       1  UNL1        0.2954
     25 C         -64.3405  -51.8620  -24.3105 C.2     1  UNL1        0.2839
     26 O         -63.5555  -51.9635  -23.3296 O.2     1  UNL1       -0.2665
     27 N         -65.3897  -52.8246  -24.4924 N.am    1  UNL1       -0.2766
     28 H         -65.6677  -53.0626  -25.4707 H       1  UNL1        0.1553
     29 C         -63.3224  -47.2969  -28.0856 C.ar    1  UNL1        0.0002
     30 C         -63.7459  -48.2930  -29.0068 C.ar    1  UNL1        0.0031
     31 C         -64.1002  -49.5797  -28.5647 C.ar    1  UNL1        0.0375
     32 C         -64.0231  -49.8460  -27.2021 C.ar    1  UNL1        0.1452
     33 O         -64.3080  -50.9708  -26.5925 O.2     1  UNL1       -0.4492
     34 C         -64.1056  -50.7943  -25.2986 C.ar    1  UNL1        0.1946
     35 C         -63.6435  -49.4939  -25.0594 C.ar    1  UNL1        0.0202
     36 C         -63.2561  -48.8662  -23.7545 C.3     1  UNL1        0.0345
     37 C         -63.6159  -48.8971  -26.3042 C.ar    1  UNL1        0.0337
     38 C         -63.2574  -47.6104  -26.7065 C.ar    1  UNL1        0.0028
     39 C         -62.2469  -43.3548  -29.4750 C.ar    1  UNL1        0.0347
     40 C         -61.9275  -43.7685  -28.1689 C.ar    1  UNL1        0.0028
     41 C         -62.2750  -45.0453  -27.7193 C.ar    1  UNL1        0.0001
     42 C         -62.9518  -45.9408  -28.5638 C.ar    1  UNL1        0.0000
     43 C         -63.2728  -45.5305  -29.8686 C.ar    1  UNL1        0.0001
     44 C         -62.9246  -44.2543  -30.3196 C.ar    1  UNL1        0.0028
     45 C         -61.5372  -40.8913  -28.9757 C.3     1  UNL1        0.0773
     46 C         -61.8691  -41.9922  -29.9382 C.2     1  UNL1        0.1735
     47 O         -61.8229  -41.7415  -31.1735 O.2     1  UNL1       -0.2913
@<TRIPOS>BOND
     1    45    46    1
     2    46    47    2
     3    46    39    1
     4    39    40   ar
     5    40    41   ar
     6    41    42   ar
     7    42    29    1
     8    29    30   ar
     9    30    31   ar
    10    31    32   ar
    11    32    33   ar
    12    33    34   ar
    13    34    25    1
    14    25    26    2
    15    25    27   am
    16    27     1    1
    17     1     2   ar
    18     2     3   ar
    19     3     4   ar
    20     4     7    1
    21     7     8    1
    22     8     9    1
    23     9    10    1
    24    10    13    1
    25    13    14    1
    26    14    15    1
    27    15    16   ar
    28    16    17   ar
    29    17    18   ar
    30    18    19   ar
    31    19    21    1
    32    21    22    2
    33    21    23    1
    34    19    20   ar
    35    10    11    1
    36    11    12    1
    37     4     5   ar
    38     5     6   ar
    39    34    35   ar
    40    35    36    1
    41    35    37   ar
    42    37    38   ar
    43    42    43   ar
    44    43    44   ar
    45    44    39   ar
    46    38    29   ar
    47    37    32   ar
    48     6     1   ar
    49    12     7    1
    50    20    15   ar
    51    27    28    1
    52    23    24    1
@<TRIPOS>MOLECULE
*****
 47 52 0 0 0
SMALL
GASTEIGER

@<TRIPOS>ATOM
      1 C         -65.9622  -53.5284  -23.4136 C.ar    1  UNL1        0.0702
      2 C         -65.2633  -54.5354  -22.7291 C.ar    1  UNL1        0.0191
      3 C         -65.8792  -55.2322  -21.6884 C.ar    1  UNL1        0.0356
      4 C         -67.1977  -54.9166  -21.3287 C.ar    1  UNL1        0.1318
      5 N         -67.8452  -53.9141  -21.9853 N.ar    1  UNL1       -0.2279
      6 C         -67.2654  -53.2215  -23.0010 C.ar    1  UNL1        0.1149
      7 N         -67.8544  -55.6088  -20.2506 N.pl3   1  UNL1       -0.2932
      8 C         -67.4794  -55.3363  -18.8560 C.3     1  UNL1        0.0923
      9 C         -68.7166  -55.3995  -17.9571 C.3     1  UNL1        0.0252
     10 C         -69.4544  -56.7379  -18.1468 C.3     1  UNL1        0.0472
     11 C         -69.8379  -56.9293  -19.6271 C.3     1  UNL1        0.0252
     12 C         -68.6019  -56.8418  -20.5291 C.3     1  UNL1        0.0923
     13 C         -70.6855  -56.8686  -17.2270 C.3     1  UNL1        0.2054
     14 O         -71.7839  -56.0699  -17.6777 O.3     1  UNL1       -0.4755
     15 C         -72.1969  -54.8336  -17.1518 C.ar    1  UNL1        0.1388
     16 C         -72.7237  -53.8923  -18.0424 C.ar    1  UNL1        0.0369
     17 C         -73.1479  -52.6430  -17.5878 C.ar    1  UNL1        0.0033
     18 C         -73.0523  -52.3198  -16.2334 C.ar    1  UNL1        0.0066
     19 C         -72.5326  -53.2496  -15.3163 C.ar    1  UNL1        0.0785
     20 C         -72.1110  -54.5087  -15.7820 C.ar    1  UNL1        0.0433
     21 C         -72.4279  -52.9105  -13.8791 C.2     1  UNL1        0.3381
     22 O         -73.4671  -52.7624  -13.1805 O.2     1  UNL1       -0.2451
     23 O         -71.1791  -52.7501  -13.2840 O.3     1  UNL1       -0.4771
     24 H         -71.0967  -52.5172  -12.3016 H       1  UNL1        0.2954
     25 C         -64.3579  -51.7586  -24.2601 C.2     1  UNL1        0.2839
     26 O         -63.6261  -51.8006  -23.2347 O.2     1  UNL1       -0.2665
     27 N         -65.3530  -52.7710  -24.4733 N.am    1  UNL1       -0.2766
     28 H         -65.5647  -53.0455  -25.4585 H       1  UNL1        0.1553
     29 C         -63.2987  -47.2548  -28.0969 C.ar    1  UNL1        0.0002
     30 C         -63.7315  -48.2594  -29.0044 C.ar    1  UNL1        0.0031
     31 C         -64.0976  -49.5366  -28.5448 C.ar    1  UNL1        0.0375
     32 C         -64.0226  -49.7851  -27.1787 C.ar    1  UNL1        0.1452
     33 O         -64.3178  -50.8988  -26.5539 O.2     1  UNL1       -0.4492
     34 C         -64.1134  -50.7066  -25.2625 C.ar    1  UNL1        0.1946
     35 C         -63.6393  -49.4074  -25.0411 C.ar    1  UNL1        0.0202
     36 C         -63.2458  -48.7657  -23.7449 C.3     1  UNL1        0.0345
     37 C         -63.6065  -48.8279  -26.2939 C.ar    1  UNL1        0.0337
     38 C         -63.2362  -47.5501  -26.7137 C.ar    1  UNL1        0.0028
     39 C         -62.1843  -43.3434  -29.5413 C.ar    1  UNL1        0.0347
     40 C         -63.3143  -44.0046  -30.0561 C.ar    1  UNL1        0.0028
     41 C         -63.6756  -45.2708  -29.5877 C.ar    1  UNL1        0.0001
     42 C         -62.9157  -45.9088  -28.5935 C.ar    1  UNL1        0.0000
     43 C         -61.7862  -45.2514  -28.0777 C.ar    1  UNL1        0.0001
     44 C         -61.4246  -43.9846  -28.5445 C.ar    1  UNL1        0.0028
     45 C         -61.6070  -40.8295  -29.1303 C.3     1  UNL1        0.0773
     46 C         -61.8137  -41.9953  -30.0505 C.2     1  UNL1        0.1735
     47 O         -61.6660  -41.8132  -31.2898 O.2     1  UNL1       -0.2913
@<TRIPOS>BOND
     1    45    46    1
     2    46    47    2
     3    46    39    1
     4    39    40   ar
     5    40    41   ar
     6    41    42   ar
     7    42    29    1
     8    29    30   ar
     9    30    31   ar
    10    31    32   ar
    11    32    33   ar
    12    33    34   ar
    13    34    25    1
    14    25    26    2
    15    25    27   am
    16    27     1    1
    17     1     2   ar
    18     2     3   ar
    19     3     4   ar
    20     4     7    1
    21     7     8    1
    22     8     9    1
    23     9    10    1
    24    10    13    1
    25    13    14    1
    26    14    15    1
    27    15    16   ar
    28    16    17   ar
    29    17    18   ar
    30    18    19   ar
    31    19    21    1
    32    21    22    2
    33    21    23    1
    34    19    20   ar
    35    10    11    1
    36    11    12    1
    37     4     5   ar
    38     5     6   ar
    39    34    35   ar
    40    35    36    1
    41    35    37   ar
    42    37    38   ar
    43    42    43   ar
    44    43    44   ar
    45    44    39   ar
    46    38    29   ar
    47    37    32   ar
    48     6     1   ar
    49    12     7    1
    50    20    15   ar
    51    27    28    1
    52    23    24    1
@<TRIPOS>MOLECULE
*****
 47 52 0 0 0
SMALL
GASTEIGER

@<TRIPOS>ATOM
      1 C         -64.7774  -53.2723  -23.4178 C.ar    1  UNL1        0.0702
      2 C         -64.2499  -54.3044  -22.6255 C.ar    1  UNL1        0.0191
      3 C         -65.1026  -55.1276  -21.8887 C.ar    1  UNL1        0.0356
      4 C         -66.4879  -54.9140  -21.9414 C.ar    1  UNL1        0.1318
      5 N         -66.9751  -53.8865  -22.6914 N.ar    1  UNL1       -0.2279
      6 C         -66.1639  -53.0716  -23.4163 C.ar    1  UNL1        0.1149
      7 N         -67.3913  -55.7383  -21.1818 N.pl3   1  UNL1       -0.2932
      8 C         -67.2007  -55.9100  -19.7347 C.3     1  UNL1        0.0923
      9 C         -68.5579  -55.9889  -19.0315 C.3     1  UNL1        0.0252
     10 C         -69.4352  -57.0808  -19.6715 C.3     1  UNL1        0.0472
     11 C         -69.6099  -56.8082  -21.1783 C.3     1  UNL1        0.0252
     12 C         -68.2500  -56.7052  -21.8777 C.3     1  UNL1        0.0923
     13 C         -70.7990  -57.2303  -18.9668 C.3     1  UNL1        0.2054
     14 O         -71.6778  -56.1380  -19.2531 O.3     1  UNL1       -0.4755
     15 C         -72.0186  -55.0834  -18.3886 C.ar    1  UNL1        0.1388
     16 C         -72.4431  -53.8818  -18.9656 C.ar    1  UNL1        0.0369
     17 C         -72.7916  -52.7930  -18.1654 C.ar    1  UNL1        0.0033
     18 C         -72.7219  -52.8934  -16.7750 C.ar    1  UNL1        0.0066
     19 C         -72.3048  -54.0913  -16.1695 C.ar    1  UNL1        0.0785
     20 C         -71.9591  -55.1860  -16.9832 C.ar    1  UNL1        0.0433
     21 C         -72.2279  -54.2017  -14.6952 C.2     1  UNL1        0.3381
     22 O         -72.8232  -55.1359  -14.0929 O.2     1  UNL1       -0.2451
     23 O         -71.4975  -53.2731  -13.9580 O.3     1  UNL1       -0.4771
     24 H         -71.4394  -53.3393  -12.9489 H       1  UNL1        0.2954
     25 C         -63.2082  -51.2898  -23.5908 C.2     1  UNL1        0.2839
     26 O         -62.8892  -51.3190  -22.3718 O.2     1  UNL1       -0.2665
     27 N         -63.9297  -52.3873  -24.1701 N.am    1  UNL1       -0.2766
     28 H         -63.7421  -52.6190  -25.1711 H       1  UNL1        0.1553
     29 C         -61.5364  -46.7900  -27.2080 C.ar    1  UNL1        0.0002
     30 C         -60.7498  -46.4943  -26.0617 C.ar    1  UNL1        0.0031
     31 C         -60.8142  -47.3048  -24.9147 C.ar    1  UNL1        0.0375
     32 C         -61.6694  -48.4011  -24.9372 C.ar    1  UNL1        0.1452
     33 O         -61.8721  -49.2734  -23.9803 O.2     1  UNL1       -0.4492
     34 C         -62.7551  -50.1554  -24.4149 C.ar    1  UNL1        0.1946
     35 C         -63.1631  -49.8244  -25.7133 C.ar    1  UNL1        0.0202
     36 C         -64.1670  -50.5200  -26.5821 C.3     1  UNL1        0.0345
     37 C         -62.4333  -48.6968  -26.0333 C.ar    1  UNL1        0.0337
     38 C         -62.3948  -47.9157  -27.1885 C.ar    1  UNL1        0.0028
     39 C         -61.3126  -44.2822  -30.7134 C.ar    1  UNL1        0.0347
     40 C         -60.1437  -44.6866  -30.0432 C.ar    1  UNL1        0.0028
     41 C         -60.2161  -45.4993  -28.9086 C.ar    1  UNL1        0.0001
     42 C         -61.4593  -45.9277  -28.4144 C.ar    1  UNL1        0.0000
     43 C         -62.6286  -45.5250  -29.0811 C.ar    1  UNL1        0.0001
     44 C         -62.5572  -44.7132  -30.2166 C.ar    1  UNL1        0.0028
     45 C         -60.3071  -43.7494  -33.0644 C.3     1  UNL1        0.0773
     46 C         -61.2178  -43.4171  -31.9204 C.2     1  UNL1        0.1735
     47 O         -61.9179  -42.3708  -31.9970 O.2     1  UNL1       -0.2913
@<TRIPOS>BOND
     1    45    46    1
     2    46    47    2
     3    46    39    1
     4    39    40   ar
     5    40    41   ar
     6    41    42   ar
     7    42    29    1
     8    29    30   ar
     9    30    31   ar
    10    31    32   ar
    11    32    33   ar
    12    33    34   ar
    13    34    25    1
    14    25    26    2
    15    25    27   am
    16    27     1    1
    17     1     2   ar
    18     2     3   ar
    19     3     4   ar
    20     4     7    1
    21     7     8    1
    22     8     9    1
    23     9    10    1
    24    10    13    1
    25    13    14    1
    26    14    15    1
    27    15    16   ar
    28    16    17   ar
    29    17    18   ar
    30    18    19   ar
    31    19    21    1
    32    21    22    2
    33    21    23    1
    34    19    20   ar
    35    10    11    1
    36    11    12    1
    37     4     5   ar
    38     5     6   ar
    39    34    35   ar
    40    35    36    1
    41    35    37   ar
    42    37    38   ar
    43    42    43   ar
    44    43    44   ar
    45    44    39   ar
    46    38    29   ar
    47    37    32   ar
    48     6     1   ar
    49    12     7    1
    50    20    15   ar
    51    27    28    1
    52    23    24    1
@<TRIPOS>MOLECULE
*****
 47 52 0 0 0
SMALL
GASTEIGER

@<TRIPOS>ATOM
      1 C         -62.8598  -40.1497  -19.6977 C.ar    1  UNL1        0.0702
      2 C         -63.7774  -40.0121  -18.6441 C.ar    1  UNL1        0.0191
      3 C         -64.4690  -38.8125  -18.4694 C.ar    1  UNL1        0.0356
      4 C         -64.2378  -37.7453  -19.3497 C.ar    1  UNL1        0.1318
      5 N         -63.3195  -37.8904  -20.3453 N.ar    1  UNL1       -0.2279
      6 C         -62.6336  -39.0487  -20.5340 C.ar    1  UNL1        0.1149
      7 N         -64.9261  -36.4914  -19.1865 N.pl3   1  UNL1       -0.2932
      8 C         -66.0008  -36.1085  -20.1131 C.3     1  UNL1        0.0923
      9 C         -67.0994  -35.3539  -19.3607 C.3     1  UNL1        0.0252
     10 C         -66.5034  -34.1657  -18.5832 C.3     1  UNL1        0.0472
     11 C         -65.4101  -34.6578  -17.6149 C.3     1  UNL1        0.0252
     12 C         -64.3224  -35.4342  -18.3654 C.3     1  UNL1        0.0923
     13 C         -67.5797  -33.3451  -17.8436 C.3     1  UNL1        0.2054
     14 O         -68.9041  -33.7963  -18.1432 O.3     1  UNL1       -0.4755
     15 C         -70.1005  -33.3357  -17.5671 C.ar    1  UNL1        0.1388
     16 C         -70.0088  -32.5982  -16.3818 C.ar    1  UNL1        0.0369
     17 C         -71.1579  -32.1155  -15.7543 C.ar    1  UNL1        0.0033
     18 C         -72.4155  -32.3627  -16.3068 C.ar    1  UNL1        0.0066
     19 C         -72.5354  -33.0955  -17.5002 C.ar    1  UNL1        0.0785
     20 C         -71.3716  -33.5753  -18.1292 C.ar    1  UNL1        0.0433
     21 C         -73.8673  -33.3615  -18.0889 C.2     1  UNL1        0.3381
     22 O         -73.9820  -33.6234  -19.3170 O.2     1  UNL1       -0.2451
     23 O         -75.0084  -33.3239  -17.2915 O.3     1  UNL1       -0.4771
     24 H         -75.9244  -33.5036  -17.6849 H       1  UNL1        0.2954
     25 C         -61.3028  -41.6197  -21.0531 C.2     1  UNL1        0.2839
     26 O         -60.8240  -40.6599  -21.7151 O.2     1  UNL1       -0.2665
     27 N         -62.1093  -41.3603  -19.8943 N.am    1  UNL1       -0.2766
     28 H         -62.0602  -42.0422  -19.1046 H       1  UNL1        0.1553
     29 C         -60.1698  -47.3292  -22.5514 C.ar    1  UNL1        0.0002
     30 C         -58.8865  -46.7561  -22.7632 C.ar    1  UNL1        0.0031
     31 C         -58.6623  -45.3867  -22.5368 C.ar    1  UNL1        0.0375
     32 C         -59.7326  -44.6134  -22.1008 C.ar    1  UNL1        0.1452
     33 O         -59.7320  -43.3304  -21.8332 O.2     1  UNL1       -0.4492
     34 C         -60.9497  -42.9959  -21.4439 C.ar    1  UNL1        0.1946
     35 C         -61.7894  -44.1163  -21.4830 C.ar    1  UNL1        0.0202
     36 C         -63.2504  -44.1996  -21.1586 C.3     1  UNL1        0.0345
     37 C         -60.9736  -45.1516  -21.8940 C.ar    1  UNL1        0.0337
     38 C         -61.2324  -46.5057  -22.1078 C.ar    1  UNL1        0.0028
     39 C         -60.8219  -51.5378  -23.2511 C.ar    1  UNL1        0.0347
     40 C         -61.5777  -50.8436  -22.2889 C.ar    1  UNL1        0.0028
     41 C         -61.3671  -49.4806  -22.0629 C.ar    1  UNL1        0.0001
     42 C         -60.3946  -48.7771  -22.7925 C.ar    1  UNL1        0.0000
     43 C         -59.6376  -49.4676  -23.7538 C.ar    1  UNL1        0.0001
     44 C         -59.8482  -50.8304  -23.9814 C.ar    1  UNL1        0.0028
     45 C         -60.3287  -53.7537  -24.5429 C.3     1  UNL1        0.0773
     46 C         -61.0590  -52.9889  -23.4798 C.2     1  UNL1        0.1735
     47 O         -61.8961  -53.6063  -22.7663 O.2     1  UNL1       -0.2913
@<TRIPOS>BOND
     1    45    46    1
     2    46    47    2
     3    46    39    1
     4    39    40   ar
     5    40    41   ar
     6    41    42   ar
     7    42    29    1
     8    29    30   ar
     9    30    31   ar
    10    31    32   ar
    11    32    33   ar
    12    33    34   ar
    13    34    25    1
    14    25    26    2
    15    25    27   am
    16    27     1    1
    17     1     2   ar
    18     2     3   ar
    19     3     4   ar
    20     4     7    1
    21     7     8    1
    22     8     9    1
    23     9    10    1
    24    10    13    1
    25    13    14    1
    26    14    15    1
    27    15    16   ar
    28    16    17   ar
    29    17    18   ar
    30    18    19   ar
    31    19    21    1
    32    21    22    2
    33    21    23    1
    34    19    20   ar
    35    10    11    1
    36    11    12    1
    37     4     5   ar
    38     5     6   ar
    39    34    35   ar
    40    35    36    1
    41    35    37   ar
    42    37    38   ar
    43    42    43   ar
    44    43    44   ar
    45    44    39   ar
    46    38    29   ar
    47    37    32   ar
    48     6     1   ar
    49    12     7    1
    50    20    15   ar
    51    27    28    1
    52    23    24    1
@<TRIPOS>MOLECULE
*****
 47 52 0 0 0
SMALL
GASTEIGER

@<TRIPOS>ATOM
      1 C         -61.9231  -42.1497  -22.0944 C.ar    1  UNL1        0.0702
      2 C         -60.9284  -42.4427  -23.0409 C.ar    1  UNL1        0.0191
      3 C         -60.4446  -43.7455  -23.1685 C.ar    1  UNL1        0.0356
      4 C         -60.9548  -44.7577  -22.3424 C.ar    1  UNL1        0.1318
      5 N         -61.8962  -44.4442  -21.4091 N.ar    1  UNL1       -0.2279
      6 C         -62.3816  -43.1826  -21.2662 C.ar    1  UNL1        0.1149
      7 N         -60.4656  -46.1081  -22.4416 N.pl3   1  UNL1       -0.2932
      8 C         -60.6454  -47.0466  -21.3250 C.3     1  UNL1        0.0923
      9 C         -60.9118  -48.4555  -21.8602 C.3     1  UNL1        0.0252
     10 C         -59.8073  -48.8763  -22.8474 C.3     1  UNL1        0.0472
     11 C         -59.7074  -47.8582  -24.0001 C.3     1  UNL1        0.0252
     12 C         -59.4646  -46.4436  -23.4623 C.3     1  UNL1        0.0923
     13 C         -60.0073  -50.3096  -23.3808 C.3     1  UNL1        0.2054
     14 O         -61.3869  -50.6141  -23.6076 O.3     1  UNL1       -0.4755
     15 C         -62.2702  -49.9303  -24.4606 C.ar    1  UNL1        0.1388
     16 C         -63.6334  -49.9670  -24.1486 C.ar    1  UNL1        0.0369
     17 C         -64.5654  -49.3139  -24.9562 C.ar    1  UNL1        0.0033
     18 C         -64.1444  -48.6125  -26.0870 C.ar    1  UNL1        0.0066
     19 C         -62.7800  -48.5544  -26.4197 C.ar    1  UNL1        0.0785
     20 C         -61.8461  -49.2121  -25.5979 C.ar    1  UNL1        0.0433
     21 C         -62.3292  -47.8130  -27.6190 C.2     1  UNL1        0.3381
     22 O         -63.1685  -47.2643  -28.3835 O.2     1  UNL1       -0.2451
     23 O         -60.9721  -47.7151  -27.9159 O.3     1  UNL1       -0.4771
     24 H         -60.6535  -47.2109  -28.7347 H       1  UNL1        0.2954
     25 C         -62.2004  -40.0276  -20.7371 C.2     1  UNL1        0.2839
     26 O         -61.1861  -40.2439  -20.0209 O.2     1  UNL1       -0.2665
     27 N         -62.4278  -40.8152  -21.9155 N.am    1  UNL1       -0.2766
     28 H         -62.8925  -40.3522  -22.7282 H       1  UNL1        0.1553
     29 C         -66.0891  -35.6621  -19.3417 C.ar    1  UNL1        0.0002
     30 C         -64.8793  -34.9171  -19.3765 C.ar    1  UNL1        0.0031
     31 C         -63.6552  -35.5434  -19.6696 C.ar    1  UNL1        0.0375
     32 C         -63.6658  -36.9106  -19.9230 C.ar    1  UNL1        0.1452
     33 O         -62.6418  -37.6750  -20.2146 O.2     1  UNL1       -0.4492
     34 C         -63.0898  -38.9064  -20.3860 C.ar    1  UNL1        0.1946
     35 C         -64.4734  -38.9465  -20.1721 C.ar    1  UNL1        0.0202
     36 C         -65.3924  -40.1294  -20.2267 C.3     1  UNL1        0.0345
     37 C         -64.8228  -37.6405  -19.8916 C.ar    1  UNL1        0.0337
     38 C         -66.0550  -37.0527  -19.6051 C.ar    1  UNL1        0.0028
     39 C         -69.8311  -33.7092  -18.4413 C.ar    1  UNL1        0.0347
     40 C         -68.6452  -33.3259  -17.7889 C.ar    1  UNL1        0.0028
     41 C         -67.4333  -33.9577  -18.0811 C.ar    1  UNL1        0.0001
     42 C         -67.3765  -34.9897  -19.0323 C.ar    1  UNL1        0.0000
     43 C         -68.5592  -35.3753  -19.6852 C.ar    1  UNL1        0.0001
     44 C         -69.7715  -34.7433  -19.3946 C.ar    1  UNL1        0.0028
     45 C         -71.2487  -32.1108  -16.9388 C.3     1  UNL1        0.0773
     46 C         -71.1130  -33.0258  -18.1190 C.2     1  UNL1        0.1735
     47 O         -72.1231  -33.2126  -18.8509 O.2     1  UNL1       -0.2913
@<TRIPOS>BOND
     1    45    46    1
     2    46    47    2
     3    46    39    1
     4    39    40   ar
     5    40    41   ar
     6    41    42   ar
     7    42    29    1
     8    29    30   ar
     9    30    31   ar
    10    31    32   ar
    11    32    33   ar
    12    33    34   ar
    13    34    25    1
    14    25    26    2
    15    25    27   am
    16    27     1    1
    17     1     2   ar
    18     2     3   ar
    19     3     4   ar
    20     4     7    1
    21     7     8    1
    22     8     9    1
    23     9    10    1
    24    10    13    1
    25    13    14    1
    26    14    15    1
    27    15    16   ar
    28    16    17   ar
    29    17    18   ar
    30    18    19   ar
    31    19    21    1
    32    21    22    2
    33    21    23    1
    34    19    20   ar
    35    10    11    1
    36    11    12    1
    37     4     5   ar
    38     5     6   ar
    39    34    35   ar
    40    35    36    1
    41    35    37   ar
    42    37    38   ar
    43    42    43   ar
    44    43    44   ar
    45    44    39   ar
    46    38    29   ar
    47    37    32   ar
    48     6     1   ar
    49    12     7    1
    50    20    15   ar
    51    27    28    1
    52    23    24    1
@<TRIPOS>MOLECULE
*****
 47 52 0 0 0
SMALL
GASTEIGER

@<TRIPOS>ATOM
      1 C         -64.9484  -53.1451  -23.3345 C.ar    1  UNL1        0.0702
      2 C         -64.4532  -54.2893  -22.6889 C.ar    1  UNL1        0.0191
      3 C         -65.3237  -55.1418  -22.0083 C.ar    1  UNL1        0.0356
      4 C         -66.6941  -54.8453  -21.9697 C.ar    1  UNL1        0.1318
      5 N         -67.1477  -53.7128  -22.5757 N.ar    1  UNL1       -0.2279
      6 C         -66.3187  -52.8676  -23.2435 C.ar    1  UNL1        0.1149
      7 N         -67.6143  -55.6985  -21.2641 N.pl3   1  UNL1       -0.2932
      8 C         -67.1385  -56.5642  -20.1759 C.3     1  UNL1        0.0923
      9 C         -68.1957  -56.6508  -19.0726 C.3     1  UNL1        0.0252
     10 C         -69.5525  -57.0852  -19.6573 C.3     1  UNL1        0.0472
     11 C         -69.9913  -56.1090  -20.7662 C.3     1  UNL1        0.0252
     12 C         -68.9217  -56.0042  -21.8589 C.3     1  UNL1        0.0923
     13 C         -70.6418  -57.2313  -18.5753 C.3     1  UNL1        0.2054
     14 O         -70.6742  -56.1105  -17.6864 O.3     1  UNL1       -0.4755
     15 C         -70.3215  -56.1052  -16.3258 C.ar    1  UNL1        0.1388
     16 C         -68.9682  -56.2557  -16.0050 C.ar    1  UNL1        0.0369
     17 C         -68.5498  -56.2646  -14.6738 C.ar    1  UNL1        0.0033
     18 C         -69.4815  -56.1204  -13.6446 C.ar    1  UNL1        0.0066
     19 C         -70.8466  -55.9613  -13.9395 C.ar    1  UNL1        0.0785
     20 C         -71.2599  -55.9492  -15.2846 C.ar    1  UNL1        0.0433
     21 C         -71.8384  -55.8097  -12.8511 C.2     1  UNL1        0.3381
     22 O         -72.7079  -56.7007  -12.6509 O.2     1  UNL1       -0.2451
     23 O         -71.8219  -54.6797  -12.0374 O.3     1  UNL1       -0.4771
     24 H         -72.4968  -54.5662  -11.2905 H       1  UNL1        0.2954
     25 C         -63.1694  -51.3404  -23.3589 C.2     1  UNL1        0.2839
     26 O         -62.7307  -51.6289  -22.2131 O.2     1  UNL1       -0.2665
     27 N         -64.0798  -52.2294  -24.0234 N.am    1  UNL1       -0.2766
     28 H         -64.0286  -52.2893  -25.0649 H       1  UNL1        0.1553
     29 C         -61.4099  -46.3674  -26.2400 C.ar    1  UNL1        0.0002
     30 C         -60.2035  -46.7081  -25.5702 C.ar    1  UNL1        0.0031
     31 C         -60.1345  -47.8414  -24.7411 C.ar    1  UNL1        0.0375
     32 C         -61.2806  -48.6157  -24.5974 C.ar    1  UNL1        0.1452
     33 O         -61.4233  -49.7022  -23.8784 O.2     1  UNL1       -0.4492
     34 C         -62.6662  -50.1263  -24.0253 C.ar    1  UNL1        0.1946
     35 C         -63.3726  -49.2565  -24.8657 C.ar    1  UNL1        0.0202
     36 C         -64.8102  -49.3253  -25.2843 C.3     1  UNL1        0.0345
     37 C         -62.4491  -48.2988  -25.2351 C.ar    1  UNL1        0.0337
     38 C         -62.5540  -47.1827  -26.0654 C.ar    1  UNL1        0.0028
     39 C         -61.5848  -42.8834  -28.7813 C.ar    1  UNL1        0.0347
     40 C         -61.7727  -44.1718  -29.3141 C.ar    1  UNL1        0.0028
     41 C         -61.7169  -45.2999  -28.4910 C.ar    1  UNL1        0.0001
     42 C         -61.4707  -45.1687  -27.1143 C.ar    1  UNL1        0.0000
     43 C         -61.2820  -43.8834  -26.5792 C.ar    1  UNL1        0.0001
     44 C         -61.3388  -42.7545  -27.4013 C.ar    1  UNL1        0.0028
     45 C         -61.4485  -40.3012  -29.1494 C.3     1  UNL1        0.0773
     46 C         -61.6479  -41.6927  -29.6714 C.2     1  UNL1        0.1735
     47 O         -61.8753  -41.8432  -30.9029 O.2     1  UNL1       -0.2913
@<TRIPOS>BOND
     1    45    46    1
     2    46    47    2
     3    46    39    1
     4    39    40   ar
     5    40    41   ar
     6    41    42   ar
     7    42    29    1
     8    29    30   ar
     9    30    31   ar
    10    31    32   ar
    11    32    33   ar
    12    33    34   ar
    13    34    25    1
    14    25    26    2
    15    25    27   am
    16    27     1    1
    17     1     2   ar
    18     2     3   ar
    19     3     4   ar
    20     4     7    1
    21     7     8    1
    22     8     9    1
    23     9    10    1
    24    10    13    1
    25    13    14    1
    26    14    15    1
    27    15    16   ar
    28    16    17   ar
    29    17    18   ar
    30    18    19   ar
    31    19    21    1
    32    21    22    2
    33    21    23    1
    34    19    20   ar
    35    10    11    1
    36    11    12    1
    37     4     5   ar
    38     5     6   ar
    39    34    35   ar
    40    35    36    1
    41    35    37   ar
    42    37    38   ar
    43    42    43   ar
    44    43    44   ar
    45    44    39   ar
    46    38    29   ar
    47    37    32   ar
    48     6     1   ar
    49    12     7    1
    50    20    15   ar
    51    27    28    1
    52    23    24    1
