@<TRIPOS>MOLECULE
*****
 50 55 0 0 0
SMALL
GASTEIGER

@<TRIPOS>ATOM
      1 O           9.3297   75.4452   27.9041 O.2     1  UNL1       -0.2701
      2 C           8.2923   76.1396   27.7253 C.2     1  UNL1        0.2483
      3 N           7.8939   77.1072   28.7156 N.am    1  UNL1       -0.2945
      4 H           7.0594   77.7061   28.5260 H       1  UNL1        0.1501
      5 C           7.5028   75.9563   26.4856 C.ar    1  UNL1        0.0808
      6 C           7.4526   76.9713   25.5157 C.ar    1  UNL1        0.0080
      7 C           6.7075   76.8008   24.3462 C.ar    1  UNL1        0.0148
      8 C           5.9933   75.6117   24.1192 C.ar    1  UNL1        0.0502
      9 C           6.0342   74.6013   25.0950 C.ar    1  UNL1        0.0443
     10 C           6.7785   74.7693   26.2667 C.ar    1  UNL1        0.1457
     11 F           6.8132   73.7573   27.1710 F       1  UNL1       -0.2040
     12 N           5.2197   75.4356   22.9116 N.pl3   1  UNL1       -0.3040
     13 C           5.5731   74.3749   21.9541 C.3     1  UNL1        0.1123
     14 C           4.3187   73.8301   21.2608 C.3     1  UNL1        0.1136
     15 N           3.4594   74.9136   20.7687 N.pl3   1  UNL1       -0.2894
     16 C           3.7594   76.3097   21.1046 C.3     1  UNL1        0.1136
     17 C           4.1696   76.4126   22.5753 C.3     1  UNL1        0.1123
     18 C           2.2329   74.5769   20.1038 C.ar    1  UNL1        0.1371
     19 N           1.5454   73.4725   20.5032 N.ar    1  UNL1       -0.2288
     20 C           0.3726   73.1004   19.9275 C.ar    1  UNL1        0.1042
     21 C          -0.1810   73.8662   18.8912 C.ar    1  UNL1        0.0910
     22 C           0.5330   74.9838   18.4339 C.ar    1  UNL1        0.0140
     23 C           1.7389   75.3511   19.0377 C.ar    1  UNL1        0.0616
     24 I           2.7993   76.9990   18.2327 I       1  UNL1       -0.0396
     25 C          -1.4549   73.4356   18.2102 C.3     1  UNL1        0.4200
     26 F          -1.5129   73.9357   16.9207 F       1  UNL1       -0.1658
     27 F          -1.5289   72.0550   18.1429 F       1  UNL1       -0.1658
     28 F          -2.5374   73.9107   18.9268 F       1  UNL1       -0.1658
     29 C           8.6616   77.4111   29.9338 C.3     1  UNL1        0.1535
     30 C           9.0850   78.8608   29.9806 C.2     1  UNL1        0.2443
     31 O           9.2306   79.5144   28.9111 O.2     1  UNL1       -0.2730
     32 N           9.4096   79.4668   31.2420 N.am    1  UNL1       -0.2825
     33 H           9.6464   78.8342   32.0398 H       1  UNL1        0.1549
     34 C           9.5248   80.8854   31.4465 C.ar    1  UNL1        0.0535
     35 C           8.9980   81.4589   32.6119 C.ar    1  UNL1        0.0353
     36 C           9.0869   82.8396   32.8045 C.ar    1  UNL1        0.1002
     37 N           9.6668   83.6242   31.8583 N.ar    1  UNL1       -0.2422
     38 C          10.1694   83.1001   30.7094 C.ar    1  UNL1        0.1002
     39 C          10.1022   81.7239   30.4775 C.ar    1  UNL1        0.0353
     40 C           7.8842   77.0108   31.2054 C.3     1  UNL1        0.0569
     41 C           6.4048   76.9650   30.9523 C.ar    1  UNL1       -0.0017
     42 C           5.5277   78.0460   30.9590 C.ar    1  UNL1        0.0681
     43 N           4.2841   77.6466   30.6079 N.ar    1  UNL1       -0.3523
     44 C           4.3712   76.3262   30.3699 C.ar    1  UNL1        0.0563
     45 C           3.3487   75.4723   29.9584 C.ar    1  UNL1        0.0170
     46 C           3.6680   74.1184   29.7469 C.ar    1  UNL1        0.0015
     47 C           4.9876   73.6546   29.9457 C.ar    1  UNL1        0.0001
     48 C           5.9998   74.5398   30.3591 C.ar    1  UNL1        0.0012
     49 C           5.6515   75.8747   30.5651 C.ar    1  UNL1        0.0131
     50 H           3.4349   78.2484   30.5242 H       1  UNL1        0.1660
@<TRIPOS>BOND
     1     1     2    2
     2     2     3   am
     3     3    29    1
     4    29    40    1
     5    40    41    1
     6    41    42   ar
     7    42    43   ar
     8    43    44   ar
     9    44    45   ar
    10    45    46   ar
    11    46    47   ar
    12    47    48   ar
    13    48    49   ar
    14    29    30    1
    15    30    31    2
    16    30    32   am
    17    32    34    1
    18    34    35   ar
    19    35    36   ar
    20    36    37   ar
    21    37    38   ar
    22    38    39   ar
    23     2     5    1
    24     5     6   ar
    25     6     7   ar
    26     7     8   ar
    27     8    12    1
    28    12    13    1
    29    13    14    1
    30    14    15    1
    31    15    18    1
    32    18    19   ar
    33    19    20   ar
    34    20    21   ar
    35    21    25    1
    36    25    26    1
    37    25    27    1
    38    25    28    1
    39    21    22   ar
    40    22    23   ar
    41    23    24    1
    42    15    16    1
    43    16    17    1
    44     8     9   ar
    45     9    10   ar
    46    10    11    1
    47    49    41   ar
    48    39    34   ar
    49    10     5   ar
    50    49    44   ar
    51    17    12    1
    52    23    18   ar
    53     3     4    1
    54    43    50    1
    55    32    33    1
@<TRIPOS>MOLECULE
*****
 50 55 0 0 0
SMALL
GASTEIGER

@<TRIPOS>ATOM
      1 O          10.4963   75.7430   26.3880 O.2     1  UNL1       -0.2701
      2 C           9.3480   76.2629   26.4259 C.2     1  UNL1        0.2483
      3 N           8.9732   77.1008   27.5364 N.am    1  UNL1       -0.2945
      4 H           8.0356   77.5609   27.5250 H       1  UNL1        0.1501
      5 C           8.4022   76.0120   25.3140 C.ar    1  UNL1        0.0808
      6 C           8.5261   76.7104   24.1014 C.ar    1  UNL1        0.0080
      7 C           7.6342   76.4761   23.0518 C.ar    1  UNL1        0.0148
      8 C           6.5960   75.5389   23.1902 C.ar    1  UNL1        0.0502
      9 C           6.4652   74.8490   24.4074 C.ar    1  UNL1        0.0443
     10 C           7.3559   75.0818   25.4599 C.ar    1  UNL1        0.1457
     11 F           7.2106   74.3740   26.6092 F       1  UNL1       -0.2040
     12 N           5.6711   75.2982   22.1065 N.pl3   1  UNL1       -0.3040
     13 C           5.7199   74.0309   21.3593 C.3     1  UNL1        0.1123
     14 C           4.3183   73.6239   20.8894 C.3     1  UNL1        0.1136
     15 N           3.6138   74.7450   20.2558 N.pl3   1  UNL1       -0.2894
     16 C           4.1923   76.0929   20.2781 C.3     1  UNL1        0.1136
     17 C           4.7789   76.3827   21.6614 C.3     1  UNL1        0.1123
     18 C           2.2795   74.5382   19.7695 C.ar    1  UNL1        0.1371
     19 N           1.5782   73.4549   20.2015 N.ar    1  UNL1       -0.2288
     20 C           0.3076   73.2029   19.7926 C.ar    1  UNL1        0.1042
     21 C          -0.3359   74.0765   18.9038 C.ar    1  UNL1        0.0910
     22 C           0.3838   75.1753   18.4114 C.ar    1  UNL1        0.0140
     23 C           1.6910   75.4184   18.8427 C.ar    1  UNL1        0.0616
     24 I           2.7399   77.0477   17.9865 I       1  UNL1       -0.0396
     25 C          -1.7265   73.7805   18.4030 C.3     1  UNL1        0.4200
     26 F          -2.6751   74.1911   19.3237 F       1  UNL1       -0.1658
     27 F          -1.9658   74.4413   17.2106 F       1  UNL1       -0.1658
     28 F          -1.8567   72.4196   18.1983 F       1  UNL1       -0.1658
     29 C           9.8753   77.4678   28.6397 C.3     1  UNL1        0.1535
     30 C           9.7235   78.9207   29.0261 C.2     1  UNL1        0.2443
     31 O           9.2116   79.7425   28.2169 O.2     1  UNL1       -0.2730
     32 N          10.2470   79.3812   30.2821 N.am    1  UNL1       -0.2825
     33 H          10.9766   78.7967   30.7495 H       1  UNL1        0.1549
     34 C           9.9021   80.6409   30.8835 C.ar    1  UNL1        0.0535
     35 C           9.1680   80.6569   32.0774 C.ar    1  UNL1        0.0353
     36 C           8.8106   81.8783   32.6534 C.ar    1  UNL1        0.1002
     37 N           9.1590   83.0449   32.0496 N.ar    1  UNL1       -0.2422
     38 C           9.8539   83.0620   30.8816 C.ar    1  UNL1        0.1002
     39 C          10.2323   81.8628   30.2724 C.ar    1  UNL1        0.0353
     40 C           9.6848   76.5391   29.8574 C.3     1  UNL1        0.0569
     41 C           8.3939   75.7771   29.7695 C.ar    1  UNL1       -0.0017
     42 C           8.2461   74.4272   29.4629 C.ar    1  UNL1        0.0681
     43 N           6.9473   74.0617   29.5567 N.ar    1  UNL1       -0.3523
     44 C           6.2766   75.1657   29.9295 C.ar    1  UNL1        0.0563
     45 C           4.9088   75.2813   30.1742 C.ar    1  UNL1        0.0170
     46 C           4.4168   76.5363   30.5774 C.ar    1  UNL1        0.0015
     47 C           5.2934   77.6340   30.7285 C.ar    1  UNL1        0.0001
     48 C           6.6697   77.4872   30.4767 C.ar    1  UNL1        0.0012
     49 C           7.1265   76.2322   30.0740 C.ar    1  UNL1        0.0131
     50 H           6.5524   73.1098   29.3884 H       1  UNL1        0.1660
@<TRIPOS>BOND
     1     1     2    2
     2     2     3   am
     3     3    29    1
     4    29    40    1
     5    40    41    1
     6    41    42   ar
     7    42    43   ar
     8    43    44   ar
     9    44    45   ar
    10    45    46   ar
    11    46    47   ar
    12    47    48   ar
    13    48    49   ar
    14    29    30    1
    15    30    31    2
    16    30    32   am
    17    32    34    1
    18    34    35   ar
    19    35    36   ar
    20    36    37   ar
    21    37    38   ar
    22    38    39   ar
    23     2     5    1
    24     5     6   ar
    25     6     7   ar
    26     7     8   ar
    27     8    12    1
    28    12    13    1
    29    13    14    1
    30    14    15    1
    31    15    18    1
    32    18    19   ar
    33    19    20   ar
    34    20    21   ar
    35    21    25    1
    36    25    26    1
    37    25    27    1
    38    25    28    1
    39    21    22   ar
    40    22    23   ar
    41    23    24    1
    42    15    16    1
    43    16    17    1
    44     8     9   ar
    45     9    10   ar
    46    10    11    1
    47    49    41   ar
    48    39    34   ar
    49    10     5   ar
    50    49    44   ar
    51    17    12    1
    52    23    18   ar
    53     3     4    1
    54    43    50    1
    55    32    33    1
@<TRIPOS>MOLECULE
*****
 50 55 0 0 0
SMALL
GASTEIGER

@<TRIPOS>ATOM
      1 O           7.8670   74.5488   24.8866 O.2     1  UNL1       -0.2701
      2 C           8.1480   75.3550   23.9586 C.2     1  UNL1        0.2483
      3 N           7.6344   75.1323   22.6311 N.am    1  UNL1       -0.2945
      4 H           7.8385   75.8376   21.8882 H       1  UNL1        0.1501
      5 C           8.9966   76.5325   24.2542 C.ar    1  UNL1        0.0808
      6 C           8.5290   77.8315   23.9948 C.ar    1  UNL1        0.0080
      7 C           9.3284   78.9433   24.2718 C.ar    1  UNL1        0.0148
      8 C          10.6154   78.7828   24.8134 C.ar    1  UNL1        0.0502
      9 C          11.0874   77.4827   25.0618 C.ar    1  UNL1        0.0443
     10 C          10.2899   76.3680   24.7850 C.ar    1  UNL1        0.1457
     11 F          10.7737   75.1310   25.0655 F       1  UNL1       -0.2040
     12 N          11.4442   79.9317   25.0972 N.pl3   1  UNL1       -0.3040
     13 C          12.9005   79.7758   25.2444 C.3     1  UNL1        0.1123
     14 C          13.6332   81.0271   24.7460 C.3     1  UNL1        0.1136
     15 N          13.0359   82.2543   25.2861 N.pl3   1  UNL1       -0.2894
     16 C          11.7872   82.1965   26.0537 C.3     1  UNL1        0.1136
     17 C          10.8093   81.2304   25.3813 C.3     1  UNL1        0.1123
     18 C          13.5946   83.5209   24.9075 C.ar    1  UNL1        0.1371
     19 N          13.7133   83.8233   23.5860 N.ar    1  UNL1       -0.2288
     20 C          14.2217   85.0072   23.1554 C.ar    1  UNL1        0.1042
     21 C          14.6368   85.9768   24.0798 C.ar    1  UNL1        0.0910
     22 C          14.5645   85.6686   25.4465 C.ar    1  UNL1        0.0140
     23 C          14.0393   84.4449   25.8711 C.ar    1  UNL1        0.0616
     24 I          14.0450   84.0203   27.9466 I       1  UNL1       -0.0396
     25 C          15.2498   87.2729   23.6147 C.3     1  UNL1        0.4200
     26 F          16.5125   87.0560   23.0905 F       1  UNL1       -0.1658
     27 F          14.4680   87.8570   22.6331 F       1  UNL1       -0.1658
     28 F          15.3497   88.1400   24.6867 F       1  UNL1       -0.1658
     29 C           6.7208   74.0371   22.2684 C.3     1  UNL1        0.1535
     30 C           5.4016   74.5587   21.7480 C.2     1  UNL1        0.2443
     31 O           4.6397   75.2236   22.5027 O.2     1  UNL1       -0.2730
     32 N           4.9764   74.2180   20.4188 N.am    1  UNL1       -0.2825
     33 H           5.4179   73.3867   19.9641 H       1  UNL1        0.1549
     34 C           3.9146   74.8879   19.7178 C.ar    1  UNL1        0.0535
     35 C           4.2214   75.7101   18.6249 C.ar    1  UNL1        0.0353
     36 C           3.1958   76.3814   17.9549 C.ar    1  UNL1        0.1002
     37 N           1.9089   76.2503   18.3717 N.ar    1  UNL1       -0.2422
     38 C           1.5821   75.4758   19.4398 C.ar    1  UNL1        0.1002
     39 C           2.5771   74.7862   20.1374 C.ar    1  UNL1        0.0353
     40 C           7.3760   73.0642   21.2656 C.3     1  UNL1        0.0569
     41 C           8.6253   72.4525   21.8310 C.ar    1  UNL1       -0.0017
     42 C           8.7859   71.1372   22.2577 C.ar    1  UNL1        0.0681
     43 N          10.0672   70.9148   22.6290 N.ar    1  UNL1       -0.3523
     44 C          10.7182   72.0744   22.4306 C.ar    1  UNL1        0.0563
     45 C          12.0704   72.3330   22.6514 C.ar    1  UNL1        0.0170
     46 C          12.5502   73.6220   22.3546 C.ar    1  UNL1        0.0015
     47 C          11.6785   74.6109   21.8464 C.ar    1  UNL1        0.0001
     48 C          10.3189   74.3206   21.6314 C.ar    1  UNL1        0.0012
     49 C           9.8721   73.0356   21.9396 C.ar    1  UNL1        0.0131
     50 H          10.4688   70.0179   22.9822 H       1  UNL1        0.1660
@<TRIPOS>BOND
     1     1     2    2
     2     2     3   am
     3     3    29    1
     4    29    40    1
     5    40    41    1
     6    41    42   ar
     7    42    43   ar
     8    43    44   ar
     9    44    45   ar
    10    45    46   ar
    11    46    47   ar
    12    47    48   ar
    13    48    49   ar
    14    29    30    1
    15    30    31    2
    16    30    32   am
    17    32    34    1
    18    34    35   ar
    19    35    36   ar
    20    36    37   ar
    21    37    38   ar
    22    38    39   ar
    23     2     5    1
    24     5     6   ar
    25     6     7   ar
    26     7     8   ar
    27     8    12    1
    28    12    13    1
    29    13    14    1
    30    14    15    1
    31    15    18    1
    32    18    19   ar
    33    19    20   ar
    34    20    21   ar
    35    21    25    1
    36    25    26    1
    37    25    27    1
    38    25    28    1
    39    21    22   ar
    40    22    23   ar
    41    23    24    1
    42    15    16    1
    43    16    17    1
    44     8     9   ar
    45     9    10   ar
    46    10    11    1
    47    49    41   ar
    48    39    34   ar
    49    10     5   ar
    50    49    44   ar
    51    17    12    1
    52    23    18   ar
    53     3     4    1
    54    43    50    1
    55    32    33    1
@<TRIPOS>MOLECULE
*****
 50 55 0 0 0
SMALL
GASTEIGER

@<TRIPOS>ATOM
      1 O           7.9750   74.7129   25.2053 O.2     1  UNL1       -0.2701
      2 C           8.2056   75.5236   24.2673 C.2     1  UNL1        0.2483
      3 N           7.6148   75.3114   22.9705 N.am    1  UNL1       -0.2945
      4 H           7.7789   76.0202   22.2212 H       1  UNL1        0.1501
      5 C           9.0756   76.6954   24.5201 C.ar    1  UNL1        0.0808
      6 C           8.5613   77.9991   24.4244 C.ar    1  UNL1        0.0080
      7 C           9.3807   79.1057   24.6612 C.ar    1  UNL1        0.0148
      8 C          10.7346   78.9352   24.9979 C.ar    1  UNL1        0.0502
      9 C          11.2517   77.6312   25.0819 C.ar    1  UNL1        0.0443
     10 C          10.4343   76.5218   24.8448 C.ar    1  UNL1        0.1457
     11 F          10.9671   75.2788   24.9633 F       1  UNL1       -0.2040
     12 N          11.5836   80.0790   25.2397 N.pl3   1  UNL1       -0.3040
     13 C          13.0475   79.9247   25.2527 C.3     1  UNL1        0.1123
     14 C          13.7312   81.1926   24.7272 C.3     1  UNL1        0.1136
     15 N          13.1823   82.4016   25.3530 N.pl3   1  UNL1       -0.2894
     16 C          12.0068   82.3171   26.2264 C.3     1  UNL1        0.1136
     17 C          10.9745   81.3665   25.6160 C.3     1  UNL1        0.1123
     18 C          13.7033   83.6807   24.9628 C.ar    1  UNL1        0.1371
     19 N          13.8039   83.9782   23.6387 N.ar    1  UNL1       -0.2288
     20 C          14.2765   85.1728   23.1973 C.ar    1  UNL1        0.1042
     21 C          14.6718   86.1590   24.1128 C.ar    1  UNL1        0.0910
     22 C          14.6181   85.8573   25.4817 C.ar    1  UNL1        0.0140
     23 C          14.1298   84.6223   25.9175 C.ar    1  UNL1        0.0616
     24 I          14.1627   84.2107   27.9954 I       1  UNL1       -0.0396
     25 C          15.2457   87.4685   23.6353 C.3     1  UNL1        0.4200
     26 F          14.3854   88.0820   22.7410 F       1  UNL1       -0.1658
     27 F          15.4485   88.3289   24.7006 F       1  UNL1       -0.1658
     28 F          16.4553   87.2341   23.0086 F       1  UNL1       -0.1658
     29 C           6.6764   74.2225   22.6551 C.3     1  UNL1        0.1535
     30 C           5.2840   74.7446   22.3873 C.2     1  UNL1        0.2443
     31 O           4.4244   74.0052   21.8336 O.2     1  UNL1       -0.2730
     32 N           4.9691   76.1149   22.6821 N.am    1  UNL1       -0.2825
     33 H           5.7633   76.7880   22.7756 H       1  UNL1        0.1549
     34 C           3.6302   76.6338   22.7578 C.ar    1  UNL1        0.0535
     35 C           2.8833   76.7883   21.5819 C.ar    1  UNL1        0.0353
     36 C           1.5906   77.3137   21.6475 C.ar    1  UNL1        0.1002
     37 N           1.0667   77.6883   22.8443 N.ar    1  UNL1       -0.2422
     38 C           1.7733   77.5689   23.9993 C.ar    1  UNL1        0.1002
     39 C           3.0693   77.0471   23.9785 C.ar    1  UNL1        0.0353
     40 C           7.1880   73.3581   21.4836 C.3     1  UNL1        0.0569
     41 C           8.4367   72.6121   21.8565 C.ar    1  UNL1       -0.0017
     42 C           8.5433   71.2480   22.1130 C.ar    1  UNL1        0.0681
     43 N           9.8337   70.9094   22.3356 N.ar    1  UNL1       -0.3523
     44 C          10.5426   72.0451   22.2116 C.ar    1  UNL1        0.0563
     45 C          11.9232   72.1972   22.3338 C.ar    1  UNL1        0.0170
     46 C          12.4624   73.4828   22.1432 C.ar    1  UNL1        0.0015
     47 C          11.6197   74.5740   21.8348 C.ar    1  UNL1        0.0001
     48 C          10.2300   74.3903   21.7155 C.ar    1  UNL1        0.0012
     49 C           9.7249   73.1053   21.9147 C.ar    1  UNL1        0.0131
     50 H          10.2020   69.9550   22.5449 H       1  UNL1        0.1660
@<TRIPOS>BOND
     1     1     2    2
     2     2     3   am
     3     3    29    1
     4    29    40    1
     5    40    41    1
     6    41    42   ar
     7    42    43   ar
     8    43    44   ar
     9    44    45   ar
    10    45    46   ar
    11    46    47   ar
    12    47    48   ar
    13    48    49   ar
    14    29    30    1
    15    30    31    2
    16    30    32   am
    17    32    34    1
    18    34    35   ar
    19    35    36   ar
    20    36    37   ar
    21    37    38   ar
    22    38    39   ar
    23     2     5    1
    24     5     6   ar
    25     6     7   ar
    26     7     8   ar
    27     8    12    1
    28    12    13    1
    29    13    14    1
    30    14    15    1
    31    15    18    1
    32    18    19   ar
    33    19    20   ar
    34    20    21   ar
    35    21    25    1
    36    25    26    1
    37    25    27    1
    38    25    28    1
    39    21    22   ar
    40    22    23   ar
    41    23    24    1
    42    15    16    1
    43    16    17    1
    44     8     9   ar
    45     9    10   ar
    46    10    11    1
    47    49    41   ar
    48    39    34   ar
    49    10     5   ar
    50    49    44   ar
    51    17    12    1
    52    23    18   ar
    53     3     4    1
    54    43    50    1
    55    32    33    1
@<TRIPOS>MOLECULE
*****
 50 55 0 0 0
SMALL
GASTEIGER

@<TRIPOS>ATOM
      1 O          10.6327   74.7340   25.8411 O.2     1  UNL1       -0.2701
      2 C           9.9636   75.7234   25.4365 C.2     1  UNL1        0.2483
      3 N           8.5748   75.5604   25.0897 N.am    1  UNL1       -0.2945
      4 H           8.0260   76.4017   24.8035 H       1  UNL1        0.1501
      5 C          10.6183   77.0483   25.3365 C.ar    1  UNL1        0.0808
      6 C          10.1100   78.1501   26.0444 C.ar    1  UNL1        0.0080
      7 C          10.7253   79.4008   25.9503 C.ar    1  UNL1        0.0148
      8 C          11.8630   79.5803   25.1447 C.ar    1  UNL1        0.0502
      9 C          12.3642   78.4808   24.4274 C.ar    1  UNL1        0.0443
     10 C          11.7502   77.2279   24.5191 C.ar    1  UNL1        0.1457
     11 F          12.2828   76.1859   23.8311 F       1  UNL1       -0.2040
     12 N          12.4982   80.8742   25.0441 N.pl3   1  UNL1       -0.3040
     13 C          13.9078   81.0392   25.4348 C.3     1  UNL1        0.1123
     14 C          14.5878   82.1096   24.5729 C.3     1  UNL1        0.1136
     15 N          13.7739   83.3277   24.4818 N.pl3   1  UNL1       -0.2894
     16 C          12.4145   83.3550   25.0325 C.3     1  UNL1        0.1136
     17 C          11.6890   82.0526   24.6876 C.3     1  UNL1        0.1123
     18 C          14.2597   84.4280   23.6988 C.ar    1  UNL1        0.1371
     19 N          14.4823   84.2462   22.3687 N.ar    1  UNL1       -0.2288
     20 C          14.9302   85.2454   21.5647 C.ar    1  UNL1        0.1042
     21 C          15.1700   86.5230   22.0911 C.ar    1  UNL1        0.0910
     22 C          14.9895   86.7210   23.4681 C.ar    1  UNL1        0.0140
     23 C          14.5288   85.6808   24.2802 C.ar    1  UNL1        0.0616
     24 I          14.3656   86.0349   26.3625 I       1  UNL1       -0.0396
     25 C          15.7157   87.6257   21.2202 C.3     1  UNL1        0.4200
     26 F          15.2059   87.5322   19.9366 F       1  UNL1       -0.1658
     27 F          15.3742   88.8654   21.7325 F       1  UNL1       -0.1658
     28 F          17.0933   87.5240   21.1665 F       1  UNL1       -0.1658
     29 C           7.8259   74.3021   25.2362 C.3     1  UNL1        0.1535
     30 C           6.6241   74.4685   26.1368 C.2     1  UNL1        0.2443
     31 O           5.5560   74.9654   25.6847 O.2     1  UNL1       -0.2730
     32 N           6.7303   74.1436   27.5321 N.am    1  UNL1       -0.2825
     33 H           7.6871   74.1016   27.9511 H       1  UNL1        0.1549
     34 C           5.6014   73.9711   28.4057 C.ar    1  UNL1        0.0535
     35 C           5.2940   74.9695   29.3403 C.ar    1  UNL1        0.0353
     36 C           4.2121   74.7963   30.2069 C.ar    1  UNL1        0.1002
     37 N           3.4719   73.6577   30.1545 N.ar    1  UNL1       -0.2422
     38 C           3.7568   72.6635   29.2726 C.ar    1  UNL1        0.1002
     39 C           4.8295   72.7967   28.3873 C.ar    1  UNL1        0.0353
     40 C           7.4243   73.7213   23.8640 C.3     1  UNL1        0.0569
     41 C           8.4502   74.0358   22.8136 C.ar    1  UNL1       -0.0017
     42 C           8.3891   75.0615   21.8745 C.ar    1  UNL1        0.0681
     43 N           9.5257   75.0991   21.1424 N.ar    1  UNL1       -0.3523
     44 C          10.3069   74.1137   21.6181 C.ar    1  UNL1        0.0563
     45 C          11.5901   73.7725   21.1928 C.ar    1  UNL1        0.0170
     46 C          12.2398   72.7109   21.8491 C.ar    1  UNL1        0.0015
     47 C          11.6009   72.0243   22.9057 C.ar    1  UNL1        0.0001
     48 C          10.3062   72.3921   23.3152 C.ar    1  UNL1        0.0012
     49 C           9.6863   73.4452   22.6423 C.ar    1  UNL1        0.0131
     50 H           9.7528   75.7699   20.3751 H       1  UNL1        0.1660
@<TRIPOS>BOND
     1     1     2    2
     2     2     3   am
     3     3    29    1
     4    29    40    1
     5    40    41    1
     6    41    42   ar
     7    42    43   ar
     8    43    44   ar
     9    44    45   ar
    10    45    46   ar
    11    46    47   ar
    12    47    48   ar
    13    48    49   ar
    14    29    30    1
    15    30    31    2
    16    30    32   am
    17    32    34    1
    18    34    35   ar
    19    35    36   ar
    20    36    37   ar
    21    37    38   ar
    22    38    39   ar
    23     2     5    1
    24     5     6   ar
    25     6     7   ar
    26     7     8   ar
    27     8    12    1
    28    12    13    1
    29    13    14    1
    30    14    15    1
    31    15    18    1
    32    18    19   ar
    33    19    20   ar
    34    20    21   ar
    35    21    25    1
    36    25    26    1
    37    25    27    1
    38    25    28    1
    39    21    22   ar
    40    22    23   ar
    41    23    24    1
    42    15    16    1
    43    16    17    1
    44     8     9   ar
    45     9    10   ar
    46    10    11    1
    47    49    41   ar
    48    39    34   ar
    49    10     5   ar
    50    49    44   ar
    51    17    12    1
    52    23    18   ar
    53     3     4    1
    54    43    50    1
    55    32    33    1
@<TRIPOS>MOLECULE
*****
 50 55 0 0 0
SMALL
GASTEIGER

@<TRIPOS>ATOM
      1 O           6.6685   73.2582   21.8148 O.2     1  UNL1       -0.2701
      2 C           6.1062   74.3034   22.2409 C.2     1  UNL1        0.2483
      3 N           4.8637   74.7415   21.6579 N.am    1  UNL1       -0.2945
      4 H           4.3896   75.5820   22.0575 H       1  UNL1        0.1501
      5 C           6.7305   75.0610   23.3501 C.ar    1  UNL1        0.0808
      6 C           7.1640   76.3829   23.1552 C.ar    1  UNL1        0.0080
      7 C           7.7543   77.0987   24.1998 C.ar    1  UNL1        0.0148
      8 C           7.9267   76.5092   25.4640 C.ar    1  UNL1        0.0502
      9 C           7.5036   75.1829   25.6553 C.ar    1  UNL1        0.0443
     10 C           6.9131   74.4638   24.6116 C.ar    1  UNL1        0.1457
     11 F           6.4938   73.1942   24.8466 F       1  UNL1       -0.2040
     12 N           8.5400   77.2475   26.5440 N.pl3   1  UNL1       -0.3040
     13 C           9.5592   78.2700   26.2567 C.3     1  UNL1        0.1123
     14 C           9.4886   79.4091   27.2807 C.3     1  UNL1        0.1136
     15 N           9.4262   78.8973   28.6550 N.pl3   1  UNL1       -0.2894
     16 C           9.2743   77.4600   28.9057 C.3     1  UNL1        0.1136
     17 C           8.2462   76.8705   27.9376 C.3     1  UNL1        0.1123
     18 C           9.3422   79.8337   29.7394 C.ar    1  UNL1        0.1371
     19 N          10.1845   80.9024   29.7574 N.ar    1  UNL1       -0.2288
     20 C          10.1534   81.8342   30.7454 C.ar    1  UNL1        0.1042
     21 C           9.2250   81.7257   31.7911 C.ar    1  UNL1        0.0910
     22 C           8.3770   80.6085   31.8159 C.ar    1  UNL1        0.0140
     23 C           8.4238   79.6591   30.7910 C.ar    1  UNL1        0.0616
     24 I           7.1722   77.9570   30.9466 I       1  UNL1       -0.0396
     25 C           9.2148   82.7247   32.9197 C.3     1  UNL1        0.4200
     26 F          10.1411   83.7280   32.6927 F       1  UNL1       -0.1658
     27 F           7.9657   83.3083   33.0425 F       1  UNL1       -0.1658
     28 F           9.5293   82.0800   34.1014 F       1  UNL1       -0.1658
     29 C           4.1345   74.0074   20.6114 C.3     1  UNL1        0.1535
     30 C           2.6616   74.3448   20.6149 C.2     1  UNL1        0.2443
     31 O           2.2201   75.2518   21.3728 O.2     1  UNL1       -0.2730
     32 N           1.7519   73.5679   19.8195 N.am    1  UNL1       -0.2825
     33 H           2.0630   72.6190   19.5107 H       1  UNL1        0.1549
     34 C           0.4083   73.9739   19.5076 C.ar    1  UNL1        0.0535
     35 C          -0.5346   73.0070   19.1327 C.ar    1  UNL1        0.0353
     36 C          -1.8351   73.3989   18.8064 C.ar    1  UNL1        0.1002
     37 N          -2.1790   74.7134   18.8365 N.ar    1  UNL1       -0.2422
     38 C          -1.2820   75.6762   19.1772 C.ar    1  UNL1        0.1002
     39 C           0.0289   75.3273   19.5119 C.ar    1  UNL1        0.0353
     40 C           4.7609   74.2372   19.2199 C.3     1  UNL1        0.0569
     41 C           4.5484   75.6469   18.7487 C.ar    1  UNL1       -0.0017
     42 C           3.4945   76.1106   17.9661 C.ar    1  UNL1        0.0681
     43 N           3.5805   77.4507   17.8051 N.ar    1  UNL1       -0.3523
     44 C           4.6726   77.8376   18.4873 C.ar    1  UNL1        0.0563
     45 C           5.1625   79.1348   18.6330 C.ar    1  UNL1        0.0170
     46 C           6.3188   79.3170   19.4137 C.ar    1  UNL1        0.0015
     47 C           6.9501   78.2118   20.0269 C.ar    1  UNL1        0.0001
     48 C           6.4319   76.9141   19.8642 C.ar    1  UNL1        0.0012
     49 C           5.2874   76.7649   19.0808 C.ar    1  UNL1        0.0131
     50 H           2.9209   78.0595   17.2716 H       1  UNL1        0.1660
@<TRIPOS>BOND
     1     1     2    2
     2     2     3   am
     3     3    29    1
     4    29    40    1
     5    40    41    1
     6    41    42   ar
     7    42    43   ar
     8    43    44   ar
     9    44    45   ar
    10    45    46   ar
    11    46    47   ar
    12    47    48   ar
    13    48    49   ar
    14    29    30    1
    15    30    31    2
    16    30    32   am
    17    32    34    1
    18    34    35   ar
    19    35    36   ar
    20    36    37   ar
    21    37    38   ar
    22    38    39   ar
    23     2     5    1
    24     5     6   ar
    25     6     7   ar
    26     7     8   ar
    27     8    12    1
    28    12    13    1
    29    13    14    1
    30    14    15    1
    31    15    18    1
    32    18    19   ar
    33    19    20   ar
    34    20    21   ar
    35    21    25    1
    36    25    26    1
    37    25    27    1
    38    25    28    1
    39    21    22   ar
    40    22    23   ar
    41    23    24    1
    42    15    16    1
    43    16    17    1
    44     8     9   ar
    45     9    10   ar
    46    10    11    1
    47    49    41   ar
    48    39    34   ar
    49    10     5   ar
    50    49    44   ar
    51    17    12    1
    52    23    18   ar
    53     3     4    1
    54    43    50    1
    55    32    33    1
@<TRIPOS>MOLECULE
*****
 50 55 0 0 0
SMALL
GASTEIGER

@<TRIPOS>ATOM
      1 O           9.4412   75.2700   26.4244 O.2     1  UNL1       -0.2701
      2 C           9.2153   76.0759   25.4810 C.2     1  UNL1        0.2483
      3 N           8.1783   75.7903   24.5226 N.am    1  UNL1       -0.2945
      4 H           7.9746   76.4936   23.7777 H       1  UNL1        0.1501
      5 C          10.0171   77.3174   25.3814 C.ar    1  UNL1        0.0808
      6 C           9.5508   78.5147   25.9492 C.ar    1  UNL1        0.0080
      7 C          10.3050   79.6870   25.8552 C.ar    1  UNL1        0.0148
      8 C          11.5429   79.6906   25.1897 C.ar    1  UNL1        0.0502
      9 C          12.0036   78.4954   24.6116 C.ar    1  UNL1        0.0443
     10 C          11.2507   77.3207   24.7035 C.ar    1  UNL1        0.1457
     11 F          11.7451   76.1817   24.1547 F       1  UNL1       -0.2040
     12 N          12.3221   80.9032   25.0890 N.pl3   1  UNL1       -0.3040
     13 C          13.7839   80.8598   25.2567 C.3     1  UNL1        0.1123
     14 C          14.4619   81.9214   24.3824 C.3     1  UNL1        0.1136
     15 N          13.8132   83.2307   24.5212 N.pl3   1  UNL1       -0.2894
     16 C          12.5689   83.3652   25.2863 C.3     1  UNL1        0.1136
     17 C          11.6325   82.1989   24.9629 C.3     1  UNL1        0.1123
     18 C          14.3168   84.3373   23.7585 C.ar    1  UNL1        0.1371
     19 N          14.5697   84.1663   22.4324 N.ar    1  UNL1       -0.2288
     20 C          15.0360   85.1719   21.6471 C.ar    1  UNL1        0.1042
     21 C          15.2639   86.4451   22.1892 C.ar    1  UNL1        0.0910
     22 C          15.0519   86.6319   23.5633 C.ar    1  UNL1        0.0140
     23 C          14.5727   85.5852   24.3561 C.ar    1  UNL1        0.0616
     24 I          14.3620   85.9223   26.4370 I       1  UNL1       -0.0396
     25 C          15.8294   87.5547   21.3400 C.3     1  UNL1        0.4200
     26 F          15.4759   87.3830   20.0127 F       1  UNL1       -0.1658
     27 F          15.3494   88.7830   21.7605 F       1  UNL1       -0.1658
     28 F          17.2079   87.5500   21.4435 F       1  UNL1       -0.1658
     29 C           7.2826   74.6248   24.5927 C.3     1  UNL1        0.1535
     30 C           5.8466   75.0363   24.8198 C.2     1  UNL1        0.2443
     31 O           5.2786   74.7797   25.9169 O.2     1  UNL1       -0.2730
     32 N           5.1017   75.6396   23.7497 N.am    1  UNL1       -0.2825
     33 H           5.4501   75.4994   22.7742 H       1  UNL1        0.1549
     34 C           3.8574   76.3373   23.9298 C.ar    1  UNL1        0.0535
     35 C           3.0840   76.6681   22.8086 C.ar    1  UNL1        0.0353
     36 C           1.8857   77.3662   22.9764 C.ar    1  UNL1        0.1002
     37 N           1.4809   77.7370   24.2197 N.ar    1  UNL1       -0.2422
     38 C           2.2184   77.4477   25.3242 C.ar    1  UNL1        0.1002
     39 C           3.4226   76.7499   25.2011 C.ar    1  UNL1        0.0353
     40 C           7.4206   73.7307   23.3425 C.3     1  UNL1        0.0569
     41 C           8.6180   74.1155   22.5223 C.ar    1  UNL1       -0.0017
     42 C           8.7642   75.2696   21.7576 C.ar    1  UNL1        0.0681
     43 N          10.0045   75.3261   21.2213 N.ar    1  UNL1       -0.3523
     44 C          10.6449   74.2241   21.6491 C.ar    1  UNL1        0.0563
     45 C          11.9600   73.8507   21.3749 C.ar    1  UNL1        0.0170
     46 C          12.4375   72.6572   21.9469 C.ar    1  UNL1        0.0015
     47 C          11.6006   71.8746   22.7735 C.ar    1  UNL1        0.0001
     48 C          10.2782   72.2774   23.0347 C.ar    1  UNL1        0.0012
     49 C           9.8323   73.4626   22.4496 C.ar    1  UNL1        0.0131
     50 H          10.3880   76.0826   20.6123 H       1  UNL1        0.1660
@<TRIPOS>BOND
     1     1     2    2
     2     2     3   am
     3     3    29    1
     4    29    40    1
     5    40    41    1
     6    41    42   ar
     7    42    43   ar
     8    43    44   ar
     9    44    45   ar
    10    45    46   ar
    11    46    47   ar
    12    47    48   ar
    13    48    49   ar
    14    29    30    1
    15    30    31    2
    16    30    32   am
    17    32    34    1
    18    34    35   ar
    19    35    36   ar
    20    36    37   ar
    21    37    38   ar
    22    38    39   ar
    23     2     5    1
    24     5     6   ar
    25     6     7   ar
    26     7     8   ar
    27     8    12    1
    28    12    13    1
    29    13    14    1
    30    14    15    1
    31    15    18    1
    32    18    19   ar
    33    19    20   ar
    34    20    21   ar
    35    21    25    1
    36    25    26    1
    37    25    27    1
    38    25    28    1
    39    21    22   ar
    40    22    23   ar
    41    23    24    1
    42    15    16    1
    43    16    17    1
    44     8     9   ar
    45     9    10   ar
    46    10    11    1
    47    49    41   ar
    48    39    34   ar
    49    10     5   ar
    50    49    44   ar
    51    17    12    1
    52    23    18   ar
    53     3     4    1
    54    43    50    1
    55    32    33    1
@<TRIPOS>MOLECULE
*****
 50 55 0 0 0
SMALL
GASTEIGER

@<TRIPOS>ATOM
      1 O           7.4688   76.7622   21.1836 O.2     1  UNL1       -0.2701
      2 C           7.8770   76.6266   22.3690 C.2     1  UNL1        0.2483
      3 N           7.4819   75.4750   23.1394 N.am    1  UNL1       -0.2945
      4 H           7.8698   75.3568   24.1019 H       1  UNL1        0.1501
      5 C           8.7724   77.6542   22.9488 C.ar    1  UNL1        0.0808
      6 C           9.5525   77.3636   24.0804 C.ar    1  UNL1        0.0080
      7 C          10.3968   78.3319   24.6295 C.ar    1  UNL1        0.0148
      8 C          10.4800   79.6147   24.0612 C.ar    1  UNL1        0.0502
      9 C           9.6907   79.9087   22.9363 C.ar    1  UNL1        0.0443
     10 C           8.8444   78.9419   22.3849 C.ar    1  UNL1        0.1457
     11 F           8.1195   79.2589   21.2817 F       1  UNL1       -0.2040
     12 N          11.3503   80.6179   24.6302 N.pl3   1  UNL1       -0.3040
     13 C          12.7930   80.3573   24.7630 C.3     1  UNL1        0.1123
     14 C          13.5959   81.6529   24.5961 C.3     1  UNL1        0.1136
     15 N          13.0377   82.7427   25.4057 N.pl3   1  UNL1       -0.2894
     16 C          11.7647   82.5654   26.1126 C.3     1  UNL1        0.1136
     17 C          10.7657   81.8405   25.2080 C.3     1  UNL1        0.1123
     18 C          13.6639   84.0331   25.3555 C.ar    1  UNL1        0.1371
     19 N          13.8387   84.6373   24.1488 N.ar    1  UNL1       -0.2288
     20 C          14.4127   85.8625   24.0271 C.ar    1  UNL1        0.1042
     21 C          14.8400   86.5597   25.1666 C.ar    1  UNL1        0.0910
     22 C          14.7097   85.9368   26.4167 C.ar    1  UNL1        0.0140
     23 C          14.1174   84.6751   26.5226 C.ar    1  UNL1        0.0616
     24 I          14.0370   83.7654   28.4341 I       1  UNL1       -0.0396
     25 C          15.5245   87.8968   25.0406 C.3     1  UNL1        0.4200
     26 F          16.4312   87.8851   23.9947 F       1  UNL1       -0.1658
     27 F          14.5987   88.8973   24.8000 F       1  UNL1       -0.1658
     28 F          16.1960   88.1771   26.2160 F       1  UNL1       -0.1658
     29 C           6.6640   74.3688   22.6168 C.3     1  UNL1        0.1535
     30 C           5.2593   74.8187   22.2888 C.2     1  UNL1        0.2443
     31 O           4.4057   73.9853   21.8777 O.2     1  UNL1       -0.2730
     32 N           4.9244   76.2139   22.3594 N.am    1  UNL1       -0.2825
     33 H           5.7079   76.9051   22.3285 H       1  UNL1        0.1549
     34 C           3.5778   76.7180   22.3698 C.ar    1  UNL1        0.0535
     35 C           3.0409   77.2256   23.5608 C.ar    1  UNL1        0.0353
     36 C           1.7254   77.6952   23.5818 C.ar    1  UNL1        0.1002
     37 N           0.9653   77.6444   22.4563 N.ar    1  UNL1       -0.2422
     38 C           1.4512   77.1401   21.2914 C.ar    1  UNL1        0.1002
     39 C           2.7621   76.6610   21.2266 C.ar    1  UNL1        0.0353
     40 C           7.3365   73.6941   21.4027 C.3     1  UNL1        0.0569
     41 C           8.4763   72.8131   21.8263 C.ar    1  UNL1       -0.0017
     42 C           8.4582   71.4249   21.9300 C.ar    1  UNL1        0.0681
     43 N           9.6853   70.9605   22.2583 N.ar    1  UNL1       -0.3523
     44 C          10.4790   72.0416   22.3522 C.ar    1  UNL1        0.0563
     45 C          11.8408   72.0670   22.6500 C.ar    1  UNL1        0.0170
     46 C          12.4849   73.3177   22.6764 C.ar    1  UNL1        0.0015
     47 C          11.7623   74.5009   22.4043 C.ar    1  UNL1        0.0001
     48 C          10.3890   74.4446   22.1045 C.ar    1  UNL1        0.0012
     49 C           9.7777   73.1908   22.0906 C.ar    1  UNL1        0.0131
     50 H           9.9597   69.9622   22.3943 H       1  UNL1        0.1660
@<TRIPOS>BOND
     1     1     2    2
     2     2     3   am
     3     3    29    1
     4    29    40    1
     5    40    41    1
     6    41    42   ar
     7    42    43   ar
     8    43    44   ar
     9    44    45   ar
    10    45    46   ar
    11    46    47   ar
    12    47    48   ar
    13    48    49   ar
    14    29    30    1
    15    30    31    2
    16    30    32   am
    17    32    34    1
    18    34    35   ar
    19    35    36   ar
    20    36    37   ar
    21    37    38   ar
    22    38    39   ar
    23     2     5    1
    24     5     6   ar
    25     6     7   ar
    26     7     8   ar
    27     8    12    1
    28    12    13    1
    29    13    14    1
    30    14    15    1
    31    15    18    1
    32    18    19   ar
    33    19    20   ar
    34    20    21   ar
    35    21    25    1
    36    25    26    1
    37    25    27    1
    38    25    28    1
    39    21    22   ar
    40    22    23   ar
    41    23    24    1
    42    15    16    1
    43    16    17    1
    44     8     9   ar
    45     9    10   ar
    46    10    11    1
    47    49    41   ar
    48    39    34   ar
    49    10     5   ar
    50    49    44   ar
    51    17    12    1
    52    23    18   ar
    53     3     4    1
    54    43    50    1
    55    32    33    1
@<TRIPOS>MOLECULE
*****
 50 55 0 0 0
SMALL
GASTEIGER

@<TRIPOS>ATOM
      1 O           5.7145   73.2134   21.8322 O.2     1  UNL1       -0.2701
      2 C           5.2695   74.3402   22.1826 C.2     1  UNL1        0.2483
      3 N           4.3104   75.0251   21.3540 N.am    1  UNL1       -0.2945
      4 H           3.9177   75.9343   21.6858 H       1  UNL1        0.1501
      5 C           5.7339   74.9384   23.4555 C.ar    1  UNL1        0.0808
      6 C           6.4406   74.1645   24.3910 C.ar    1  UNL1        0.0080
      7 C           6.8785   74.7267   25.5927 C.ar    1  UNL1        0.0148
      8 C           6.6187   76.0759   25.8887 C.ar    1  UNL1        0.0502
      9 C           5.9015   76.8466   24.9579 C.ar    1  UNL1        0.0443
     10 C           5.4615   76.2867   23.7546 C.ar    1  UNL1        0.1457
     11 F           4.7957   77.0736   22.8712 F       1  UNL1       -0.2040
     12 N           7.0682   76.6573   27.1327 N.pl3   1  UNL1       -0.3040
     13 C           8.4277   76.3863   27.6280 C.3     1  UNL1        0.1123
     14 C           8.9767   77.5954   28.3947 C.3     1  UNL1        0.1136
     15 N           8.0026   78.1072   29.3661 N.pl3   1  UNL1       -0.2894
     16 C           6.6364   77.5740   29.3987 C.3     1  UNL1        0.1136
     17 C           6.1126   77.4017   27.9713 C.3     1  UNL1        0.1123
     18 C           8.3527   79.2494   30.1615 C.ar    1  UNL1        0.1371
     19 N           7.7789   79.4042   31.3857 N.ar    1  UNL1       -0.2288
     20 C           8.0717   80.4538   32.1968 C.ar    1  UNL1        0.1042
     21 C           9.0020   81.4223   31.7923 C.ar    1  UNL1        0.0910
     22 C           9.5724   81.3062   30.5160 C.ar    1  UNL1        0.0140
     23 C           9.2585   80.2197   29.6946 C.ar    1  UNL1        0.0616
     24 I          10.0941   80.1628   27.7487 I       1  UNL1       -0.0396
     25 C           9.2969   82.6182   32.6611 C.3     1  UNL1        0.4200
     26 F           8.1271   83.2751   33.0019 F       1  UNL1       -0.1658
     27 F           9.9302   82.2281   33.8285 F       1  UNL1       -0.1658
     28 F          10.1191   83.4900   31.9720 F       1  UNL1       -0.1658
     29 C           3.7352   74.4692   20.1187 C.3     1  UNL1        0.1535
     30 C           2.2539   74.7496   20.0164 C.2     1  UNL1        0.2443
     31 O           1.7981   75.8806   20.3406 O.2     1  UNL1       -0.2730
     32 N           1.3551   73.6957   19.6355 N.am    1  UNL1       -0.2825
     33 H           1.6875   72.7102   19.7403 H       1  UNL1        0.1549
     34 C          -0.0031   73.9101   19.2148 C.ar    1  UNL1        0.0535
     35 C          -0.6625   72.9151   18.4802 C.ar    1  UNL1        0.0353
     36 C          -1.9741   73.1280   18.0492 C.ar    1  UNL1        0.1002
     37 N          -2.6012   74.3013   18.3272 N.ar    1  UNL1       -0.2422
     38 C          -1.9816   75.2926   19.0206 C.ar    1  UNL1        0.1002
     39 C          -0.6703   75.1203   19.4712 C.ar    1  UNL1        0.0353
     40 C           4.4901   74.9700   18.8694 C.3     1  UNL1        0.0569
     41 C           4.7421   76.4487   18.9367 C.ar    1  UNL1       -0.0017
     42 C           3.9344   77.4531   18.4107 C.ar    1  UNL1        0.0681
     43 N           4.4271   78.6711   18.7316 N.ar    1  UNL1       -0.3523
     44 C           5.5318   78.4440   19.4636 C.ar    1  UNL1        0.0563
     45 C           6.3737   79.3941   20.0402 C.ar    1  UNL1        0.0170
     46 C           7.4713   78.9317   20.7892 C.ar    1  UNL1        0.0015
     47 C           7.6982   77.5461   20.9462 C.ar    1  UNL1        0.0001
     48 C           6.8304   76.6101   20.3546 C.ar    1  UNL1        0.0012
     49 C           5.7540   77.0991   19.6143 C.ar    1  UNL1        0.0131
     50 H           4.0196   79.5975   18.4745 H       1  UNL1        0.1660
@<TRIPOS>BOND
     1     1     2    2
     2     2     3   am
     3     3    29    1
     4    29    40    1
     5    40    41    1
     6    41    42   ar
     7    42    43   ar
     8    43    44   ar
     9    44    45   ar
    10    45    46   ar
    11    46    47   ar
    12    47    48   ar
    13    48    49   ar
    14    29    30    1
    15    30    31    2
    16    30    32   am
    17    32    34    1
    18    34    35   ar
    19    35    36   ar
    20    36    37   ar
    21    37    38   ar
    22    38    39   ar
    23     2     5    1
    24     5     6   ar
    25     6     7   ar
    26     7     8   ar
    27     8    12    1
    28    12    13    1
    29    13    14    1
    30    14    15    1
    31    15    18    1
    32    18    19   ar
    33    19    20   ar
    34    20    21   ar
    35    21    25    1
    36    25    26    1
    37    25    27    1
    38    25    28    1
    39    21    22   ar
    40    22    23   ar
    41    23    24    1
    42    15    16    1
    43    16    17    1
    44     8     9   ar
    45     9    10   ar
    46    10    11    1
    47    49    41   ar
    48    39    34   ar
    49    10     5   ar
    50    49    44   ar
    51    17    12    1
    52    23    18   ar
    53     3     4    1
    54    43    50    1
    55    32    33    1
