@<TRIPOS>MOLECULE
*****
 37 40 0 0 0
SMALL
GASTEIGER

@<TRIPOS>ATOM
      1 C         -19.4326  -10.2439  -10.2650 C.ar    1  UNL1        0.0443
      2 C         -20.5370  -10.0275  -11.0938 C.ar    1  UNL1        0.0010
      3 C         -21.0665  -11.0583  -11.8785 C.ar    1  UNL1       -0.0017
      4 C         -20.4919  -12.3506  -11.8041 C.ar    1  UNL1        0.0145
      5 C         -19.3075  -12.5514  -11.0490 C.ar    1  UNL1        0.1633
      6 O         -18.6203  -13.7665  -11.1047 O.3     1  UNL1       -0.5031
      7 C         -18.7957  -11.4985  -10.2475 C.ar    1  UNL1        0.1701
      8 C         -21.1704  -13.4852  -12.5466 C.3     1  UNL1        0.0299
      9 C         -20.9116  -13.4072  -14.0584 C.3     1  UNL1        0.0091
     10 C         -21.0575  -11.9888  -14.6420 C.3     1  UNL1        0.0227
     11 C         -22.2496  -11.2430  -14.0698 C.2     1  UNL1       -0.0398
     12 C         -22.2172  -10.7687  -12.7918 C.2     1  UNL1       -0.0076
     13 H         -18.7879  -14.4820  -11.7983 H       1  UNL1        0.2923
     14 C         -23.3510   -9.9939  -12.2420 C.ar    1  UNL1        0.0056
     15 C         -23.6699   -8.7481  -12.7832 C.ar    1  UNL1        0.0402
     16 C         -24.7284   -7.9915  -12.2521 C.ar    1  UNL1        0.1754
     17 C         -25.4805   -8.4925  -11.1750 C.ar    1  UNL1        0.2061
     18 C         -25.1712   -9.7680  -10.6335 C.ar    1  UNL1        0.1754
     19 C         -24.1033  -10.5039  -11.1803 C.ar    1  UNL1        0.0402
     20 O         -25.0653   -6.7287  -12.7663 O.3     1  UNL1       -0.4683
     21 C         -25.8017   -6.5147  -13.9663 C.3     1  UNL1        0.2526
     22 O         -26.5181   -7.6710  -10.6937 O.3     1  UNL1       -0.4654
     23 C         -27.9001   -7.7719  -11.0186 C.3     1  UNL1        0.2528
     24 O         -25.9236  -10.2810   -9.5652 O.3     1  UNL1       -0.4683
     25 C         -25.3770  -10.8852   -8.3970 C.3     1  UNL1        0.2526
     26 O         -17.6579  -11.6294   -9.4252 O.3     1  UNL1       -0.4686
     27 C         -17.4463  -12.6021   -8.4080 C.3     1  UNL1        0.2526
     28 C         -18.8904   -9.0972   -9.4438 C.3     1  UNL1        0.1718
     29 C         -19.6962   -8.2256   -7.4524 C.3     1  UNL1        0.1746
     30 O         -19.0813   -9.3392   -8.0630 O.3     1  UNL1       -0.3462
     31 C         -23.4649  -11.0611  -14.9628 C.3     1  UNL1        0.0483
     32 C         -24.3119  -12.3068  -15.0376 C.ar    1  UNL1       -0.0181
     33 C         -25.2985  -12.5518  -14.0660 C.ar    1  UNL1       -0.0039
     34 C         -26.0821  -13.7074  -14.1319 C.ar    1  UNL1       -0.0003
     35 C         -25.8770  -14.6351  -15.1563 C.ar    1  UNL1       -0.0000
     36 C         -24.8868  -14.4092  -16.1159 C.ar    1  UNL1       -0.0003
     37 C         -24.1017  -13.2538  -16.0552 C.ar    1  UNL1       -0.0039
@<TRIPOS>BOND
     1    29    30    1
     2    30    28    1
     3    28     1    1
     4     1     2   ar
     5     2     3   ar
     6     3     4   ar
     7     4     5   ar
     8     5     6    1
     9     5     7   ar
    10     7    26    1
    11    26    27    1
    12     4     8    1
    13     8     9    1
    14     9    10    1
    15    10    11    1
    16    11    31    1
    17    31    32    1
    18    32    33   ar
    19    33    34   ar
    20    34    35   ar
    21    35    36   ar
    22    36    37   ar
    23    11    12    2
    24    12    14    1
    25    14    15   ar
    26    15    16   ar
    27    16    20    1
    28    20    21    1
    29    16    17   ar
    30    17    22    1
    31    22    23    1
    32    17    18   ar
    33    18    24    1
    34    24    25    1
    35    18    19   ar
    36     7     1   ar
    37    37    32   ar
    38    19    14   ar
    39    12     3    1
    40     6    13    1
@<TRIPOS>MOLECULE
*****
 37 40 0 0 0
SMALL
GASTEIGER

@<TRIPOS>ATOM
      1 C         -19.3974  -10.2383  -10.2351 C.ar    1  UNL1        0.0443
      2 C         -20.5054  -10.0136  -11.0568 C.ar    1  UNL1        0.0010
      3 C         -21.0468  -11.0400  -11.8391 C.ar    1  UNL1       -0.0017
      4 C         -20.4805  -12.3363  -11.7695 C.ar    1  UNL1        0.0145
      5 C         -19.2929  -12.5459  -11.0220 C.ar    1  UNL1        0.1633
      6 O         -18.6144  -13.7655  -11.0831 O.3     1  UNL1       -0.5031
      7 C         -18.7690  -11.4973  -10.2227 C.ar    1  UNL1        0.1701
      8 C         -21.1714  -13.4655  -12.5088 C.3     1  UNL1        0.0299
      9 C         -20.9215  -13.3878  -14.0222 C.3     1  UNL1        0.0091
     10 C         -21.0613  -11.9679  -14.6035 C.3     1  UNL1        0.0227
     11 C         -22.2448  -11.2146  -14.0232 C.2     1  UNL1       -0.0398
     12 C         -22.2012  -10.7417  -12.7450 C.2     1  UNL1       -0.0076
     13 H         -18.7911  -14.4792  -11.7763 H       1  UNL1        0.2923
     14 C         -23.3262   -9.9598  -12.1875 C.ar    1  UNL1        0.0056
     15 C         -24.0770  -10.4767  -11.1312 C.ar    1  UNL1        0.0402
     16 C         -25.1644   -9.7543  -10.6107 C.ar    1  UNL1        0.1754
     17 C         -25.4962   -8.4979  -11.1474 C.ar    1  UNL1        0.2061
     18 C         -24.7233   -7.9600  -12.2099 C.ar    1  UNL1        0.1754
     19 C         -23.6422   -8.7054  -12.7165 C.ar    1  UNL1        0.0402
     20 O         -25.9470  -10.2536   -9.5568 O.3     1  UNL1       -0.4683
     21 C         -25.4272  -10.9035   -8.4013 C.3     1  UNL1        0.2526
     22 O         -26.6041   -7.8412  -10.5779 O.3     1  UNL1       -0.4654
     23 C         -27.9288   -7.8066  -11.0971 C.3     1  UNL1        0.2528
     24 O         -25.0405   -6.7015  -12.7448 O.3     1  UNL1       -0.4683
     25 C         -25.7806   -6.4858  -13.9424 C.3     1  UNL1        0.2526
     26 O         -17.6270  -11.6366   -9.4075 O.3     1  UNL1       -0.4686
     27 C         -17.4224  -12.6015   -8.3815 C.3     1  UNL1        0.2526
     28 C         -18.8424   -9.0962   -9.4162 C.3     1  UNL1        0.1718
     29 C         -19.7226   -8.2442   -7.4479 C.3     1  UNL1        0.1746
     30 O         -19.0404   -9.3309   -8.0351 O.3     1  UNL1       -0.3462
     31 C         -23.4643  -11.0235  -14.9085 C.3     1  UNL1        0.0483
     32 C         -24.3088  -12.2701  -14.9964 C.ar    1  UNL1       -0.0181
     33 C         -25.3019  -12.5220  -14.0333 C.ar    1  UNL1       -0.0039
     34 C         -26.0832  -13.6784  -14.1114 C.ar    1  UNL1       -0.0003
     35 C         -25.8692  -14.6000  -15.1395 C.ar    1  UNL1       -0.0000
     36 C         -24.8725  -14.3672  -16.0906 C.ar    1  UNL1       -0.0003
     37 C         -24.0897  -13.2110  -16.0177 C.ar    1  UNL1       -0.0039
@<TRIPOS>BOND
     1    29    30    1
     2    30    28    1
     3    28     1    1
     4     1     2   ar
     5     2     3   ar
     6     3     4   ar
     7     4     5   ar
     8     5     6    1
     9     5     7   ar
    10     7    26    1
    11    26    27    1
    12     4     8    1
    13     8     9    1
    14     9    10    1
    15    10    11    1
    16    11    31    1
    17    31    32    1
    18    32    33   ar
    19    33    34   ar
    20    34    35   ar
    21    35    36   ar
    22    36    37   ar
    23    11    12    2
    24    12    14    1
    25    14    15   ar
    26    15    16   ar
    27    16    20    1
    28    20    21    1
    29    16    17   ar
    30    17    22    1
    31    22    23    1
    32    17    18   ar
    33    18    24    1
    34    24    25    1
    35    18    19   ar
    36     7     1   ar
    37    37    32   ar
    38    19    14   ar
    39    12     3    1
    40     6    13    1
@<TRIPOS>MOLECULE
*****
 37 40 0 0 0
SMALL
GASTEIGER

@<TRIPOS>ATOM
      1 C         -19.6799  -11.7278  -10.6649 C.ar    1  UNL1        0.0443
      2 C         -21.0105  -11.4766  -11.0115 C.ar    1  UNL1        0.0010
      3 C         -21.6382  -10.2782  -10.6531 C.ar    1  UNL1       -0.0017
      4 C         -20.8998   -9.2908   -9.9562 C.ar    1  UNL1        0.0145
      5 C         -19.5852   -9.5811   -9.5083 C.ar    1  UNL1        0.1633
      6 O         -18.9047   -8.6986   -8.6658 O.3     1  UNL1       -0.5031
      7 C         -18.9605  -10.7946   -9.8957 C.ar    1  UNL1        0.1701
      8 C         -21.5513   -7.9443   -9.7085 C.3     1  UNL1        0.0299
      9 C         -22.5974   -8.0193   -8.5865 C.3     1  UNL1        0.0091
     10 C         -23.5209   -9.2491   -8.6784 C.3     1  UNL1        0.0227
     11 C         -23.9601   -9.5429  -10.1017 C.2     1  UNL1       -0.0398
     12 C         -23.0806  -10.0731  -10.9988 C.2     1  UNL1       -0.0076
     13 H         -19.3421   -7.9305   -8.1759 H       1  UNL1        0.2923
     14 C         -23.5119  -10.4138  -12.3721 C.ar    1  UNL1        0.0056
     15 C         -24.3693  -11.4938  -12.5844 C.ar    1  UNL1        0.0402
     16 C         -24.7650  -11.8428  -13.8869 C.ar    1  UNL1        0.1754
     17 C         -24.3049  -11.0965  -14.9860 C.ar    1  UNL1        0.2061
     18 C         -23.4472   -9.9853  -14.7728 C.ar    1  UNL1        0.1754
     19 C         -23.0619   -9.6593  -13.4590 C.ar    1  UNL1        0.0402
     20 O         -25.6164  -12.9322  -14.1340 O.3     1  UNL1       -0.4683
     21 C         -25.1887  -14.2871  -14.2296 C.3     1  UNL1        0.2526
     22 O         -24.7387  -11.5148  -16.2588 O.3     1  UNL1       -0.4654
     23 C         -23.9666  -12.2085  -17.2326 C.3     1  UNL1        0.2528
     24 O         -22.9916   -9.2278  -15.8633 O.3     1  UNL1       -0.4683
     25 C         -22.6700   -7.8410  -15.8172 C.3     1  UNL1        0.2526
     26 O         -17.6394  -11.1371   -9.5417 O.3     1  UNL1       -0.4686
     27 C         -17.2018  -11.6869   -8.3041 C.3     1  UNL1        0.2526
     28 C         -19.0483  -13.0406  -11.0656 C.3     1  UNL1        0.1718
     29 C         -20.0271  -13.5092  -13.1144 C.3     1  UNL1        0.1746
     30 O         -19.9826  -13.8556  -11.7472 O.3     1  UNL1       -0.3462
     31 C         -25.3941   -9.2154  -10.4811 C.3     1  UNL1        0.0483
     32 C         -25.4758   -8.1433  -11.5387 C.ar    1  UNL1       -0.0181
     33 C         -24.6869   -6.9840  -11.4343 C.ar    1  UNL1       -0.0039
     34 C         -24.7639   -5.9879  -12.4119 C.ar    1  UNL1       -0.0003
     35 C         -25.6395   -6.1319  -13.4911 C.ar    1  UNL1       -0.0000
     36 C         -26.4405   -7.2721  -13.5938 C.ar    1  UNL1       -0.0003
     37 C         -26.3658   -8.2720  -12.6194 C.ar    1  UNL1       -0.0039
@<TRIPOS>BOND
     1    29    30    1
     2    30    28    1
     3    28     1    1
     4     1     2   ar
     5     2     3   ar
     6     3     4   ar
     7     4     5   ar
     8     5     6    1
     9     5     7   ar
    10     7    26    1
    11    26    27    1
    12     4     8    1
    13     8     9    1
    14     9    10    1
    15    10    11    1
    16    11    31    1
    17    31    32    1
    18    32    33   ar
    19    33    34   ar
    20    34    35   ar
    21    35    36   ar
    22    36    37   ar
    23    11    12    2
    24    12    14    1
    25    14    15   ar
    26    15    16   ar
    27    16    20    1
    28    20    21    1
    29    16    17   ar
    30    17    22    1
    31    22    23    1
    32    17    18   ar
    33    18    24    1
    34    24    25    1
    35    18    19   ar
    36     7     1   ar
    37    37    32   ar
    38    19    14   ar
    39    12     3    1
    40     6    13    1
@<TRIPOS>MOLECULE
*****
 37 40 0 0 0
SMALL
GASTEIGER

@<TRIPOS>ATOM
      1 C         -19.6191  -11.7183  -10.6073 C.ar    1  UNL1        0.0443
      2 C         -20.9496  -11.4852  -10.9665 C.ar    1  UNL1        0.0010
      3 C         -21.5925  -10.2895  -10.6267 C.ar    1  UNL1       -0.0017
      4 C         -20.8696   -9.2863   -9.9361 C.ar    1  UNL1        0.0145
      5 C         -19.5553   -9.5575   -9.4752 C.ar    1  UNL1        0.1633
      6 O         -18.8903   -8.6581   -8.6381 O.3     1  UNL1       -0.5031
      7 C         -18.9152  -10.7688   -9.8439 C.ar    1  UNL1        0.1701
      8 C         -21.5369   -7.9439   -9.7088 C.3     1  UNL1        0.0299
      9 C         -22.5904   -8.0169   -8.5937 C.3     1  UNL1        0.0091
     10 C         -23.5003   -9.2574   -8.6779 C.3     1  UNL1        0.0227
     11 C         -23.9259   -9.5723  -10.1007 C.2     1  UNL1       -0.0398
     12 C         -23.0343  -10.1035  -10.9852 C.2     1  UNL1       -0.0076
     13 H         -19.3393   -7.8891   -8.1605 H       1  UNL1        0.2923
     14 C         -23.4519  -10.4647  -12.3575 C.ar    1  UNL1        0.0056
     15 C         -23.0100   -9.7058  -13.4418 C.ar    1  UNL1        0.0402
     16 C         -23.4212  -10.0238  -14.7475 C.ar    1  UNL1        0.1754
     17 C         -24.2753  -11.1184  -14.9695 C.ar    1  UNL1        0.2061
     18 C         -24.7123  -11.9044  -13.8709 C.ar    1  UNL1        0.1754
     19 C         -24.2899  -11.5622  -12.5726 C.ar    1  UNL1        0.0402
     20 O         -23.0042   -9.2714  -15.8577 O.3     1  UNL1       -0.4683
     21 C         -22.6210   -7.9009  -15.8077 C.3     1  UNL1        0.2526
     22 O         -24.6493  -11.3663  -16.3043 O.3     1  UNL1       -0.4654
     23 C         -23.9094  -12.1060  -17.2692 C.3     1  UNL1        0.2528
     24 O         -25.5564  -13.0056  -14.0841 O.3     1  UNL1       -0.4683
     25 C         -25.1164  -14.3241  -14.3948 C.3     1  UNL1        0.2526
     26 O         -17.5932  -11.0931   -9.4763 O.3     1  UNL1       -0.4686
     27 C         -17.1657  -11.6743   -8.2495 C.3     1  UNL1        0.2526
     28 C         -18.9708  -13.0290  -10.9881 C.3     1  UNL1        0.1718
     29 C         -19.9730  -13.5205  -13.0201 C.3     1  UNL1        0.1746
     30 O         -19.8955  -13.8672  -11.6545 O.3     1  UNL1       -0.3462
     31 C         -25.3604   -9.2644  -10.4943 C.3     1  UNL1        0.0483
     32 C         -25.4465   -8.1895  -11.5488 C.ar    1  UNL1       -0.0181
     33 C         -24.6714   -7.0218  -11.4347 C.ar    1  UNL1       -0.0039
     34 C         -24.7524   -6.0232  -12.4094 C.ar    1  UNL1       -0.0003
     35 C         -25.6186   -6.1732  -13.4954 C.ar    1  UNL1       -0.0000
     36 C         -26.4062   -7.3218  -13.6078 C.ar    1  UNL1       -0.0003
     37 C         -26.3272   -8.3243  -12.6364 C.ar    1  UNL1       -0.0039
@<TRIPOS>BOND
     1    29    30    1
     2    30    28    1
     3    28     1    1
     4     1     2   ar
     5     2     3   ar
     6     3     4   ar
     7     4     5   ar
     8     5     6    1
     9     5     7   ar
    10     7    26    1
    11    26    27    1
    12     4     8    1
    13     8     9    1
    14     9    10    1
    15    10    11    1
    16    11    31    1
    17    31    32    1
    18    32    33   ar
    19    33    34   ar
    20    34    35   ar
    21    35    36   ar
    22    36    37   ar
    23    11    12    2
    24    12    14    1
    25    14    15   ar
    26    15    16   ar
    27    16    20    1
    28    20    21    1
    29    16    17   ar
    30    17    22    1
    31    22    23    1
    32    17    18   ar
    33    18    24    1
    34    24    25    1
    35    18    19   ar
    36     7     1   ar
    37    37    32   ar
    38    19    14   ar
    39    12     3    1
    40     6    13    1
@<TRIPOS>MOLECULE
*****
 37 40 0 0 0
SMALL
GASTEIGER

@<TRIPOS>ATOM
      1 C         -18.9536  -10.8055   -9.3871 C.ar    1  UNL1        0.0443
      2 C         -20.0579  -10.9213  -10.2360 C.ar    1  UNL1        0.0010
      3 C         -21.0973   -9.9846  -10.2039 C.ar    1  UNL1       -0.0017
      4 C         -21.0099   -8.8830   -9.3181 C.ar    1  UNL1        0.0145
      5 C         -19.9470   -8.8168   -8.3804 C.ar    1  UNL1        0.1633
      6 O         -19.9356   -7.8431   -7.3788 O.3     1  UNL1       -0.5031
      7 C         -18.8948   -9.7666   -8.4399 C.ar    1  UNL1        0.1701
      8 C         -22.0710   -7.8032   -9.4035 C.3     1  UNL1        0.0299
      9 C         -23.3962   -8.2608   -8.7765 C.3     1  UNL1        0.0091
     10 C         -23.8073   -9.6933   -9.1675 C.3     1  UNL1        0.0227
     11 C         -23.5570   -9.9913  -10.6349 C.2     1  UNL1       -0.0398
     12 C         -22.2863  -10.1765  -11.0936 C.2     1  UNL1       -0.0076
     13 H         -20.7326   -7.2727   -7.1326 H       1  UNL1        0.2923
     14 C         -22.0346  -10.5209  -12.5099 C.ar    1  UNL1        0.0056
     15 C         -22.0207   -9.5166  -13.4784 C.ar    1  UNL1        0.0402
     16 C         -21.8085   -9.8351  -14.8306 C.ar    1  UNL1        0.1754
     17 C         -21.5985  -11.1712  -15.2145 C.ar    1  UNL1        0.2061
     18 C         -21.5933  -12.1939  -14.2297 C.ar    1  UNL1        0.1754
     19 C         -21.8128  -11.8494  -12.8829 C.ar    1  UNL1        0.0402
     20 O         -21.8019   -8.8485  -15.8302 O.3     1  UNL1       -0.4683
     21 C         -20.6459   -8.1308  -16.2502 C.3     1  UNL1        0.2526
     22 O         -21.4026  -11.4096  -16.5884 O.3     1  UNL1       -0.4654
     23 C         -22.3974  -11.7842  -17.5348 C.3     1  UNL1        0.2528
     24 O         -21.3737  -13.5294  -14.6023 O.3     1  UNL1       -0.4683
     25 C         -22.3973  -14.4696  -14.9136 C.3     1  UNL1        0.2526
     26 O         -17.7747   -9.7412   -7.5838 O.3     1  UNL1       -0.4686
     27 C         -17.7586  -10.0258   -6.1894 C.3     1  UNL1        0.2526
     28 C         -17.8609  -11.8471   -9.4517 C.3     1  UNL1        0.1718
     29 C         -15.6581  -12.2330   -8.8403 C.3     1  UNL1        0.1746
     30 O         -16.5943  -11.2546   -9.2369 O.3     1  UNL1       -0.3462
     31 C         -24.7615  -10.0615  -11.5577 C.3     1  UNL1        0.0483
     32 C         -25.3705   -8.7046  -11.8082 C.ar    1  UNL1       -0.0181
     33 C         -26.5159   -8.3007  -11.0995 C.ar    1  UNL1       -0.0039
     34 C         -27.0835   -7.0448  -11.3328 C.ar    1  UNL1       -0.0003
     35 C         -26.5242   -6.1896  -12.2857 C.ar    1  UNL1       -0.0000
     36 C         -25.3969   -6.5895  -13.0077 C.ar    1  UNL1       -0.0003
     37 C         -24.8244   -7.8440  -12.7766 C.ar    1  UNL1       -0.0039
@<TRIPOS>BOND
     1    29    30    1
     2    30    28    1
     3    28     1    1
     4     1     2   ar
     5     2     3   ar
     6     3     4   ar
     7     4     5   ar
     8     5     6    1
     9     5     7   ar
    10     7    26    1
    11    26    27    1
    12     4     8    1
    13     8     9    1
    14     9    10    1
    15    10    11    1
    16    11    31    1
    17    31    32    1
    18    32    33   ar
    19    33    34   ar
    20    34    35   ar
    21    35    36   ar
    22    36    37   ar
    23    11    12    2
    24    12    14    1
    25    14    15   ar
    26    15    16   ar
    27    16    20    1
    28    20    21    1
    29    16    17   ar
    30    17    22    1
    31    22    23    1
    32    17    18   ar
    33    18    24    1
    34    24    25    1
    35    18    19   ar
    36     7     1   ar
    37    37    32   ar
    38    19    14   ar
    39    12     3    1
    40     6    13    1
@<TRIPOS>MOLECULE
*****
 37 40 0 0 0
SMALL
GASTEIGER

@<TRIPOS>ATOM
      1 C         -20.9178   -7.3988  -11.3481 C.ar    1  UNL1        0.0443
      2 C         -21.8550   -7.6837  -12.3452 C.ar    1  UNL1        0.0010
      3 C         -22.2210   -9.0021  -12.6396 C.ar    1  UNL1       -0.0017
      4 C         -21.6551  -10.0620  -11.8897 C.ar    1  UNL1        0.0145
      5 C         -20.6261   -9.7889  -10.9517 C.ar    1  UNL1        0.1633
      6 O         -19.9267  -10.8283  -10.3334 O.3     1  UNL1       -0.5031
      7 C         -20.2808   -8.4451  -10.6556 C.ar    1  UNL1        0.1701
      8 C         -22.1741  -11.4674  -12.1228 C.3     1  UNL1        0.0299
      9 C         -21.6449  -12.0553  -13.4392 C.3     1  UNL1        0.0091
     10 C         -21.6977  -11.0728  -14.6248 C.3     1  UNL1        0.0227
     11 C         -22.9825  -10.2646  -14.6550 C.2     1  UNL1       -0.0398
     12 C         -23.1890   -9.2645  -13.7513 C.2     1  UNL1       -0.0076
     13 H         -19.9569  -11.7918  -10.6366 H       1  UNL1        0.2923
     14 C         -24.4126   -8.4352  -13.8053 C.ar    1  UNL1        0.0056
     15 C         -24.5084   -7.3955  -14.7309 C.ar    1  UNL1        0.0402
     16 C         -25.6554   -6.5845  -14.7739 C.ar    1  UNL1        0.1754
     17 C         -26.7202   -6.8239  -13.8876 C.ar    1  UNL1        0.2061
     18 C         -26.6345   -7.8925  -12.9567 C.ar    1  UNL1        0.1754
     19 C         -25.4732   -8.6871  -12.9307 C.ar    1  UNL1        0.0402
     20 O         -25.7761   -5.5225  -15.6850 O.3     1  UNL1       -0.4683
     21 C         -25.1657   -5.4873  -16.9711 C.3     1  UNL1        0.2526
     22 O         -27.8297   -5.9624  -13.9870 O.3     1  UNL1       -0.4654
     23 C         -29.0477   -6.2236  -14.6754 C.3     1  UNL1        0.2528
     24 O         -27.6973   -8.1457  -12.0752 O.3     1  UNL1       -0.4683
     25 C         -27.6640   -7.9203  -10.6693 C.3     1  UNL1        0.2526
     26 O         -19.3107   -8.0839   -9.6983 O.3     1  UNL1       -0.4686
     27 C         -19.4565   -8.1092   -8.2828 C.3     1  UNL1        0.2526
     28 C         -20.5474   -5.9599  -11.0732 C.3     1  UNL1        0.1718
     29 C         -21.8020   -5.1668   -9.2922 C.3     1  UNL1        0.1746
     30 O         -21.6897   -5.2143  -10.6980 O.3     1  UNL1       -0.3462
     31 C         -24.0166  -10.6194  -15.7096 C.3     1  UNL1        0.0483
     32 C         -24.6025  -11.9929  -15.4975 C.ar    1  UNL1       -0.0181
     33 C         -24.2378  -13.0565  -16.3420 C.ar    1  UNL1       -0.0039
     34 C         -24.7824  -14.3293  -16.1489 C.ar    1  UNL1       -0.0003
     35 C         -25.7068  -14.5474  -15.1241 C.ar    1  UNL1       -0.0000
     36 C         -26.0890  -13.4926  -14.2914 C.ar    1  UNL1       -0.0003
     37 C         -25.5456  -12.2181  -14.4794 C.ar    1  UNL1       -0.0039
@<TRIPOS>BOND
     1    29    30    1
     2    30    28    1
     3    28     1    1
     4     1     2   ar
     5     2     3   ar
     6     3     4   ar
     7     4     5   ar
     8     5     6    1
     9     5     7   ar
    10     7    26    1
    11    26    27    1
    12     4     8    1
    13     8     9    1
    14     9    10    1
    15    10    11    1
    16    11    31    1
    17    31    32    1
    18    32    33   ar
    19    33    34   ar
    20    34    35   ar
    21    35    36   ar
    22    36    37   ar
    23    11    12    2
    24    12    14    1
    25    14    15   ar
    26    15    16   ar
    27    16    20    1
    28    20    21    1
    29    16    17   ar
    30    17    22    1
    31    22    23    1
    32    17    18   ar
    33    18    24    1
    34    24    25    1
    35    18    19   ar
    36     7     1   ar
    37    37    32   ar
    38    19    14   ar
    39    12     3    1
    40     6    13    1
@<TRIPOS>MOLECULE
*****
 37 40 0 0 0
SMALL
GASTEIGER

@<TRIPOS>ATOM
      1 C         -20.8572   -7.4609  -11.2551 C.ar    1  UNL1        0.0443
      2 C         -21.7993   -7.7226  -12.2538 C.ar    1  UNL1        0.0010
      3 C         -22.1809   -9.0329  -12.5639 C.ar    1  UNL1       -0.0017
      4 C         -21.6257  -10.1085  -11.8285 C.ar    1  UNL1        0.0145
      5 C         -20.5919   -9.8589  -10.8892 C.ar    1  UNL1        0.1633
      6 O         -19.9033  -10.9139  -10.2854 O.3     1  UNL1       -0.5031
      7 C         -20.2308   -8.5229  -10.5770 C.ar    1  UNL1        0.1701
      8 C         -22.1611  -11.5049  -12.0781 C.3     1  UNL1        0.0299
      9 C         -21.6411  -12.0822  -13.4029 C.3     1  UNL1        0.0091
     10 C         -21.6849  -11.0844  -14.5760 C.3     1  UNL1        0.0227
     11 C         -22.9605  -10.2613  -14.5934 C.2     1  UNL1       -0.0398
     12 C         -23.1539   -9.2703  -13.6769 C.2     1  UNL1       -0.0076
     13 H         -19.9450  -11.8731  -10.6005 H       1  UNL1        0.2923
     14 C         -24.3681   -8.4265  -13.7181 C.ar    1  UNL1        0.0056
     15 C         -25.4117   -8.6647  -12.8231 C.ar    1  UNL1        0.0402
     16 C         -26.5808   -7.8862  -12.8701 C.ar    1  UNL1        0.1754
     17 C         -26.7011   -6.8533  -13.8162 C.ar    1  UNL1        0.2061
     18 C         -25.6339   -6.5956  -14.7165 C.ar    1  UNL1        0.1754
     19 C         -24.4756   -7.3924  -14.6521 C.ar    1  UNL1        0.0402
     20 O         -27.6536   -8.1099  -11.9916 O.3     1  UNL1       -0.4683
     21 C         -27.5823   -7.9699  -10.5763 C.3     1  UNL1        0.2526
     22 O         -27.9064   -6.1251  -13.8056 O.3     1  UNL1       -0.4654
     23 C         -28.9966   -6.2757  -14.7080 C.3     1  UNL1        0.2528
     24 O         -25.7408   -5.5593  -15.6574 O.3     1  UNL1       -0.4683
     25 C         -25.1352   -5.5607  -16.9465 C.3     1  UNL1        0.2526
     26 O         -19.2549   -8.1849   -9.6172 O.3     1  UNL1       -0.4686
     27 C         -19.3931   -8.2411   -8.2018 C.3     1  UNL1        0.2526
     28 C         -20.4699   -6.0299  -10.9629 C.3     1  UNL1        0.1718
     29 C         -21.8150   -5.2241   -9.2552 C.3     1  UNL1        0.1746
     30 O         -21.6137   -5.2577  -10.6514 O.3     1  UNL1       -0.3462
     31 C         -24.0005  -10.5911  -15.6504 C.3     1  UNL1        0.0483
     32 C         -24.5883  -11.9676  -15.4651 C.ar    1  UNL1       -0.0181
     33 C         -24.2317  -13.0129  -16.3354 C.ar    1  UNL1       -0.0039
     34 C         -24.7781  -14.2885  -16.1672 C.ar    1  UNL1       -0.0003
     35 C         -25.6963  -14.5273  -15.1416 C.ar    1  UNL1       -0.0000
     36 C         -26.0705  -13.4904  -14.2831 C.ar    1  UNL1       -0.0003
     37 C         -25.5253  -12.2133  -14.4462 C.ar    1  UNL1       -0.0039
@<TRIPOS>BOND
     1    29    30    1
     2    30    28    1
     3    28     1    1
     4     1     2   ar
     5     2     3   ar
     6     3     4   ar
     7     4     5   ar
     8     5     6    1
     9     5     7   ar
    10     7    26    1
    11    26    27    1
    12     4     8    1
    13     8     9    1
    14     9    10    1
    15    10    11    1
    16    11    31    1
    17    31    32    1
    18    32    33   ar
    19    33    34   ar
    20    34    35   ar
    21    35    36   ar
    22    36    37   ar
    23    11    12    2
    24    12    14    1
    25    14    15   ar
    26    15    16   ar
    27    16    20    1
    28    20    21    1
    29    16    17   ar
    30    17    22    1
    31    22    23    1
    32    17    18   ar
    33    18    24    1
    34    24    25    1
    35    18    19   ar
    36     7     1   ar
    37    37    32   ar
    38    19    14   ar
    39    12     3    1
    40     6    13    1
@<TRIPOS>MOLECULE
*****
 37 40 0 0 0
SMALL
GASTEIGER

@<TRIPOS>ATOM
      1 C         -26.0412   -5.6676  -15.0983 C.ar    1  UNL1        0.0443
      2 C         -25.4754   -6.7275  -14.3843 C.ar    1  UNL1        0.0010
      3 C         -24.3565   -7.4130  -14.8709 C.ar    1  UNL1       -0.0017
      4 C         -23.7693   -7.0016  -16.0924 C.ar    1  UNL1        0.0145
      5 C         -24.4001   -5.9991  -16.8737 C.ar    1  UNL1        0.1633
      6 O         -23.9460   -5.7037  -18.1614 O.3     1  UNL1       -0.5031
      7 C         -25.5237   -5.3050  -16.3556 C.ar    1  UNL1        0.1701
      8 C         -22.4737   -7.6586  -16.5269 C.3     1  UNL1        0.0299
      9 C         -22.7111   -9.0769  -17.0659 C.3     1  UNL1        0.0091
     10 C         -23.6795   -9.9141  -16.2085 C.3     1  UNL1        0.0227
     11 C         -23.4449   -9.7329  -14.7196 C.2     1  UNL1       -0.0398
     12 C         -23.8152   -8.5764  -14.0992 C.2     1  UNL1       -0.0076
     13 H         -23.3026   -6.2826  -18.6831 H       1  UNL1        0.2923
     14 C         -23.6412   -8.4100  -12.6398 C.ar    1  UNL1        0.0056
     15 C         -22.6215   -7.5938  -12.1492 C.ar    1  UNL1        0.0402
     16 C         -22.4303   -7.4488  -10.7644 C.ar    1  UNL1        0.1754
     17 C         -23.2749   -8.1203   -9.8632 C.ar    1  UNL1        0.2061
     18 C         -24.3254   -8.9371  -10.3582 C.ar    1  UNL1        0.1754
     19 C         -24.4929   -9.0695  -11.7494 C.ar    1  UNL1        0.0402
     20 O         -21.4049   -6.6450  -10.2399 O.3     1  UNL1       -0.4683
     21 C         -21.5141   -5.2442  -10.0082 C.3     1  UNL1        0.2526
     22 O         -23.0130   -7.9313   -8.4925 O.3     1  UNL1       -0.4654
     23 C         -22.2723   -8.8000   -7.6427 C.3     1  UNL1        0.2528
     24 O         -25.1804   -9.6028   -9.4659 O.3     1  UNL1       -0.4683
     25 C         -26.5471   -9.2701   -9.2421 C.3     1  UNL1        0.2526
     26 O         -26.1758   -4.2592  -17.0407 O.3     1  UNL1       -0.4686
     27 C         -26.8035   -4.3341  -18.3158 C.3     1  UNL1        0.2526
     28 C         -27.2550   -4.9644  -14.5369 C.3     1  UNL1        0.1718
     29 C         -29.4891   -4.8789  -15.1503 C.3     1  UNL1        0.1746
     30 O         -28.4247   -5.7246  -14.7724 O.3     1  UNL1       -0.3462
     31 C         -22.7801  -10.8712  -13.9647 C.3     1  UNL1        0.0483
     32 C         -23.5156  -12.1770  -14.1341 C.ar    1  UNL1       -0.0181
     33 C         -24.7957  -12.3461  -13.5773 C.ar    1  UNL1       -0.0039
     34 C         -25.4773  -13.5568  -13.7305 C.ar    1  UNL1       -0.0003
     35 C         -24.8817  -14.6129  -14.4248 C.ar    1  UNL1       -0.0000
     36 C         -23.6026  -14.4603  -14.9660 C.ar    1  UNL1       -0.0003
     37 C         -22.9176  -13.2506  -14.8170 C.ar    1  UNL1       -0.0039
@<TRIPOS>BOND
     1    29    30    1
     2    30    28    1
     3    28     1    1
     4     1     2   ar
     5     2     3   ar
     6     3     4   ar
     7     4     5   ar
     8     5     6    1
     9     5     7   ar
    10     7    26    1
    11    26    27    1
    12     4     8    1
    13     8     9    1
    14     9    10    1
    15    10    11    1
    16    11    31    1
    17    31    32    1
    18    32    33   ar
    19    33    34   ar
    20    34    35   ar
    21    35    36   ar
    22    36    37   ar
    23    11    12    2
    24    12    14    1
    25    14    15   ar
    26    15    16   ar
    27    16    20    1
    28    20    21    1
    29    16    17   ar
    30    17    22    1
    31    22    23    1
    32    17    18   ar
    33    18    24    1
    34    24    25    1
    35    18    19   ar
    36     7     1   ar
    37    37    32   ar
    38    19    14   ar
    39    12     3    1
    40     6    13    1
@<TRIPOS>MOLECULE
*****
 37 40 0 0 0
SMALL
GASTEIGER

@<TRIPOS>ATOM
      1 C         -25.9982   -5.7548  -14.9753 C.ar    1  UNL1        0.0443
      2 C         -25.4178   -6.8183  -14.2785 C.ar    1  UNL1        0.0010
      3 C         -24.2982   -7.4895  -14.7830 C.ar    1  UNL1       -0.0017
      4 C         -23.7254   -7.0598  -16.0050 C.ar    1  UNL1        0.0145
      5 C         -24.3710   -6.0535  -16.7691 C.ar    1  UNL1        0.1633
      6 O         -23.9310   -5.7401  -18.0575 O.3     1  UNL1       -0.5031
      7 C         -25.4951   -5.3740  -16.2330 C.ar    1  UNL1        0.1701
      8 C         -22.4288   -7.7018  -16.4587 C.3     1  UNL1        0.0299
      9 C         -22.6604   -9.1158  -17.0116 C.3     1  UNL1        0.0091
     10 C         -23.6144   -9.9701  -16.1550 C.3     1  UNL1        0.0227
     11 C         -23.3676   -9.8038  -14.6663 C.2     1  UNL1       -0.0398
     12 C         -23.7410   -8.6573  -14.0295 C.2     1  UNL1       -0.0076
     13 H         -23.2880   -6.3080  -18.5915 H       1  UNL1        0.2923
     14 C         -23.5549   -8.5061  -12.5699 C.ar    1  UNL1        0.0056
     15 C         -24.3885   -9.1935  -11.6872 C.ar    1  UNL1        0.0402
     16 C         -24.2378   -9.0373  -10.2987 C.ar    1  UNL1        0.1754
     17 C         -23.2361   -8.1920   -9.7901 C.ar    1  UNL1        0.2061
     18 C         -22.3737   -7.5051  -10.6847 C.ar    1  UNL1        0.1754
     19 C         -22.5483   -7.6749  -12.0709 C.ar    1  UNL1        0.0402
     20 O         -25.0695   -9.7053   -9.3851 O.3     1  UNL1       -0.4683
     21 C         -26.4525   -9.4240   -9.1956 C.3     1  UNL1        0.2526
     22 O         -23.1553   -8.0815   -8.3886 O.3     1  UNL1       -0.4654
     23 C         -22.2596   -8.7820   -7.5326 C.3     1  UNL1        0.2528
     24 O         -21.3637   -6.6674  -10.1858 O.3     1  UNL1       -0.4683
     25 C         -21.5446   -5.3067   -9.8057 C.3     1  UNL1        0.2526
     26 O         -26.1613   -4.3256  -16.9002 O.3     1  UNL1       -0.4686
     27 C         -26.7582   -4.3776  -18.1912 C.3     1  UNL1        0.2526
     28 C         -27.2122   -5.0674  -14.3948 C.3     1  UNL1        0.1718
     29 C         -29.3966   -4.8716  -15.1466 C.3     1  UNL1        0.1746
     30 O         -28.3921   -5.7716  -14.7315 O.3     1  UNL1       -0.3462
     31 C         -22.6872  -10.9454  -13.9305 C.3     1  UNL1        0.0483
     32 C         -23.4009  -12.2594  -14.1275 C.ar    1  UNL1       -0.0181
     33 C         -22.7886  -13.2959  -14.8542 C.ar    1  UNL1       -0.0039
     34 C         -23.4500  -14.5131  -15.0405 C.ar    1  UNL1       -0.0003
     35 C         -24.7325  -14.7003  -14.5189 C.ar    1  UNL1       -0.0000
     36 C         -25.3563  -13.6699  -13.8109 C.ar    1  UNL1       -0.0003
     37 C         -24.6981  -12.4511  -13.6203 C.ar    1  UNL1       -0.0039
@<TRIPOS>BOND
     1    29    30    1
     2    30    28    1
     3    28     1    1
     4     1     2   ar
     5     2     3   ar
     6     3     4   ar
     7     4     5   ar
     8     5     6    1
     9     5     7   ar
    10     7    26    1
    11    26    27    1
    12     4     8    1
    13     8     9    1
    14     9    10    1
    15    10    11    1
    16    11    31    1
    17    31    32    1
    18    32    33   ar
    19    33    34   ar
    20    34    35   ar
    21    35    36   ar
    22    36    37   ar
    23    11    12    2
    24    12    14    1
    25    14    15   ar
    26    15    16   ar
    27    16    20    1
    28    20    21    1
    29    16    17   ar
    30    17    22    1
    31    22    23    1
    32    17    18   ar
    33    18    24    1
    34    24    25    1
    35    18    19   ar
    36     7     1   ar
    37    37    32   ar
    38    19    14   ar
    39    12     3    1
    40     6    13    1
