@<TRIPOS>MOLECULE
*****
 47 52 0 0 0
SMALL
GASTEIGER

@<TRIPOS>ATOM
      1 C          60.9006   89.2951    9.0128 C.ar    1  UNL1        0.0684
      2 C          61.2371   90.1365   10.0838 C.ar    1  UNL1        0.1147
      3 N          61.2318   89.6668   11.3568 N.ar    1  UNL1       -0.2279
      4 C          60.9183   88.3773   11.6554 C.ar    1  UNL1        0.1315
      5 C          60.5716   87.5000   10.6150 C.ar    1  UNL1        0.0337
      6 C          60.5395   87.9566    9.2860 C.ar    1  UNL1        0.0248
      7 N          60.9337   87.9419   13.0312 N.pl3   1  UNL1       -0.2933
      8 C          59.7418   87.2856   13.5896 C.3     1  UNL1        0.0923
      9 C          60.1262   86.3904   14.7699 C.3     1  UNL1        0.0252
     10 C          60.8244   87.1909   15.8942 C.3     1  UNL1        0.0472
     11 C          61.6965   88.3545   15.3458 C.3     1  UNL1        0.0252
     12 C          62.1150   88.1553   13.8841 C.3     1  UNL1        0.0923
     13 C          61.6448   86.2703   16.8215 C.3     1  UNL1        0.2054
     14 O          62.0355   85.0729   16.1434 O.3     1  UNL1       -0.4755
     15 C          63.2076   84.8761   15.3930 C.ar    1  UNL1        0.1388
     16 C          64.3986   85.5919   15.6220 C.ar    1  UNL1        0.0369
     17 C          65.5268   85.3480   14.8362 C.ar    1  UNL1        0.0033
     18 C          65.4864   84.3881   13.8234 C.ar    1  UNL1        0.0066
     19 C          64.3114   83.6545   13.5875 C.ar    1  UNL1        0.0785
     20 C          63.1794   83.9059   14.3827 C.ar    1  UNL1        0.0433
     21 C          64.2619   82.6322   12.5189 C.2     1  UNL1        0.3381
     22 O          64.9742   82.7534   11.4855 O.2     1  UNL1       -0.2451
     23 O          63.4269   81.5248   12.6446 O.3     1  UNL1       -0.4771
     24 H          63.3855   80.8193   11.9188 H       1  UNL1        0.2954
     25 C          59.8523   90.2367    6.9142 C.2     1  UNL1        0.2839
     26 O          58.6882   90.0639    7.3662 O.2     1  UNL1       -0.2665
     27 N          60.9903   89.7798    7.6617 N.am    1  UNL1       -0.2768
     28 H          61.9240   89.7703    7.1930 H       1  UNL1        0.1553
     29 C          57.5755   91.4381    5.0055 C.3     1  UNL1        0.0345
     30 C          59.0551   91.4092    4.7661 C.ar    1  UNL1        0.0202
     31 C          60.0462   90.8828    5.6022 C.ar    1  UNL1        0.1946
     32 O          61.2356   91.0430    5.0495 O.2     1  UNL1       -0.4492
     33 C          61.0669   91.6454    3.8979 C.ar    1  UNL1        0.1452
     34 C          62.0498   92.0111    2.9849 C.ar    1  UNL1        0.0375
     35 C          61.6458   92.6548    1.8025 C.ar    1  UNL1        0.0031
     36 C          60.2729   92.9220    1.5509 C.ar    1  UNL1        0.0002
     37 C          59.3038   92.5327    2.5066 C.ar    1  UNL1        0.0028
     38 C          59.7405   91.8956    3.6692 C.ar    1  UNL1        0.0337
     39 C          59.8581   93.6027    0.2981 C.ar    1  UNL1        0.0000
     40 C          58.4947   93.7339   -0.0278 C.ar    1  UNL1        0.0000
     41 C          58.1071   94.3745   -1.2086 C.ar    1  UNL1        0.0000
     42 C          59.0726   94.8910   -2.0755 C.ar    1  UNL1        0.0000
     43 C          60.4283   94.7676   -1.7635 C.ar    1  UNL1        0.0000
     44 C          60.8218   94.1271   -0.5845 C.ar    1  UNL1        0.0000
     45 C          60.1653   86.9968    8.1757 C.3     1  UNL1        0.1650
     46 O          58.9703   87.3820    7.5497 O.3     1  UNL1       -0.3772
     47 H          59.1808   88.1888    7.0100 H       1  UNL1        0.2109
@<TRIPOS>BOND
     1    29    30    1
     2    30    31   ar
     3    31    25    1
     4    25    26    2
     5    25    27   am
     6    27     1    1
     7     1     2   ar
     8     2     3   ar
     9     3     4   ar
    10     4     7    1
    11     7     8    1
    12     8     9    1
    13     9    10    1
    14    10    13    1
    15    13    14    1
    16    14    15    1
    17    15    16   ar
    18    16    17   ar
    19    17    18   ar
    20    18    19   ar
    21    19    21    1
    22    21    22    2
    23    21    23    1
    24    19    20   ar
    25    10    11    1
    26    11    12    1
    27     4     5   ar
    28     5     6   ar
    29     6    45    1
    30    45    46    1
    31    31    32   ar
    32    32    33   ar
    33    33    34   ar
    34    34    35   ar
    35    35    36   ar
    36    36    39    1
    37    39    40   ar
    38    40    41   ar
    39    41    42   ar
    40    42    43   ar
    41    43    44   ar
    42    36    37   ar
    43    37    38   ar
    44    38    30   ar
    45     6     1   ar
    46    38    33   ar
    47    12     7    1
    48    44    39   ar
    49    20    15   ar
    50    27    28    1
    51    23    24    1
    52    46    47    1
@<TRIPOS>MOLECULE
*****
 47 52 0 0 0
SMALL
GASTEIGER

@<TRIPOS>ATOM
      1 C          60.8083   88.8265    8.7218 C.ar    1  UNL1        0.0684
      2 C          61.4433   89.5208    9.7624 C.ar    1  UNL1        0.1147
      3 N          61.5175   88.9817   11.0054 N.ar    1  UNL1       -0.2279
      4 C          61.0014   87.7581   11.3000 C.ar    1  UNL1        0.1315
      5 C          60.3535   87.0287   10.2897 C.ar    1  UNL1        0.0337
      6 C          60.2330   87.5655    8.9963 C.ar    1  UNL1        0.0248
      7 N          61.1162   87.2423   12.6429 N.pl3   1  UNL1       -0.2933
      8 C          59.9357   86.6451   13.2856 C.3     1  UNL1        0.0923
      9 C          60.3605   85.6556   14.3731 C.3     1  UNL1        0.0252
     10 C          61.2274   86.3339   15.4597 C.3     1  UNL1        0.0472
     11 C          62.1322   87.4593   14.8856 C.3     1  UNL1        0.0252
     12 C          62.3885   87.3160   13.3806 C.3     1  UNL1        0.0923
     13 C          62.0579   85.3013   16.2501 C.3     1  UNL1        0.2054
     14 O          63.2126   84.8947   15.5101 O.3     1  UNL1       -0.4755
     15 C          63.3262   83.7630   14.6844 C.ar    1  UNL1        0.1388
     16 C          63.1873   82.4448   15.1602 C.ar    1  UNL1        0.0369
     17 C          63.3154   81.3648   14.2844 C.ar    1  UNL1        0.0033
     18 C          63.5738   81.5823   12.9299 C.ar    1  UNL1        0.0066
     19 C          63.7031   82.8905   12.4333 C.ar    1  UNL1        0.0785
     20 C          63.5732   83.9727   13.3214 C.ar    1  UNL1        0.0433
     21 C          63.9725   83.1295   10.9982 C.2     1  UNL1        0.3381
     22 O          65.0078   82.6567   10.4552 O.2     1  UNL1       -0.2451
     23 O          63.0840   83.8801   10.2324 O.3     1  UNL1       -0.4771
     24 H          63.2591   84.0497    9.2491 H       1  UNL1        0.2954
     25 C          59.7903   90.2579    6.9039 C.2     1  UNL1        0.2839
     26 O          58.7494   90.4599    7.5859 O.2     1  UNL1       -0.2665
     27 N          60.8085   89.3693    7.3899 N.am    1  UNL1       -0.2768
     28 H          61.5702   89.0786    6.7366 H       1  UNL1        0.1553
     29 C          57.4574   91.3769    5.0129 C.3     1  UNL1        0.0345
     30 C          58.9353   91.4022    4.7628 C.ar    1  UNL1        0.0202
     31 C          59.9510   90.9117    5.5912 C.ar    1  UNL1        0.1946
     32 O          61.1297   91.1157    5.0301 O.2     1  UNL1       -0.4492
     33 C          60.9307   91.7124    3.8804 C.ar    1  UNL1        0.1452
     34 C          61.8930   92.1144    2.9607 C.ar    1  UNL1        0.0375
     35 C          61.4572   92.7439    1.7819 C.ar    1  UNL1        0.0031
     36 C          60.0737   92.9610    1.5405 C.ar    1  UNL1        0.0002
     37 C          59.1264   92.5358    2.5028 C.ar    1  UNL1        0.0028
     38 C          59.5944   91.9142    3.6616 C.ar    1  UNL1        0.0337
     39 C          59.6252   93.6271    0.2915 C.ar    1  UNL1        0.0000
     40 C          60.5645   94.0982   -0.6456 C.ar    1  UNL1        0.0000
     41 C          60.1393   94.7258   -1.8205 C.ar    1  UNL1        0.0000
     42 C          58.7756   94.8897   -2.0738 C.ar    1  UNL1        0.0000
     43 C          57.8340   94.4266   -1.1523 C.ar    1  UNL1        0.0000
     44 C          58.2534   93.7990    0.0248 C.ar    1  UNL1        0.0000
     45 C          59.5329   86.7647    7.9180 C.3     1  UNL1        0.1650
     46 O          58.4766   87.4910    7.3479 O.3     1  UNL1       -0.3772
     47 H          58.8900   88.1999    6.7885 H       1  UNL1        0.2109
@<TRIPOS>BOND
     1    29    30    1
     2    30    31   ar
     3    31    25    1
     4    25    26    2
     5    25    27   am
     6    27     1    1
     7     1     2   ar
     8     2     3   ar
     9     3     4   ar
    10     4     7    1
    11     7     8    1
    12     8     9    1
    13     9    10    1
    14    10    13    1
    15    13    14    1
    16    14    15    1
    17    15    16   ar
    18    16    17   ar
    19    17    18   ar
    20    18    19   ar
    21    19    21    1
    22    21    22    2
    23    21    23    1
    24    19    20   ar
    25    10    11    1
    26    11    12    1
    27     4     5   ar
    28     5     6   ar
    29     6    45    1
    30    45    46    1
    31    31    32   ar
    32    32    33   ar
    33    33    34   ar
    34    34    35   ar
    35    35    36   ar
    36    36    39    1
    37    39    40   ar
    38    40    41   ar
    39    41    42   ar
    40    42    43   ar
    41    43    44   ar
    42    36    37   ar
    43    37    38   ar
    44    38    30   ar
    45     6     1   ar
    46    38    33   ar
    47    12     7    1
    48    44    39   ar
    49    20    15   ar
    50    27    28    1
    51    23    24    1
    52    46    47    1
@<TRIPOS>MOLECULE
*****
 47 52 0 0 0
SMALL
GASTEIGER

@<TRIPOS>ATOM
      1 C          62.0246   87.2270   10.3039 C.ar    1  UNL1        0.0684
      2 C          62.2759   85.8963   10.6703 C.ar    1  UNL1        0.1147
      3 N          61.5201   84.8885   10.1659 N.ar    1  UNL1       -0.2279
      4 C          60.5066   85.1092    9.2858 C.ar    1  UNL1        0.1315
      5 C          60.2171   86.4263    8.8935 C.ar    1  UNL1        0.0337
      6 C          60.9603   87.4992    9.4151 C.ar    1  UNL1        0.0248
      7 N          59.7425   83.9915    8.7862 N.pl3   1  UNL1       -0.2933
      8 C          60.2531   83.2300    7.6361 C.3     1  UNL1        0.0923
      9 C          59.6869   81.8082    7.6406 C.3     1  UNL1        0.0252
     10 C          58.1410   81.8056    7.5907 C.3     1  UNL1        0.0472
     11 C          57.5168   83.0086    8.3511 C.3     1  UNL1        0.0252
     12 C          58.4590   83.6115    9.3999 C.3     1  UNL1        0.0923
     13 C          57.5588   80.4679    8.0927 C.3     1  UNL1        0.2054
     14 O          57.1739   80.5576    9.4674 O.3     1  UNL1       -0.4755
     15 C          57.9575   80.2174   10.5836 C.ar    1  UNL1        0.1388
     16 C          58.0219   78.9134   11.1114 C.ar    1  UNL1        0.0369
     17 C          58.8194   78.6453   12.2258 C.ar    1  UNL1        0.0033
     18 C          59.5652   79.6645   12.8206 C.ar    1  UNL1        0.0066
     19 C          59.5244   80.9695   12.3011 C.ar    1  UNL1        0.0785
     20 C          58.7187   81.2317   11.1791 C.ar    1  UNL1        0.0433
     21 C          60.3154   82.0542   12.9232 C.2     1  UNL1        0.3381
     22 O          60.9162   81.8614   14.0149 O.2     1  UNL1       -0.2451
     23 O          60.4039   83.3004   12.3079 O.3     1  UNL1       -0.4771
     24 H          60.9427   84.0498   12.7254 H       1  UNL1        0.2954
     25 C          62.6169   89.0319   11.9716 C.2     1  UNL1        0.2839
     26 O          61.5092   88.9110   12.5612 O.2     1  UNL1       -0.2665
     27 N          62.8838   88.2782   10.7786 N.am    1  UNL1       -0.2768
     28 H          63.7259   88.5239   10.2112 H       1  UNL1        0.1553
     29 C          64.5190   88.5985   14.5141 C.3     1  UNL1        0.0345
     30 C          64.4633   89.7846   13.5991 C.ar    1  UNL1        0.0202
     31 C          63.6304   89.9703   12.4899 C.ar    1  UNL1        0.1946
     32 O          63.8734   91.1439   11.9338 O.2     1  UNL1       -0.4492
     33 C          64.8203   91.7292   12.6255 C.ar    1  UNL1        0.1452
     34 C          65.3864   92.9778   12.3928 C.ar    1  UNL1        0.0375
     35 C          66.3987   93.4162   13.2639 C.ar    1  UNL1        0.0031
     36 C          66.8279   92.6051   14.3490 C.ar    1  UNL1        0.0002
     37 C          66.2249   91.3403   14.5508 C.ar    1  UNL1        0.0028
     38 C          65.2229   90.9370   13.6668 C.ar    1  UNL1        0.0337
     39 C          67.8983   93.0790   15.2626 C.ar    1  UNL1        0.0000
     40 C          68.2178   94.4479   15.3419 C.ar    1  UNL1        0.0000
     41 C          69.2268   94.8911   16.2024 C.ar    1  UNL1        0.0000
     42 C          69.9265   93.9762   16.9924 C.ar    1  UNL1        0.0000
     43 C          69.6188   92.6157   16.9232 C.ar    1  UNL1        0.0000
     44 C          68.6114   92.1667   16.0637 C.ar    1  UNL1        0.0000
     45 C          60.6361   88.9133    8.9800 C.3     1  UNL1        0.1650
     46 O          60.3014   89.7205   10.0776 O.3     1  UNL1       -0.3772
     47 H          61.1452   89.8872   10.5742 H       1  UNL1        0.2109
@<TRIPOS>BOND
     1    29    30    1
     2    30    31   ar
     3    31    25    1
     4    25    26    2
     5    25    27   am
     6    27     1    1
     7     1     2   ar
     8     2     3   ar
     9     3     4   ar
    10     4     7    1
    11     7     8    1
    12     8     9    1
    13     9    10    1
    14    10    13    1
    15    13    14    1
    16    14    15    1
    17    15    16   ar
    18    16    17   ar
    19    17    18   ar
    20    18    19   ar
    21    19    21    1
    22    21    22    2
    23    21    23    1
    24    19    20   ar
    25    10    11    1
    26    11    12    1
    27     4     5   ar
    28     5     6   ar
    29     6    45    1
    30    45    46    1
    31    31    32   ar
    32    32    33   ar
    33    33    34   ar
    34    34    35   ar
    35    35    36   ar
    36    36    39    1
    37    39    40   ar
    38    40    41   ar
    39    41    42   ar
    40    42    43   ar
    41    43    44   ar
    42    36    37   ar
    43    37    38   ar
    44    38    30   ar
    45     6     1   ar
    46    38    33   ar
    47    12     7    1
    48    44    39   ar
    49    20    15   ar
    50    27    28    1
    51    23    24    1
    52    46    47    1
@<TRIPOS>MOLECULE
*****
 47 52 0 0 0
SMALL
GASTEIGER

@<TRIPOS>ATOM
      1 C          61.4190   89.4372    9.1934 C.ar    1  UNL1        0.0684
      2 C          60.6858   88.2951    9.5489 C.ar    1  UNL1        0.1147
      3 N          60.6422   87.8788   10.8396 N.ar    1  UNL1       -0.2279
      4 C          61.2840   88.5405   11.8399 C.ar    1  UNL1        0.1315
      5 C          62.0331   89.6873   11.5296 C.ar    1  UNL1        0.0337
      6 C          62.1242   90.1341   10.2001 C.ar    1  UNL1        0.0248
      7 N          61.1950   88.0447   13.1922 N.pl3   1  UNL1       -0.2933
      8 C          59.9837   87.3251   13.6144 C.3     1  UNL1        0.0923
      9 C          60.2960   86.3911   14.7859 C.3     1  UNL1        0.0252
     10 C          60.8634   87.1629   16.0002 C.3     1  UNL1        0.0472
     11 C          61.7368   88.3779   15.5807 C.3     1  UNL1        0.0252
     12 C          62.2886   88.2582   14.1550 C.3     1  UNL1        0.0923
     13 C          61.6328   86.2291   16.9576 C.3     1  UNL1        0.2054
     14 O          62.0538   85.0379   16.2868 O.3     1  UNL1       -0.4755
     15 C          63.2163   84.8746   15.5139 C.ar    1  UNL1        0.1388
     16 C          64.3876   85.6303   15.7144 C.ar    1  UNL1        0.0369
     17 C          65.5071   85.4183   14.9073 C.ar    1  UNL1        0.0033
     18 C          65.4778   84.4511   13.9011 C.ar    1  UNL1        0.0066
     19 C          64.3229   83.6779   13.6935 C.ar    1  UNL1        0.0785
     20 C          63.1996   83.8974   14.5100 C.ar    1  UNL1        0.0433
     21 C          64.2855   82.6477   12.6320 C.2     1  UNL1        0.3381
     22 O          63.3992   81.7508   12.6433 O.2     1  UNL1       -0.2451
     23 O          65.2303   82.6588   11.6090 O.3     1  UNL1       -0.4771
     24 H          65.2136   81.9581   10.8776 H       1  UNL1        0.2954
     25 C          60.1748   90.1032    7.0963 C.2     1  UNL1        0.2839
     26 O          59.0809   89.6807    7.5590 O.2     1  UNL1       -0.2665
     27 N          61.3904   89.9171    7.8379 N.am    1  UNL1       -0.2768
     28 H          62.3000   90.1106    7.3617 H       1  UNL1        0.1553
     29 C          57.6636   91.0779    5.3601 C.3     1  UNL1        0.0345
     30 C          59.1184   91.1917    5.0168 C.ar    1  UNL1        0.0202
     31 C          60.2123   90.7640    5.7777 C.ar    1  UNL1        0.1946
     32 O          61.3386   91.0378    5.1436 O.2     1  UNL1       -0.4492
     33 C          61.0316   91.6203    4.0104 C.ar    1  UNL1        0.1452
     34 C          61.9077   92.0784    3.0327 C.ar    1  UNL1        0.0375
     35 C          61.3610   92.6792    1.8856 C.ar    1  UNL1        0.0031
     36 C          59.9544   92.8126    1.7331 C.ar    1  UNL1        0.0002
     37 C          59.0973   92.3323    2.7524 C.ar    1  UNL1        0.0028
     38 C          59.6744   91.7412    3.8774 C.ar    1  UNL1        0.0337
     39 C          59.3884   93.4491    0.5168 C.ar    1  UNL1        0.0000
     40 C          60.1817   94.2908   -0.2859 C.ar    1  UNL1        0.0000
     41 C          59.6458   94.8896   -1.4301 C.ar    1  UNL1        0.0000
     42 C          58.3158   94.6557   -1.7863 C.ar    1  UNL1        0.0000
     43 C          57.5184   93.8226   -0.9986 C.ar    1  UNL1        0.0000
     44 C          58.0488   93.2218    0.1473 C.ar    1  UNL1        0.0000
     45 C          62.9348   91.3738    9.8831 C.3     1  UNL1        0.1650
     46 O          64.0604   91.4735   10.7145 O.3     1  UNL1       -0.3772
     47 H          64.6982   90.7745   10.4126 H       1  UNL1        0.2109
@<TRIPOS>BOND
     1    29    30    1
     2    30    31   ar
     3    31    25    1
     4    25    26    2
     5    25    27   am
     6    27     1    1
     7     1     2   ar
     8     2     3   ar
     9     3     4   ar
    10     4     7    1
    11     7     8    1
    12     8     9    1
    13     9    10    1
    14    10    13    1
    15    13    14    1
    16    14    15    1
    17    15    16   ar
    18    16    17   ar
    19    17    18   ar
    20    18    19   ar
    21    19    21    1
    22    21    22    2
    23    21    23    1
    24    19    20   ar
    25    10    11    1
    26    11    12    1
    27     4     5   ar
    28     5     6   ar
    29     6    45    1
    30    45    46    1
    31    31    32   ar
    32    32    33   ar
    33    33    34   ar
    34    34    35   ar
    35    35    36   ar
    36    36    39    1
    37    39    40   ar
    38    40    41   ar
    39    41    42   ar
    40    42    43   ar
    41    43    44   ar
    42    36    37   ar
    43    37    38   ar
    44    38    30   ar
    45     6     1   ar
    46    38    33   ar
    47    12     7    1
    48    44    39   ar
    49    20    15   ar
    50    27    28    1
    51    23    24    1
    52    46    47    1
