@<TRIPOS>MOLECULE
*****
 38 42 0 0 0
SMALL
GASTEIGER

@<TRIPOS>ATOM
      1 C         -25.9855   -9.0326  -12.5262 C.2     1  UNL1        0.2503
      2 O         -26.1916   -8.9160  -11.2877 O.2     1  UNL1       -0.2699
      3 N         -25.6892  -10.3259  -13.0971 N.am    1  UNL1       -0.2680
      4 C         -26.0057  -10.5648  -14.5160 C.3     1  UNL1        0.1412
      5 C         -25.7068  -11.9951  -14.9773 C.3     1  UNL1        0.2268
      6 O         -24.3045  -12.2401  -15.0537 O.3     1  UNL1       -0.4739
      7 C         -23.3544  -12.0798  -14.0301 C.ar    1  UNL1        0.1362
      8 C         -22.0245  -12.3587  -14.3642 C.ar    1  UNL1        0.0366
      9 C         -20.9964  -12.1749  -13.4410 C.ar    1  UNL1        0.0031
     10 C         -21.2764  -11.6982  -12.1534 C.ar    1  UNL1       -0.0000
     11 C         -22.6105  -11.4423  -11.7983 C.ar    1  UNL1        0.0004
     12 C         -23.6597  -11.6365  -12.7167 C.ar    1  UNL1        0.0317
     13 C         -25.0719  -11.3678  -12.2630 C.3     1  UNL1        0.1236
     14 C         -20.1784  -11.4556  -11.1853 C.ar    1  UNL1        0.0015
     15 C         -19.9346  -10.1440  -10.6898 C.ar    1  UNL1        0.0016
     16 C         -18.8922   -9.9004   -9.7760 C.ar    1  UNL1        0.0206
     17 C         -18.1136  -10.9819   -9.3782 C.ar    1  UNL1        0.0985
     18 N         -17.0765  -10.9794   -8.5215 N.ar    1  UNL1       -0.2241
     19 C         -16.6977  -12.2848   -8.5025 C.ar    1  UNL1        0.1750
     20 N         -17.4502  -13.0779   -9.3024 N.ar    1  UNL1       -0.3349
     21 C         -18.3383  -12.2388   -9.8478 C.ar    1  UNL1        0.0757
     22 C         -19.3570  -12.5248  -10.7524 C.ar    1  UNL1        0.0185
     23 H         -17.3559  -14.1064   -9.4559 H       1  UNL1        0.1675
     24 C         -24.8741   -7.2737  -13.9361 C.ar    1  UNL1        0.0500
     25 C         -24.9763   -6.1345  -14.7577 C.ar    1  UNL1        0.0328
     26 C         -26.2136   -5.5350  -15.0053 C.ar    1  UNL1        0.1066
     27 C         -27.3725   -6.0768  -14.4468 C.ar    1  UNL1        0.0143
     28 C         -27.3093   -7.2182  -13.6354 C.ar    1  UNL1       -0.0150
     29 C         -28.5837   -7.7773  -13.0557 C.3     1  UNL1        0.0313
     30 C         -26.0559   -7.8215  -13.3734 C.ar    1  UNL1        0.0628
     31 S         -26.3124   -4.1175  -16.0462 S.O2    1  UNL1        0.0105
     32 C         -28.0196   -3.7552  -16.3858 C.3     1  UNL1        0.1816
     33 O         -25.6743   -2.9376  -15.3680 O.2     1  UNL1       -0.1686
     34 O         -25.5872   -4.3819  -17.3359 O.2     1  UNL1       -0.1686
     35 N         -23.5827   -7.8609  -13.6528 N.pl3   1  UNL1       -0.3325
     36 H         -23.2396   -7.8863  -12.6670 H       1  UNL1        0.1468
     37 C         -21.2528   -8.4224  -14.2366 C.3     1  UNL1        0.0229
     38 C         -22.7100   -8.4217  -14.6875 C.3     1  UNL1        0.0871
@<TRIPOS>BOND
     1    37    38    1
     2    38    35    1
     3    35    24    1
     4    24    25   ar
     5    25    26   ar
     6    26    31    1
     7    31    32    1
     8    31    33    2
     9    31    34    2
    10    26    27   ar
    11    27    28   ar
    12    28    29    1
    13    28    30   ar
    14    30     1    1
    15     1     2    2
    16     1     3   am
    17     3     4    1
    18     4     5    1
    19     5     6    1
    20     6     7    1
    21     7     8   ar
    22     8     9   ar
    23     9    10   ar
    24    10    14    1
    25    14    15   ar
    26    15    16   ar
    27    16    17   ar
    28    17    18   ar
    29    18    19   ar
    30    19    20   ar
    31    20    21   ar
    32    21    22   ar
    33    10    11   ar
    34    11    12   ar
    35    12    13    1
    36    30    24   ar
    37    13     3    1
    38    12     7   ar
    39    22    14   ar
    40    21    17   ar
    41    35    36    1
    42    20    23    1
@<TRIPOS>MOLECULE
*****
 38 42 0 0 0
SMALL
GASTEIGER

@<TRIPOS>ATOM
      1 C         -21.3988   -8.5611  -12.6514 C.2     1  UNL1        0.2503
      2 O         -20.3570   -7.9299  -12.9771 O.2     1  UNL1       -0.2699
      3 N         -22.2751   -8.0420  -11.6272 N.am    1  UNL1       -0.2680
      4 C         -23.6961   -8.4308  -11.6450 C.3     1  UNL1        0.1412
      5 C         -24.5283   -7.7581  -10.5483 C.3     1  UNL1        0.2268
      6 O         -24.2092   -8.2717   -9.2573 O.3     1  UNL1       -0.4739
      7 C         -22.9432   -8.3191   -8.6481 C.ar    1  UNL1        0.1362
      8 C         -22.8836   -8.9031   -7.3780 C.ar    1  UNL1        0.0366
      9 C         -21.6688   -9.0543   -6.7112 C.ar    1  UNL1        0.0031
     10 C         -20.4748   -8.6267   -7.3071 C.ar    1  UNL1       -0.0000
     11 C         -20.5263   -8.0133   -8.5690 C.ar    1  UNL1        0.0004
     12 C         -21.7480   -7.8422   -9.2474 C.ar    1  UNL1        0.0317
     13 C         -21.7362   -7.1525  -10.5877 C.3     1  UNL1        0.1236
     14 C         -19.1755   -8.8309   -6.6202 C.ar    1  UNL1        0.0015
     15 C         -18.4961  -10.0770   -6.7244 C.ar    1  UNL1        0.0016
     16 C         -17.2662  -10.2847   -6.0724 C.ar    1  UNL1        0.0206
     17 C         -16.7429   -9.2340   -5.3266 C.ar    1  UNL1        0.0985
     18 N         -15.5928   -9.2114   -4.6294 N.ar    1  UNL1       -0.2241
     19 C         -15.5809   -7.9564   -4.1073 C.ar    1  UNL1        0.1750
     20 N         -16.6631   -7.2175   -4.4512 N.ar    1  UNL1       -0.3349
     21 C         -17.3860   -8.0399   -5.2201 C.ar    1  UNL1        0.0757
     22 C         -18.6037   -7.7912   -5.8473 C.ar    1  UNL1        0.0185
     23 H         -16.8800   -6.2335   -4.1772 H       1  UNL1        0.1675
     24 C         -22.2537   -9.8284  -14.6464 C.ar    1  UNL1        0.0500
     25 C         -22.5067  -11.0576  -15.2852 C.ar    1  UNL1        0.0328
     26 C         -22.2378  -12.2697  -14.6449 C.ar    1  UNL1        0.1066
     27 C         -21.6952  -12.2707  -13.3587 C.ar    1  UNL1        0.0143
     28 C         -21.4180  -11.0656  -12.6984 C.ar    1  UNL1       -0.0150
     29 C         -20.8262  -11.1080  -11.3126 C.3     1  UNL1        0.0313
     30 C         -21.6996   -9.8357  -13.3402 C.ar    1  UNL1        0.0628
     31 S         -22.5538  -13.7918  -15.4730 S.O2    1  UNL1        0.0105
     32 C         -24.2688  -13.8640  -15.9365 C.3     1  UNL1        0.1816
     33 O         -21.6967  -13.8938  -16.7035 O.2     1  UNL1       -0.1686
     34 O         -22.2289  -14.9431  -14.5629 O.2     1  UNL1       -0.1686
     35 N         -22.5753   -8.5800  -15.3030 N.pl3   1  UNL1       -0.3325
     36 H         -23.2682   -7.9357  -14.8615 H       1  UNL1        0.1468
     37 C         -20.4592   -8.1954  -16.5107 C.3     1  UNL1        0.0229
     38 C         -21.9828   -8.1659  -16.5774 C.3     1  UNL1        0.0871
@<TRIPOS>BOND
     1    37    38    1
     2    38    35    1
     3    35    24    1
     4    24    25   ar
     5    25    26   ar
     6    26    31    1
     7    31    32    1
     8    31    33    2
     9    31    34    2
    10    26    27   ar
    11    27    28   ar
    12    28    29    1
    13    28    30   ar
    14    30     1    1
    15     1     2    2
    16     1     3   am
    17     3     4    1
    18     4     5    1
    19     5     6    1
    20     6     7    1
    21     7     8   ar
    22     8     9   ar
    23     9    10   ar
    24    10    14    1
    25    14    15   ar
    26    15    16   ar
    27    16    17   ar
    28    17    18   ar
    29    18    19   ar
    30    19    20   ar
    31    20    21   ar
    32    21    22   ar
    33    10    11   ar
    34    11    12   ar
    35    12    13    1
    36    30    24   ar
    37    13     3    1
    38    12     7   ar
    39    22    14   ar
    40    21    17   ar
    41    35    36    1
    42    20    23    1
@<TRIPOS>MOLECULE
*****
 38 42 0 0 0
SMALL
GASTEIGER

@<TRIPOS>ATOM
      1 C         -26.2066   -8.5400  -12.2032 C.2     1  UNL1        0.2503
      2 O         -26.6087   -8.3652  -11.0210 O.2     1  UNL1       -0.2699
      3 N         -25.6751   -9.8198  -12.6105 N.am    1  UNL1       -0.2680
      4 C         -25.7442  -10.1968  -14.0331 C.3     1  UNL1        0.1412
      5 C         -25.2102  -11.6040  -14.3198 C.3     1  UNL1        0.2268
      6 O         -23.7931  -11.6672  -14.1772 O.3     1  UNL1       -0.4739
      7 C         -23.0336  -11.3122  -13.0489 C.ar    1  UNL1        0.1362
      8 C         -21.6448  -11.4365  -13.1676 C.ar    1  UNL1        0.0366
      9 C         -20.7964  -11.0550  -12.1294 C.ar    1  UNL1        0.0031
     10 C         -21.3216  -10.5304  -10.9409 C.ar    1  UNL1       -0.0000
     11 C         -22.7148  -10.4280  -10.8000 C.ar    1  UNL1        0.0004
     12 C         -23.5834  -10.8223  -11.8355 C.ar    1  UNL1        0.0317
     13 C         -25.0695  -10.7105  -11.6094 C.3     1  UNL1        0.1236
     14 C         -20.4183  -10.0784   -9.8539 C.ar    1  UNL1        0.0015
     15 C         -19.1150  -10.6353   -9.7250 C.ar    1  UNL1        0.0016
     16 C         -18.2516  -10.2191   -8.6943 C.ar    1  UNL1        0.0206
     17 C         -18.7164   -9.2500   -7.8117 C.ar    1  UNL1        0.0985
     18 N         -18.0668   -8.7098   -6.7650 N.ar    1  UNL1       -0.2241
     19 C         -18.9766   -7.8316   -6.2659 C.ar    1  UNL1        0.1750
     20 N         -20.1429   -7.8114   -6.9548 N.ar    1  UNL1       -0.3349
     21 C         -19.9611   -8.7132   -7.9263 C.ar    1  UNL1        0.0757
     22 C         -20.8476   -9.0956   -8.9293 C.ar    1  UNL1        0.0185
     23 H         -20.9871   -7.2261   -6.7677 H       1  UNL1        0.1675
     24 C         -25.1192   -6.7257  -13.5608 C.ar    1  UNL1        0.0500
     25 C         -25.2319   -5.6708  -14.4867 C.ar    1  UNL1        0.0328
     26 C         -26.4769   -5.2850  -14.9895 C.ar    1  UNL1        0.1066
     27 C         -27.6293   -5.9609  -14.5851 C.ar    1  UNL1        0.0143
     28 C         -27.5526   -7.0246  -13.6754 C.ar    1  UNL1       -0.0150
     29 C         -28.8189   -7.7340  -13.2679 C.3     1  UNL1        0.0313
     30 C         -26.2938   -7.4108  -13.1556 C.ar    1  UNL1        0.0628
     31 S         -26.5861   -3.9692  -16.1553 S.O2    1  UNL1        0.0105
     32 C         -28.2973   -3.5990  -16.4655 C.3     1  UNL1        0.1816
     33 O         -25.8982   -2.7467  -15.6150 O.2     1  UNL1       -0.1686
     34 O         -25.9165   -4.3705  -17.4397 O.2     1  UNL1       -0.1686
     35 N         -23.8295   -7.0888  -13.0151 N.pl3   1  UNL1       -0.3325
     36 H         -23.6409   -6.9255  -12.0012 H       1  UNL1        0.1468
     37 C         -21.4085   -7.5525  -13.1059 C.3     1  UNL1        0.0229
     38 C         -22.7520   -7.6724  -13.8183 C.3     1  UNL1        0.0871
@<TRIPOS>BOND
     1    37    38    1
     2    38    35    1
     3    35    24    1
     4    24    25   ar
     5    25    26   ar
     6    26    31    1
     7    31    32    1
     8    31    33    2
     9    31    34    2
    10    26    27   ar
    11    27    28   ar
    12    28    29    1
    13    28    30   ar
    14    30     1    1
    15     1     2    2
    16     1     3   am
    17     3     4    1
    18     4     5    1
    19     5     6    1
    20     6     7    1
    21     7     8   ar
    22     8     9   ar
    23     9    10   ar
    24    10    14    1
    25    14    15   ar
    26    15    16   ar
    27    16    17   ar
    28    17    18   ar
    29    18    19   ar
    30    19    20   ar
    31    20    21   ar
    32    21    22   ar
    33    10    11   ar
    34    11    12   ar
    35    12    13    1
    36    30    24   ar
    37    13     3    1
    38    12     7   ar
    39    22    14   ar
    40    21    17   ar
    41    35    36    1
    42    20    23    1
@<TRIPOS>MOLECULE
*****
 38 42 0 0 0
SMALL
GASTEIGER

@<TRIPOS>ATOM
      1 C         -21.3931   -8.1153  -13.3280 C.2     1  UNL1        0.2503
      2 O         -20.3199   -7.4949  -13.5585 O.2     1  UNL1       -0.2699
      3 N         -22.3299   -7.6128  -12.3501 N.am    1  UNL1       -0.2680
      4 C         -23.7528   -7.9720  -12.4802 C.3     1  UNL1        0.1412
      5 C         -24.6479   -7.3193  -11.4217 C.3     1  UNL1        0.2268
      6 O         -24.4295   -7.8816  -10.1300 O.3     1  UNL1       -0.4739
      7 C         -23.2105   -7.9746   -9.4361 C.ar    1  UNL1        0.1362
      8 C         -23.2508   -8.6013   -8.1857 C.ar    1  UNL1        0.0366
      9 C         -22.0888   -8.7990   -7.4415 C.ar    1  UNL1        0.0031
     10 C         -20.8484   -8.3760   -7.9377 C.ar    1  UNL1       -0.0000
     11 C         -20.8001   -7.7203   -9.1784 C.ar    1  UNL1        0.0004
     12 C         -21.9679   -7.5024   -9.9340 C.ar    1  UNL1        0.0317
     13 C         -21.8496   -6.7691  -11.2457 C.3     1  UNL1        0.1236
     14 C         -19.6044   -8.6290   -7.1694 C.ar    1  UNL1        0.0015
     15 C         -18.9203   -9.8701   -7.2988 C.ar    1  UNL1        0.0016
     16 C         -17.7430  -10.1241   -6.5706 C.ar    1  UNL1        0.0206
     17 C         -17.2761   -9.1237   -5.7247 C.ar    1  UNL1        0.0985
     18 N         -16.1814   -9.1501   -4.9433 N.ar    1  UNL1       -0.2241
     19 C         -16.2077   -7.9295   -4.3458 C.ar    1  UNL1        0.1750
     20 N         -17.2603   -7.1650   -4.7237 N.ar    1  UNL1       -0.3349
     21 C         -17.9243   -7.9349   -5.5936 C.ar    1  UNL1        0.0757
     22 C         -19.0913   -7.6417   -6.2936 C.ar    1  UNL1        0.0185
     23 H         -17.4962   -6.1984   -4.4069 H       1  UNL1        0.1675
     24 C         -21.8123  -10.5927  -13.3916 C.ar    1  UNL1        0.0500
     25 C         -22.0967  -11.7561  -14.1322 C.ar    1  UNL1        0.0328
     26 C         -22.2172  -11.7116  -15.5233 C.ar    1  UNL1        0.1066
     27 C         -22.0710  -10.4966  -16.1949 C.ar    1  UNL1        0.0143
     28 C         -21.8011   -9.3166  -15.4880 C.ar    1  UNL1       -0.0150
     29 C         -21.6563   -8.0229  -16.2484 C.3     1  UNL1        0.0313
     30 C         -21.6673   -9.3602  -14.0795 C.ar    1  UNL1        0.0628
     31 S         -22.5847  -13.1808  -16.4226 S.O2    1  UNL1        0.0105
     32 C         -22.6176  -14.5622  -15.3037 C.3     1  UNL1        0.1816
     33 O         -23.9219  -13.0489  -17.0964 O.2     1  UNL1       -0.1686
     34 O         -21.5358  -13.4093  -17.4745 O.2     1  UNL1       -0.1686
     35 N         -21.6481  -10.6585  -11.9557 N.pl3   1  UNL1       -0.3325
     36 H         -22.1799   -9.9939  -11.3510 H       1  UNL1        0.1468
     37 C         -19.6244  -10.8931  -10.5649 C.3     1  UNL1        0.0229
     38 C         -20.7565  -11.6126  -11.2913 C.3     1  UNL1        0.0871
@<TRIPOS>BOND
     1    37    38    1
     2    38    35    1
     3    35    24    1
     4    24    25   ar
     5    25    26   ar
     6    26    31    1
     7    31    32    1
     8    31    33    2
     9    31    34    2
    10    26    27   ar
    11    27    28   ar
    12    28    29    1
    13    28    30   ar
    14    30     1    1
    15     1     2    2
    16     1     3   am
    17     3     4    1
    18     4     5    1
    19     5     6    1
    20     6     7    1
    21     7     8   ar
    22     8     9   ar
    23     9    10   ar
    24    10    14    1
    25    14    15   ar
    26    15    16   ar
    27    16    17   ar
    28    17    18   ar
    29    18    19   ar
    30    19    20   ar
    31    20    21   ar
    32    21    22   ar
    33    10    11   ar
    34    11    12   ar
    35    12    13    1
    36    30    24   ar
    37    13     3    1
    38    12     7   ar
    39    22    14   ar
    40    21    17   ar
    41    35    36    1
    42    20    23    1
@<TRIPOS>MOLECULE
*****
 38 42 0 0 0
SMALL
GASTEIGER

@<TRIPOS>ATOM
      1 C         -25.6386   -5.8695  -15.2371 C.2     1  UNL1        0.2503
      2 O         -25.1108   -6.0394  -16.3695 O.2     1  UNL1       -0.2699
      3 N         -24.8831   -6.1315  -14.0342 N.am    1  UNL1       -0.2680
      4 C         -25.2556   -5.4277  -12.7946 C.3     1  UNL1        0.1412
      5 C         -24.3339   -5.7422  -11.6118 C.3     1  UNL1        0.2268
      6 O         -24.5245   -7.0728  -11.1368 O.3     1  UNL1       -0.4739
      7 C         -24.4324   -8.2636  -11.8782 C.ar    1  UNL1        0.1362
      8 C         -24.6947   -9.4511  -11.1861 C.ar    1  UNL1        0.0366
      9 C         -24.6891  -10.6821  -11.8402 C.ar    1  UNL1        0.0031
     10 C         -24.4248  -10.7536  -13.2145 C.ar    1  UNL1       -0.0000
     11 C         -24.1321   -9.5714  -13.9130 C.ar    1  UNL1        0.0004
     12 C         -24.1211   -8.3232  -13.2618 C.ar    1  UNL1        0.0317
     13 C         -23.7735   -7.0958  -14.0649 C.3     1  UNL1        0.1236
     14 C         -24.4665  -12.0572  -13.9221 C.ar    1  UNL1        0.0015
     15 C         -25.7070  -12.7235  -14.1274 C.ar    1  UNL1        0.0016
     16 C         -25.7586  -13.9633  -14.7917 C.ar    1  UNL1        0.0206
     17 C         -24.5597  -14.5099  -15.2368 C.ar    1  UNL1        0.0985
     18 N         -24.3763  -15.6717  -15.8897 N.ar    1  UNL1       -0.2241
     19 C         -23.0301  -15.7040  -16.0756 C.ar    1  UNL1        0.1750
     20 N         -22.3883  -14.6235  -15.5699 N.ar    1  UNL1       -0.3349
     21 C         -23.3691  -13.8809  -15.0436 C.ar    1  UNL1        0.0757
     22 C         -23.2716  -12.6548  -14.3917 C.ar    1  UNL1        0.0185
     23 H         -21.3643  -14.4204  -15.5880 H       1  UNL1        0.1675
     24 C         -28.0256   -6.1751  -14.5121 C.ar    1  UNL1        0.0500
     25 C         -29.3450   -5.6874  -14.4459 C.ar    1  UNL1        0.0328
     26 C         -29.6916   -4.4681  -15.0332 C.ar    1  UNL1        0.1066
     27 C         -28.7175   -3.7084  -15.6833 C.ar    1  UNL1        0.0143
     28 C         -27.3914   -4.1568  -15.7563 C.ar    1  UNL1       -0.0150
     29 C         -26.3669   -3.3048  -16.4614 C.3     1  UNL1        0.0313
     30 C         -27.0393   -5.3970  -15.1718 C.ar    1  UNL1        0.0628
     31 S         -31.3475   -3.8778  -14.9247 S.O2    1  UNL1        0.0105
     32 C         -31.7028   -2.8602  -16.3388 C.3     1  UNL1        0.1816
     33 O         -32.3038   -5.0369  -14.8877 O.2     1  UNL1       -0.1686
     34 O         -31.5189   -3.0716  -13.6678 O.2     1  UNL1       -0.1686
     35 N         -27.6878   -7.4587  -13.9367 N.pl3   1  UNL1       -0.3325
     36 H         -26.8535   -7.9741  -14.2952 H       1  UNL1        0.1468
     37 C         -27.9012   -7.7463  -11.4961 C.3     1  UNL1        0.0229
     38 C         -28.4673   -8.0918  -12.8698 C.3     1  UNL1        0.0871
@<TRIPOS>BOND
     1    37    38    1
     2    38    35    1
     3    35    24    1
     4    24    25   ar
     5    25    26   ar
     6    26    31    1
     7    31    32    1
     8    31    33    2
     9    31    34    2
    10    26    27   ar
    11    27    28   ar
    12    28    29    1
    13    28    30   ar
    14    30     1    1
    15     1     2    2
    16     1     3   am
    17     3     4    1
    18     4     5    1
    19     5     6    1
    20     6     7    1
    21     7     8   ar
    22     8     9   ar
    23     9    10   ar
    24    10    14    1
    25    14    15   ar
    26    15    16   ar
    27    16    17   ar
    28    17    18   ar
    29    18    19   ar
    30    19    20   ar
    31    20    21   ar
    32    21    22   ar
    33    10    11   ar
    34    11    12   ar
    35    12    13    1
    36    30    24   ar
    37    13     3    1
    38    12     7   ar
    39    22    14   ar
    40    21    17   ar
    41    35    36    1
    42    20    23    1
@<TRIPOS>MOLECULE
*****
 38 42 0 0 0
SMALL
GASTEIGER

@<TRIPOS>ATOM
      1 C         -19.9343   -8.7624  -11.1505 C.2     1  UNL1        0.2503
      2 O         -19.3263   -7.8766  -11.8104 O.2     1  UNL1       -0.2699
      3 N         -20.6625   -9.8074  -11.8317 N.am    1  UNL1       -0.2680
      4 C         -20.8705  -11.0929  -11.1425 C.3     1  UNL1        0.1412
      5 C         -21.5952  -12.1363  -11.9992 C.3     1  UNL1        0.2268
      6 O         -22.9677  -11.7998  -12.1873 O.3     1  UNL1       -0.4739
      7 C         -23.4875  -10.6051  -12.7152 C.ar    1  UNL1        0.1362
      8 C         -24.8820  -10.5023  -12.7704 C.ar    1  UNL1        0.0366
      9 C         -25.5009   -9.3372  -13.2206 C.ar    1  UNL1        0.0031
     10 C         -24.7328   -8.2367  -13.6238 C.ar    1  UNL1       -0.0000
     11 C         -23.3327   -8.3391  -13.5997 C.ar    1  UNL1        0.0004
     12 C         -22.6950   -9.5148  -13.1600 C.ar    1  UNL1        0.0317
     13 C         -21.1887   -9.5680  -13.1838 C.3     1  UNL1        0.1236
     14 C         -25.3897   -6.9787  -14.0570 C.ar    1  UNL1        0.0015
     15 C         -26.1903   -6.2355  -13.1449 C.ar    1  UNL1        0.0016
     16 C         -26.8234   -5.0441  -13.5459 C.ar    1  UNL1        0.0206
     17 C         -26.6393   -4.6229  -14.8585 C.ar    1  UNL1        0.0985
     18 N         -27.1438   -3.5250  -15.4497 N.ar    1  UNL1       -0.2241
     19 C         -26.6488   -3.6081  -16.7130 C.ar    1  UNL1        0.1750
     20 N         -25.8713   -4.6982  -16.9185 N.ar    1  UNL1       -0.3349
     21 C         -25.8770   -5.3276  -15.7377 C.ar    1  UNL1        0.0757
     22 C         -25.2336   -6.5104  -15.3843 C.ar    1  UNL1        0.0185
     23 H         -25.3821   -4.9796  -17.7970 H       1  UNL1        0.1675
     24 C         -18.8916   -9.4346   -8.9647 C.ar    1  UNL1        0.0500
     25 C         -18.8527   -9.3419   -7.5601 C.ar    1  UNL1        0.0328
     26 C         -19.7811   -8.5635   -6.8646 C.ar    1  UNL1        0.1066
     27 C         -20.7550   -7.8511   -7.5665 C.ar    1  UNL1        0.0143
     28 C         -20.8145   -7.9095   -8.9658 C.ar    1  UNL1       -0.0150
     29 C         -21.8769   -7.1208   -9.6883 C.3     1  UNL1        0.0313
     30 C         -19.8821   -8.7061   -9.6728 C.ar    1  UNL1        0.0628
     31 S         -19.7011   -8.4573   -5.1083 S.O2    1  UNL1        0.0105
     32 C         -18.6102   -9.7188   -4.4921 C.3     1  UNL1        0.1816
     33 O         -19.1869   -7.1054   -4.6991 O.2     1  UNL1       -0.1686
     34 O         -21.0728   -8.6479   -4.5241 O.2     1  UNL1       -0.1686
     35 N         -17.9512  -10.2771   -9.6710 N.pl3   1  UNL1       -0.3325
     36 H         -17.7396  -10.0756  -10.6734 H       1  UNL1        0.1468
     37 C         -17.7689  -12.7369   -9.6477 C.3     1  UNL1        0.0229
     38 C         -17.2757  -11.4214   -9.0537 C.3     1  UNL1        0.0871
@<TRIPOS>BOND
     1    37    38    1
     2    38    35    1
     3    35    24    1
     4    24    25   ar
     5    25    26   ar
     6    26    31    1
     7    31    32    1
     8    31    33    2
     9    31    34    2
    10    26    27   ar
    11    27    28   ar
    12    28    29    1
    13    28    30   ar
    14    30     1    1
    15     1     2    2
    16     1     3   am
    17     3     4    1
    18     4     5    1
    19     5     6    1
    20     6     7    1
    21     7     8   ar
    22     8     9   ar
    23     9    10   ar
    24    10    14    1
    25    14    15   ar
    26    15    16   ar
    27    16    17   ar
    28    17    18   ar
    29    18    19   ar
    30    19    20   ar
    31    20    21   ar
    32    21    22   ar
    33    10    11   ar
    34    11    12   ar
    35    12    13    1
    36    30    24   ar
    37    13     3    1
    38    12     7   ar
    39    22    14   ar
    40    21    17   ar
    41    35    36    1
    42    20    23    1
@<TRIPOS>MOLECULE
*****
 38 42 0 0 0
SMALL
GASTEIGER

@<TRIPOS>ATOM
      1 C         -19.4275   -7.7591   -8.2998 C.2     1  UNL1        0.2503
      2 O         -19.3858   -6.5547   -8.6704 O.2     1  UNL1       -0.2699
      3 N         -19.2310   -8.8233   -9.2565 N.am    1  UNL1       -0.2680
      4 C         -18.7246  -10.1220   -8.7795 C.3     1  UNL1        0.1412
      5 C         -18.4958  -11.1393   -9.9022 C.3     1  UNL1        0.2268
      6 O         -19.7277  -11.6065  -10.4467 O.3     1  UNL1       -0.4739
      7 C         -20.7680  -10.8319  -10.9888 C.ar    1  UNL1        0.1362
      8 C         -21.8970  -11.5280  -11.4346 C.ar    1  UNL1        0.0366
      9 C         -23.0091  -10.8521  -11.9340 C.ar    1  UNL1        0.0031
     10 C         -23.0200   -9.4521  -11.9940 C.ar    1  UNL1       -0.0000
     11 C         -21.8815   -8.7447  -11.5760 C.ar    1  UNL1        0.0004
     12 C         -20.7466   -9.4157  -11.0821 C.ar    1  UNL1        0.0317
     13 C         -19.5479   -8.5976  -10.6745 C.3     1  UNL1        0.1236
     14 C         -24.2213   -8.7289  -12.4795 C.ar    1  UNL1        0.0015
     15 C         -25.3292   -9.4497  -13.0069 C.ar    1  UNL1        0.0016
     16 C         -26.4715   -8.7746  -13.4762 C.ar    1  UNL1        0.0206
     17 C         -26.4773   -7.3857  -13.4065 C.ar    1  UNL1        0.0985
     18 N         -27.4543   -6.5456  -13.7928 N.ar    1  UNL1       -0.2241
     19 C         -26.9354   -5.3240  -13.4994 C.ar    1  UNL1        0.1750
     20 N         -25.6957   -5.3794  -12.9559 N.ar    1  UNL1       -0.3349
     21 C         -25.4222   -6.6882  -12.9055 C.ar    1  UNL1        0.0757
     22 C         -24.2730   -7.3146  -12.4313 C.ar    1  UNL1        0.0185
     23 H         -25.0949   -4.5826  -12.6488 H       1  UNL1        0.1675
     24 C         -18.6977   -7.7425   -5.8948 C.ar    1  UNL1        0.0500
     25 C         -18.9761   -8.0117   -4.5409 C.ar    1  UNL1        0.0328
     26 C         -20.1876   -8.5920   -4.1573 C.ar    1  UNL1        0.1066
     27 C         -21.1483   -8.8974   -5.1229 C.ar    1  UNL1        0.0143
     28 C         -20.9102   -8.6303   -6.4783 C.ar    1  UNL1       -0.0150
     29 C         -21.9749   -8.9687   -7.4905 C.3     1  UNL1        0.0313
     30 C         -19.6791   -8.0527   -6.8715 C.ar    1  UNL1        0.0628
     31 S         -20.5129   -8.9069   -2.4551 S.O2    1  UNL1        0.0105
     32 C         -21.1476   -7.4303   -1.6948 C.3     1  UNL1        0.1816
     33 O         -21.5216  -10.0133   -2.3219 O.2     1  UNL1       -0.1686
     34 O         -19.2454   -9.3249   -1.7638 O.2     1  UNL1       -0.1686
     35 N         -17.4229   -7.1803   -6.2843 N.pl3   1  UNL1       -0.3325
     36 H         -17.2094   -7.0559   -7.2987 H       1  UNL1        0.1468
     37 C         -15.7446   -7.9957   -4.6709 C.3     1  UNL1        0.0229
     38 C         -16.3936   -6.7785   -5.3221 C.3     1  UNL1        0.0871
@<TRIPOS>BOND
     1    37    38    1
     2    38    35    1
     3    35    24    1
     4    24    25   ar
     5    25    26   ar
     6    26    31    1
     7    31    32    1
     8    31    33    2
     9    31    34    2
    10    26    27   ar
    11    27    28   ar
    12    28    29    1
    13    28    30   ar
    14    30     1    1
    15     1     2    2
    16     1     3   am
    17     3     4    1
    18     4     5    1
    19     5     6    1
    20     6     7    1
    21     7     8   ar
    22     8     9   ar
    23     9    10   ar
    24    10    14    1
    25    14    15   ar
    26    15    16   ar
    27    16    17   ar
    28    17    18   ar
    29    18    19   ar
    30    19    20   ar
    31    20    21   ar
    32    21    22   ar
    33    10    11   ar
    34    11    12   ar
    35    12    13    1
    36    30    24   ar
    37    13     3    1
    38    12     7   ar
    39    22    14   ar
    40    21    17   ar
    41    35    36    1
    42    20    23    1
@<TRIPOS>MOLECULE
*****
 38 42 0 0 0
SMALL
GASTEIGER

@<TRIPOS>ATOM
      1 C         -20.2073   -8.5773  -11.2063 C.2     1  UNL1        0.2503
      2 O         -19.7997   -7.5764  -11.8558 O.2     1  UNL1       -0.2699
      3 N         -20.7966   -9.7021  -11.8947 N.am    1  UNL1       -0.2680
      4 C         -20.7424  -11.0305  -11.2599 C.3     1  UNL1        0.1412
      5 C         -21.3404  -12.1462  -12.1233 C.3     1  UNL1        0.2268
      6 O         -22.7591  -12.0382  -12.2123 O.3     1  UNL1       -0.4739
      7 C         -23.5036  -10.9281  -12.6477 C.ar    1  UNL1        0.1362
      8 C         -24.8963  -11.0592  -12.6145 C.ar    1  UNL1        0.0366
      9 C         -25.7282   -9.9980  -12.9680 C.ar    1  UNL1        0.0031
     10 C         -25.1815   -8.7688  -13.3603 C.ar    1  UNL1       -0.0000
     11 C         -23.7853   -8.6351  -13.4247 C.ar    1  UNL1        0.0004
     12 C         -22.9339   -9.7032  -13.0834 C.ar    1  UNL1        0.0317
     13 C         -21.4446   -9.5013  -13.1993 C.3     1  UNL1        0.1236
     14 C         -26.0649   -7.6231  -13.6899 C.ar    1  UNL1        0.0015
     15 C         -25.5388   -6.3017  -13.7398 C.ar    1  UNL1        0.0016
     16 C         -26.3681   -5.2062  -14.0452 C.ar    1  UNL1        0.0206
     17 C         -27.7124   -5.4612  -14.2944 C.ar    1  UNL1        0.0985
     18 N         -28.6754   -4.5744  -14.6037 N.ar    1  UNL1       -0.2241
     19 C         -29.7767   -5.3597  -14.7387 C.ar    1  UNL1        0.1750
     20 N         -29.5319   -6.6752  -14.5274 N.ar    1  UNL1       -0.3349
     21 C         -28.2243   -6.7207  -14.2474 C.ar    1  UNL1        0.0757
     22 C         -27.4412   -7.8323  -13.9490 C.ar    1  UNL1        0.0185
     23 H         -30.2098   -7.4681  -14.5729 H       1  UNL1        0.1675
     24 C         -20.9207   -7.7662   -8.9370 C.ar    1  UNL1        0.0500
     25 C         -20.7778   -7.8005   -7.5365 C.ar    1  UNL1        0.0328
     26 C         -19.8015   -8.5964   -6.9324 C.ar    1  UNL1        0.1066
     27 C         -18.9618   -9.3847   -7.7211 C.ar    1  UNL1        0.0143
     28 C         -19.0852   -9.3855   -9.1175 C.ar    1  UNL1       -0.0150
     29 C         -18.1641  -10.2552   -9.9347 C.3     1  UNL1        0.0313
     30 C         -20.0662   -8.5717   -9.7334 C.ar    1  UNL1        0.0628
     31 S         -19.6533   -8.6279   -5.1775 S.O2    1  UNL1        0.0105
     32 C         -18.6804   -7.2384   -4.6445 C.3     1  UNL1        0.1816
     33 O         -21.0158   -8.5582   -4.5464 O.2     1  UNL1       -0.1686
     34 O         -18.9875   -9.9045   -4.7460 O.2     1  UNL1       -0.1686
     35 N         -21.9074   -6.9062   -9.5533 N.pl3   1  UNL1       -0.3325
     36 H         -22.8122   -7.3169   -9.8740 H       1  UNL1        0.1468
     37 C         -22.1941   -5.0440  -11.1453 C.3     1  UNL1        0.0229
     38 C         -21.7027   -5.4711   -9.7658 C.3     1  UNL1        0.0871
@<TRIPOS>BOND
     1    37    38    1
     2    38    35    1
     3    35    24    1
     4    24    25   ar
     5    25    26   ar
     6    26    31    1
     7    31    32    1
     8    31    33    2
     9    31    34    2
    10    26    27   ar
    11    27    28   ar
    12    28    29    1
    13    28    30   ar
    14    30     1    1
    15     1     2    2
    16     1     3   am
    17     3     4    1
    18     4     5    1
    19     5     6    1
    20     6     7    1
    21     7     8   ar
    22     8     9   ar
    23     9    10   ar
    24    10    14    1
    25    14    15   ar
    26    15    16   ar
    27    16    17   ar
    28    17    18   ar
    29    18    19   ar
    30    19    20   ar
    31    20    21   ar
    32    21    22   ar
    33    10    11   ar
    34    11    12   ar
    35    12    13    1
    36    30    24   ar
    37    13     3    1
    38    12     7   ar
    39    22    14   ar
    40    21    17   ar
    41    35    36    1
    42    20    23    1
@<TRIPOS>MOLECULE
*****
 38 42 0 0 0
SMALL
GASTEIGER

@<TRIPOS>ATOM
      1 C         -26.2633   -5.8396  -15.2248 C.2     1  UNL1        0.2503
      2 O         -25.8189   -5.9959  -16.3944 O.2     1  UNL1       -0.2699
      3 N         -25.3944   -6.0187  -14.0850 N.am    1  UNL1       -0.2680
      4 C         -25.7156   -5.3163  -12.8303 C.3     1  UNL1        0.1412
      5 C         -24.6791   -5.5361  -11.7234 C.3     1  UNL1        0.2268
      6 O         -24.7303   -6.8660  -11.2126 O.3     1  UNL1       -0.4739
      7 C         -24.6105   -8.0632  -11.9395 C.ar    1  UNL1        0.1362
      8 C         -24.7258   -9.2509  -11.2087 C.ar    1  UNL1        0.0366
      9 C         -24.6820  -10.4926  -11.8408 C.ar    1  UNL1        0.0031
     10 C         -24.5265  -10.5754  -13.2310 C.ar    1  UNL1       -0.0000
     11 C         -24.3811   -9.3909  -13.9707 C.ar    1  UNL1        0.0004
     12 C         -24.4101   -8.1310  -13.3431 C.ar    1  UNL1        0.0317
     13 C         -24.2221   -6.8998  -14.1923 C.3     1  UNL1        0.1236
     14 C         -24.5286  -11.8941  -13.9113 C.ar    1  UNL1        0.0015
     15 C         -25.7562  -12.5623  -14.1788 C.ar    1  UNL1        0.0016
     16 C         -25.7706  -13.8162  -14.8179 C.ar    1  UNL1        0.0206
     17 C         -24.5483  -14.3749  -15.1756 C.ar    1  UNL1        0.0985
     18 N         -24.3286  -15.5510  -15.7904 N.ar    1  UNL1       -0.2241
     19 C         -22.9736  -15.5901  -15.8916 C.ar    1  UNL1        0.1750
     20 N         -22.3608  -14.5000  -15.3706 N.ar    1  UNL1       -0.3349
     21 C         -23.3698  -13.7441  -14.9226 C.ar    1  UNL1        0.0757
     22 C         -23.3089  -12.5042  -14.2927 C.ar    1  UNL1        0.0185
     23 H         -21.3369  -14.2994  -15.3295 H       1  UNL1        0.1675
     24 C         -28.1955   -4.2903  -15.6529 C.ar    1  UNL1        0.0500
     25 C         -29.5587   -3.9775  -15.4890 C.ar    1  UNL1        0.0328
     26 C         -30.3989   -4.7977  -14.7321 C.ar    1  UNL1        0.1066
     27 C         -29.8908   -5.9550  -14.1397 C.ar    1  UNL1        0.0143
     28 C         -28.5420   -6.3043  -14.2936 C.ar    1  UNL1       -0.0150
     29 C         -28.0322   -7.5655  -13.6438 C.3     1  UNL1        0.0313
     30 C         -27.6854   -5.4695  -15.0507 C.ar    1  UNL1        0.0628
     31 S         -32.1025   -4.3873  -14.5536 S.O2    1  UNL1        0.0105
     32 C         -32.2451   -2.7395  -13.9011 C.3     1  UNL1        0.1816
     33 O         -32.7900   -4.4597  -15.8884 O.2     1  UNL1       -0.1686
     34 O         -32.7646   -5.3590  -13.6174 O.2     1  UNL1       -0.1686
     35 N         -27.3258   -3.4114  -16.4039 N.pl3   1  UNL1       -0.3325
     36 H         -26.7073   -2.7455  -15.8899 H       1  UNL1        0.1468
     37 C         -28.5436   -2.8002  -18.4601 C.3     1  UNL1        0.0229
     38 C         -27.2696   -3.3944  -17.8679 C.3     1  UNL1        0.0871
@<TRIPOS>BOND
     1    37    38    1
     2    38    35    1
     3    35    24    1
     4    24    25   ar
     5    25    26   ar
     6    26    31    1
     7    31    32    1
     8    31    33    2
     9    31    34    2
    10    26    27   ar
    11    27    28   ar
    12    28    29    1
    13    28    30   ar
    14    30     1    1
    15     1     2    2
    16     1     3   am
    17     3     4    1
    18     4     5    1
    19     5     6    1
    20     6     7    1
    21     7     8   ar
    22     8     9   ar
    23     9    10   ar
    24    10    14    1
    25    14    15   ar
    26    15    16   ar
    27    16    17   ar
    28    17    18   ar
    29    18    19   ar
    30    19    20   ar
    31    20    21   ar
    32    21    22   ar
    33    10    11   ar
    34    11    12   ar
    35    12    13    1
    36    30    24   ar
    37    13     3    1
    38    12     7   ar
    39    22    14   ar
    40    21    17   ar
    41    35    36    1
    42    20    23    1
