@<TRIPOS>MOLECULE
*****
 54 60 0 0 0
SMALL
GASTEIGER

@<TRIPOS>ATOM
      1 C          60.7329   86.8172   10.3451 C.ar    1  UNL1        0.0481
      2 C          61.7659   87.1054   11.2503 C.ar    1  UNL1        0.0176
      3 C          61.9058   86.3609   12.4240 C.ar    1  UNL1        0.0382
      4 C          61.0057   85.3212   12.7153 C.ar    1  UNL1        0.1388
      5 C          59.9374   85.0789   11.8445 C.ar    1  UNL1        0.0382
      6 C          59.8078   85.8110   10.6608 C.ar    1  UNL1        0.0176
      7 N          60.1793   89.0604    6.8265 N.pl3   1  UNL1       -0.3041
      8 C          60.9365   89.6632    7.9294 C.3     1  UNL1        0.1122
      9 C          61.6073   88.5709    8.7620 C.3     1  UNL1        0.1122
     10 N          60.6356   87.5224    9.0946 N.pl3   1  UNL1       -0.3041
     11 C          59.8667   86.9252    7.9957 C.3     1  UNL1        0.1122
     12 C          59.2014   88.0180    7.1582 C.3     1  UNL1        0.1122
     13 C          60.1772   90.8925    2.9826 C.ar    1  UNL1        0.0702
     14 C          59.0525   90.9944    3.8156 C.ar    1  UNL1        0.0190
     15 C          59.0512   90.3956    5.0784 C.ar    1  UNL1        0.0160
     16 C          60.1750   89.6829    5.5281 C.ar    1  UNL1        0.0480
     17 C          61.2953   89.5726    4.6900 C.ar    1  UNL1        0.0160
     18 C          61.2954   90.1700    3.4266 C.ar    1  UNL1        0.0190
     19 N          59.5362   92.2185   -0.3270 N.ar    1  UNL1       -0.2020
     20 N          60.8239   92.5092   -0.2139 N.ar    1  UNL1       -0.1411
     21 C          61.2040   92.0734    1.0063 C.ar    1  UNL1        0.1938
     22 S          62.8966   92.1637    1.5866 S.3     1  UNL1       -0.1031
     23 N          60.1785   91.5004    1.6795 N.ar    1  UNL1       -0.2376
     24 C          59.1540   91.6074    0.8126 C.ar    1  UNL1        0.3525
     25 O          57.9830   91.2021    1.0457 O.2     1  UNL1       -0.2444
     26 H          62.6961   93.4426    2.1384 H       1  UNL1        0.1101
     27 C          58.7310   92.5314   -1.5134 C.3     1  UNL1        0.1099
     28 C          57.9446   91.2914   -1.9600 C.3     1  UNL1        0.0265
     29 C          56.3627   93.4879   -1.6332 C.3     1  UNL1        0.0021
     30 C          57.8159   93.7415   -1.2322 C.3     1  UNL1        0.0245
     31 O          61.1369   84.5125   13.8532 O.3     1  UNL1       -0.4727
     32 C          62.2517   83.6621   14.1295 C.3     1  UNL1        0.2374
     33 C          62.0252   82.2693   13.5250 C.3     1  UNL1        0.1909
     34 C          63.2016   81.3564   13.7106 C.3     1  UNL1        0.1783
     35 O          63.2328   80.5399   12.5810 O.3     1  UNL1       -0.3267
     36 C          62.2984   81.0845   11.6641 C.3     1  UNL1        0.2296
     37 O          61.8465   82.3342   12.1460 O.3     1  UNL1       -0.3255
     38 C          61.1311   80.1013   11.4932 C.ar    1  UNL1        0.0409
     39 C          60.0018   80.2524   12.3284 C.ar    1  UNL1        0.0022
     40 C          58.9214   79.3734   12.2484 C.ar    1  UNL1        0.0113
     41 C          58.9443   78.3175   11.3404 C.ar    1  UNL1        0.0585
     42 CL         57.5893   77.2076   11.2496 Cl      1  UNL1       -0.0822
     43 C          60.0536   78.1342   10.5157 C.ar    1  UNL1        0.0226
     44 C          61.1512   79.0016   10.5882 C.ar    1  UNL1        0.0591
     45 CL         62.5163   78.6168    9.5438 Cl      1  UNL1       -0.0824
     46 C          63.0361   81.2804   10.3203 C.3     1  UNL1        0.1679
     47 N          62.6512   82.5220    9.6399 N.ar    1  UNL1       -0.3084
     48 C          63.4431   83.5950    9.4789 C.ar    1  UNL1        0.0979
     49 C          62.7508   84.5416    8.7614 C.ar    1  UNL1        0.1188
     50 N          61.5304   84.0647    8.4486 N.ar    1  UNL1       -0.2293
     51 C          61.4936   82.8331    9.0062 C.ar    1  UNL1        0.1201
     52 C          60.3382   81.8822    8.7970 C.3     1  UNL1        0.0569
     53 C          59.0956   82.3463    9.5659 C.3     1  UNL1        0.0079
     54 C          60.0334   81.7526    7.3030 C.3     1  UNL1        0.0079
@<TRIPOS>BOND
     1    29    30    1
     2    30    27    1
     3    27    28    1
     4    27    19    1
     5    19    20   ar
     6    20    21   ar
     7    21    22    1
     8    21    23   ar
     9    23    13    1
    10    13    14   ar
    11    14    15   ar
    12    15    16   ar
    13    16     7    1
    14     7     8    1
    15     8     9    1
    16     9    10    1
    17    10     1    1
    18     1     2   ar
    19     2     3   ar
    20     3     4   ar
    21     4    31    1
    22    31    32    1
    23    32    33    1
    24    33    34    1
    25    34    35    1
    26    35    36    1
    27    36    46    1
    28    46    47    1
    29    47    48   ar
    30    48    49   ar
    31    49    50   ar
    32    50    51   ar
    33    51    52    1
    34    52    53    1
    35    52    54    1
    36    36    38    1
    37    38    39   ar
    38    39    40   ar
    39    40    41   ar
    40    41    42    1
    41    41    43   ar
    42    43    44   ar
    43    44    45    1
    44    36    37    1
    45     4     5   ar
    46     5     6   ar
    47    10    11    1
    48    11    12    1
    49    16    17   ar
    50    17    18   ar
    51    23    24   ar
    52    24    25    2
    53    24    19   ar
    54    18    13   ar
    55    12     7    1
    56     6     1   ar
    57    37    33    1
    58    51    47   ar
    59    44    38   ar
    60    22    26    1
@<TRIPOS>MOLECULE
*****
 54 60 0 0 0
SMALL
GASTEIGER

@<TRIPOS>ATOM
      1 C          60.7333   86.7518   11.0511 C.ar    1  UNL1        0.0481
      2 C          61.9903   86.4097   11.5729 C.ar    1  UNL1        0.0176
      3 C          62.0886   85.6865   12.7640 C.ar    1  UNL1        0.0382
      4 C          60.9280   85.3028   13.4580 C.ar    1  UNL1        0.1388
      5 C          59.6781   85.7019   12.9713 C.ar    1  UNL1        0.0382
      6 C          59.5782   86.4094   11.7699 C.ar    1  UNL1        0.0176
      7 N          60.0850   88.5772    7.3140 N.pl3   1  UNL1       -0.3041
      8 C          59.5552   89.2331    8.5150 C.3     1  UNL1        0.1122
      9 C          60.4107   88.8717    9.7290 C.3     1  UNL1        0.1122
     10 N          60.6233   87.4204    9.7818 N.pl3   1  UNL1       -0.3041
     11 C          61.1415   86.7581    8.5783 C.3     1  UNL1        0.1122
     12 C          60.2902   87.1252    7.3622 C.3     1  UNL1        0.1122
     13 C          60.1512   90.6434    3.5912 C.ar    1  UNL1        0.0702
     14 C          59.0059   90.6811    4.4011 C.ar    1  UNL1        0.0190
     15 C          58.9821   90.0054    5.6242 C.ar    1  UNL1        0.0160
     16 C          60.1038   89.2787    6.0566 C.ar    1  UNL1        0.0480
     17 C          61.2450   89.2329    5.2410 C.ar    1  UNL1        0.0160
     18 C          61.2676   89.9072    4.0172 C.ar    1  UNL1        0.0190
     19 N          59.5583   92.2075    0.3781 N.ar    1  UNL1       -0.2020
     20 N          60.8612   92.4188    0.4939 N.ar    1  UNL1       -0.1411
     21 C          61.2263   91.8871    1.6802 C.ar    1  UNL1        0.1938
     22 S          62.9260   91.8470    2.2452 S.3     1  UNL1       -0.1031
     23 N          60.1759   91.3307    2.3284 N.ar    1  UNL1       -0.2376
     24 C          59.1518   91.5483    1.4819 C.ar    1  UNL1        0.3525
     25 O          57.9619   91.1946    1.7030 O.2     1  UNL1       -0.2444
     26 H          62.8019   93.0981    2.8776 H       1  UNL1        0.1101
     27 C          58.7622   92.6381   -0.7772 C.3     1  UNL1        0.1099
     28 C          59.5648   93.6281   -1.6322 C.3     1  UNL1        0.0265
     29 C          56.7636   91.3022   -1.6486 C.3     1  UNL1        0.0021
     30 C          58.2871   91.4113   -1.5837 C.3     1  UNL1        0.0245
     31 O          60.9743   84.5314   14.6279 O.3     1  UNL1       -0.4727
     32 C          61.8535   83.4259   14.8457 C.3     1  UNL1        0.2374
     33 C          61.6449   82.3552   13.7656 C.3     1  UNL1        0.1909
     34 C          62.8907   82.0728   12.9783 C.3     1  UNL1        0.1783
     35 O          62.4644   81.7652   11.6870 O.3     1  UNL1       -0.3267
     36 C          61.0836   82.0830   11.6320 C.3     1  UNL1        0.2296
     37 O          60.7146   82.7643   12.8143 O.3     1  UNL1       -0.3255
     38 C          60.2766   80.7872   11.4640 C.ar    1  UNL1        0.0409
     39 C          59.0616   80.6595   12.1734 C.ar    1  UNL1        0.0022
     40 C          58.2966   79.4957   12.0920 C.ar    1  UNL1        0.0113
     41 C          58.7283   78.4280   11.3087 C.ar    1  UNL1        0.0585
     42 CL         57.7698   76.9621   11.2168 Cl      1  UNL1       -0.0822
     43 C          59.9322   78.5200   10.6112 C.ar    1  UNL1        0.0226
     44 C          60.7178   79.6773   10.6881 C.ar    1  UNL1        0.0591
     45 CL         62.2486   79.6367    9.8178 Cl      1  UNL1       -0.0824
     46 C          60.8746   83.0074   10.4113 C.3     1  UNL1        0.1679
     47 N          59.4979   82.9729    9.9052 N.ar    1  UNL1       -0.3084
     48 C          58.4537   83.6142   10.4553 C.ar    1  UNL1        0.0979
     49 C          57.3422   83.3768    9.6818 C.ar    1  UNL1        0.1188
     50 N          57.6819   82.6047    8.6316 N.ar    1  UNL1       -0.2293
     51 C          59.0024   82.3653    8.7989 C.ar    1  UNL1        0.1201
     52 C          59.8299   81.6290    7.7712 C.3     1  UNL1        0.0569
     53 C          59.0086   80.5309    7.0856 C.3     1  UNL1        0.0079
     54 C          60.3806   82.6168    6.7403 C.3     1  UNL1        0.0079
@<TRIPOS>BOND
     1    29    30    1
     2    30    27    1
     3    27    28    1
     4    27    19    1
     5    19    20   ar
     6    20    21   ar
     7    21    22    1
     8    21    23   ar
     9    23    13    1
    10    13    14   ar
    11    14    15   ar
    12    15    16   ar
    13    16     7    1
    14     7     8    1
    15     8     9    1
    16     9    10    1
    17    10     1    1
    18     1     2   ar
    19     2     3   ar
    20     3     4   ar
    21     4    31    1
    22    31    32    1
    23    32    33    1
    24    33    34    1
    25    34    35    1
    26    35    36    1
    27    36    46    1
    28    46    47    1
    29    47    48   ar
    30    48    49   ar
    31    49    50   ar
    32    50    51   ar
    33    51    52    1
    34    52    53    1
    35    52    54    1
    36    36    38    1
    37    38    39   ar
    38    39    40   ar
    39    40    41   ar
    40    41    42    1
    41    41    43   ar
    42    43    44   ar
    43    44    45    1
    44    36    37    1
    45     4     5   ar
    46     5     6   ar
    47    10    11    1
    48    11    12    1
    49    16    17   ar
    50    17    18   ar
    51    23    24   ar
    52    24    25    2
    53    24    19   ar
    54    18    13   ar
    55    12     7    1
    56     6     1   ar
    57    37    33    1
    58    51    47   ar
    59    44    38   ar
    60    22    26    1
@<TRIPOS>MOLECULE
*****
 54 60 0 0 0
SMALL
GASTEIGER

@<TRIPOS>ATOM
      1 C          60.2336   86.9635   10.4719 C.ar    1  UNL1        0.0481
      2 C          59.0657   86.3870   10.9945 C.ar    1  UNL1        0.0176
      3 C          59.0764   85.7879   12.2564 C.ar    1  UNL1        0.0382
      4 C          60.2612   85.7474   13.0117 C.ar    1  UNL1        0.1388
      5 C          61.4398   86.2634   12.4613 C.ar    1  UNL1        0.0382
      6 C          61.4257   86.8796   11.2067 C.ar    1  UNL1        0.0176
      7 N          60.4121   88.7738    6.6759 N.pl3   1  UNL1       -0.3041
      8 C          59.6336   87.5393    6.8270 C.3     1  UNL1        0.1122
      9 C          59.1165   87.4188    8.2603 C.3     1  UNL1        0.1122
     10 N          60.2083   87.6576    9.2118 N.pl3   1  UNL1       -0.3041
     11 C          60.9979   88.8856    9.0567 C.3     1  UNL1        0.1122
     12 C          61.5093   89.0101    7.6210 C.3     1  UNL1        0.1122
     13 C          60.0748   91.0899    3.1186 C.ar    1  UNL1        0.0702
     14 C          61.2695   90.4154    3.4131 C.ar    1  UNL1        0.0190
     15 C          61.3823   89.6531    4.5790 C.ar    1  UNL1        0.0160
     16 C          60.3017   89.5546    5.4710 C.ar    1  UNL1        0.0480
     17 C          59.1108   90.2381    5.1808 C.ar    1  UNL1        0.0160
     18 C          58.9991   91.0018    4.0158 C.ar    1  UNL1        0.0190
     19 N          59.2721   92.6655   -0.0430 N.ar    1  UNL1       -0.2020
     20 N          60.3307   93.3830    0.3033 N.ar    1  UNL1       -0.1411
     21 C          60.7380   92.9034    1.4980 C.ar    1  UNL1        0.1938
     22 S          62.2035   93.5019    2.3371 S.3     1  UNL1       -0.1031
     23 N          59.9583   91.8818    1.9240 N.ar    1  UNL1       -0.2376
     24 C          59.0552   91.7606    0.9329 C.ar    1  UNL1        0.3525
     25 O          58.1168   90.9184    0.9280 O.2     1  UNL1       -0.2444
     26 H          61.4742   94.4947    3.0175 H       1  UNL1        0.1101
     27 C          58.5195   92.8707   -1.2861 C.3     1  UNL1        0.1099
     28 C          58.1273   91.5179   -1.8955 C.3     1  UNL1        0.0265
     29 C          56.0315   93.2736   -1.7174 C.3     1  UNL1        0.0021
     30 C          57.2983   93.7775   -1.0259 C.3     1  UNL1        0.0245
     31 O          60.3088   85.2049   14.3037 O.3     1  UNL1       -0.4727
     32 C          61.3418   84.3480   14.7947 C.3     1  UNL1        0.2374
     33 C          61.3010   82.9931   14.0742 C.3     1  UNL1        0.1909
     34 C          62.6285   82.2937   14.0751 C.3     1  UNL1        0.1783
     35 O          62.6919   81.5941   12.8708 O.3     1  UNL1       -0.3267
     36 C          61.5955   82.0377   12.0888 C.3     1  UNL1        0.2296
     37 O          60.9840   83.1410   12.7268 O.3     1  UNL1       -0.3255
     38 C          60.6030   80.8790   11.9128 C.ar    1  UNL1        0.0409
     39 C          61.0774   79.6711   11.3545 C.ar    1  UNL1        0.0022
     40 C          60.2217   78.5911   11.1364 C.ar    1  UNL1        0.0113
     41 C          58.8711   78.6919   11.4613 C.ar    1  UNL1        0.0585
     42 CL         57.7956   77.3361   11.1759 Cl      1  UNL1       -0.0822
     43 C          58.3720   79.8782   11.9977 C.ar    1  UNL1        0.0226
     44 C          59.2146   80.9760   12.2155 C.ar    1  UNL1        0.0591
     45 CL         58.4452   82.4364   12.8298 Cl      1  UNL1       -0.0824
     46 C          62.1582   82.4752   10.7175 C.3     1  UNL1        0.1679
     47 N          61.1127   82.9434    9.8008 N.ar    1  UNL1       -0.3084
     48 C          59.7948   82.9383   10.0608 C.ar    1  UNL1        0.0979
     49 C          59.1381   83.4873    8.9850 C.ar    1  UNL1        0.1188
     50 N          60.0361   83.8597    8.0525 N.ar    1  UNL1       -0.2293
     51 C          61.2332   83.5067    8.5734 C.ar    1  UNL1        0.1201
     52 C          62.5428   83.8536    7.9045 C.3     1  UNL1        0.0569
     53 C          62.4207   83.7750    6.3783 C.3     1  UNL1        0.0079
     54 C          62.9975   85.2483    8.3402 C.3     1  UNL1        0.0079
@<TRIPOS>BOND
     1    29    30    1
     2    30    27    1
     3    27    28    1
     4    27    19    1
     5    19    20   ar
     6    20    21   ar
     7    21    22    1
     8    21    23   ar
     9    23    13    1
    10    13    14   ar
    11    14    15   ar
    12    15    16   ar
    13    16     7    1
    14     7     8    1
    15     8     9    1
    16     9    10    1
    17    10     1    1
    18     1     2   ar
    19     2     3   ar
    20     3     4   ar
    21     4    31    1
    22    31    32    1
    23    32    33    1
    24    33    34    1
    25    34    35    1
    26    35    36    1
    27    36    46    1
    28    46    47    1
    29    47    48   ar
    30    48    49   ar
    31    49    50   ar
    32    50    51   ar
    33    51    52    1
    34    52    53    1
    35    52    54    1
    36    36    38    1
    37    38    39   ar
    38    39    40   ar
    39    40    41   ar
    40    41    42    1
    41    41    43   ar
    42    43    44   ar
    43    44    45    1
    44    36    37    1
    45     4     5   ar
    46     5     6   ar
    47    10    11    1
    48    11    12    1
    49    16    17   ar
    50    17    18   ar
    51    23    24   ar
    52    24    25    2
    53    24    19   ar
    54    18    13   ar
    55    12     7    1
    56     6     1   ar
    57    37    33    1
    58    51    47   ar
    59    44    38   ar
    60    22    26    1
@<TRIPOS>MOLECULE
*****
 54 60 0 0 0
SMALL
GASTEIGER

@<TRIPOS>ATOM
      1 C          59.1141   86.0785    9.6585 C.ar    1  UNL1        0.0481
      2 C          59.5345   86.4341   10.9493 C.ar    1  UNL1        0.0176
      3 C          59.3224   85.5690   12.0255 C.ar    1  UNL1        0.0382
      4 C          58.6756   84.3368   11.8275 C.ar    1  UNL1        0.1388
      5 C          58.1981   84.0134   10.5524 C.ar    1  UNL1        0.0382
      6 C          58.4265   84.8700    9.4717 C.ar    1  UNL1        0.0176
      7 N          59.7427   88.7895    6.5003 N.pl3   1  UNL1       -0.3041
      8 C          60.4596   89.0060    7.7621 C.3     1  UNL1        0.1122
      9 C          60.6685   87.6731    8.4806 C.3     1  UNL1        0.1122
     10 N          59.4065   86.9254    8.5326 N.pl3   1  UNL1       -0.3041
     11 C          58.6795   86.7172    7.2742 C.3     1  UNL1        0.1122
     12 C          58.4767   88.0494    6.5516 C.3     1  UNL1        0.1122
     13 C          60.8134   91.0081    3.0270 C.ar    1  UNL1        0.0702
     14 C          61.6956   90.0544    3.5572 C.ar    1  UNL1        0.0190
     15 C          61.3460   89.3235    4.6959 C.ar    1  UNL1        0.0160
     16 C          60.1080   89.5363    5.3246 C.ar    1  UNL1        0.0480
     17 C          59.2307   90.4979    4.7997 C.ar    1  UNL1        0.0160
     18 C          59.5816   91.2298    3.6620 C.ar    1  UNL1        0.0190
     19 N          62.2973   93.0413    0.4219 N.ar    1  UNL1       -0.2020
     20 N          61.1082   92.8171   -0.1179 N.ar    1  UNL1       -0.1411
     21 C          60.4352   92.0417    0.7591 C.ar    1  UNL1        0.1938
     22 S          58.7322   91.5447    0.5089 S.3     1  UNL1       -0.1031
     23 N          61.1736   91.7676    1.8603 N.ar    1  UNL1       -0.2376
     24 C          62.3298   92.4120    1.6140 C.ar    1  UNL1        0.3525
     25 O          63.3214   92.4116    2.3928 O.2     1  UNL1       -0.2444
     26 H          59.1169   90.3797   -0.1805 H       1  UNL1        0.1101
     27 C          63.3444   93.8460   -0.2183 C.3     1  UNL1        0.1099
     28 C          64.6126   93.8465    0.6460 C.3     1  UNL1        0.0265
     29 C          63.7221   91.8140   -1.7238 C.3     1  UNL1        0.0021
     30 C          63.6064   93.3366   -1.6511 C.3     1  UNL1        0.0245
     31 O          58.4877   83.4132   12.8655 O.3     1  UNL1       -0.4727
     32 C          59.0531   82.1012   12.9067 C.3     1  UNL1        0.2374
     33 C          59.9843   81.8817   11.7062 C.3     1  UNL1        0.1909
     34 C          60.5635   80.4981   11.6649 C.3     1  UNL1        0.1783
     35 O          61.8392   80.6348   11.1192 O.3     1  UNL1       -0.3267
     36 C          62.1087   82.0259   11.0678 C.3     1  UNL1        0.2296
     37 O          61.0917   82.7236   11.7586 O.3     1  UNL1       -0.3255
     38 C          62.1852   82.4684    9.5992 C.ar    1  UNL1        0.0409
     39 C          63.2449   83.3184    9.2113 C.ar    1  UNL1        0.0022
     40 C          63.3544   83.7844    7.9009 C.ar    1  UNL1        0.0113
     41 C          62.4056   83.4219    6.9479 C.ar    1  UNL1        0.0585
     42 CL         62.5398   84.0182    5.3039 Cl      1  UNL1       -0.0822
     43 C          61.3395   82.5981    7.3070 C.ar    1  UNL1        0.0226
     44 C          61.2086   82.1276    8.6200 C.ar    1  UNL1        0.0591
     45 CL         59.7794   81.1555    8.9584 Cl      1  UNL1       -0.0824
     46 C          63.4666   82.2557   11.7689 C.3     1  UNL1        0.1679
     47 N          63.4252   81.9351   13.2000 N.ar    1  UNL1       -0.3084
     48 C          63.7294   80.7415   13.7360 C.ar    1  UNL1        0.0979
     49 C          63.6133   80.8372   15.1026 C.ar    1  UNL1        0.1188
     50 N          63.2570   82.0925   15.4366 N.ar    1  UNL1       -0.2293
     51 C          63.1398   82.7386   14.2543 C.ar    1  UNL1        0.1201
     52 C          62.8696   84.2224   14.1640 C.3     1  UNL1        0.0569
     53 C          61.5404   84.5831   14.8375 C.3     1  UNL1        0.0079
     54 C          64.0253   85.0022   14.7949 C.3     1  UNL1        0.0079
@<TRIPOS>BOND
     1    29    30    1
     2    30    27    1
     3    27    28    1
     4    27    19    1
     5    19    20   ar
     6    20    21   ar
     7    21    22    1
     8    21    23   ar
     9    23    13    1
    10    13    14   ar
    11    14    15   ar
    12    15    16   ar
    13    16     7    1
    14     7     8    1
    15     8     9    1
    16     9    10    1
    17    10     1    1
    18     1     2   ar
    19     2     3   ar
    20     3     4   ar
    21     4    31    1
    22    31    32    1
    23    32    33    1
    24    33    34    1
    25    34    35    1
    26    35    36    1
    27    36    46    1
    28    46    47    1
    29    47    48   ar
    30    48    49   ar
    31    49    50   ar
    32    50    51   ar
    33    51    52    1
    34    52    53    1
    35    52    54    1
    36    36    38    1
    37    38    39   ar
    38    39    40   ar
    39    40    41   ar
    40    41    42    1
    41    41    43   ar
    42    43    44   ar
    43    44    45    1
    44    36    37    1
    45     4     5   ar
    46     5     6   ar
    47    10    11    1
    48    11    12    1
    49    16    17   ar
    50    17    18   ar
    51    23    24   ar
    52    24    25    2
    53    24    19   ar
    54    18    13   ar
    55    12     7    1
    56     6     1   ar
    57    37    33    1
    58    51    47   ar
    59    44    38   ar
    60    22    26    1
@<TRIPOS>MOLECULE
*****
 54 60 0 0 0
SMALL
GASTEIGER

@<TRIPOS>ATOM
      1 C          60.7976   86.4514   10.4898 C.ar    1  UNL1        0.0481
      2 C          59.6526   85.9905   11.1576 C.ar    1  UNL1        0.0176
      3 C          59.7667   85.3281   12.3822 C.ar    1  UNL1        0.0382
      4 C          61.0321   85.1071   12.9532 C.ar    1  UNL1        0.1388
      5 C          62.1761   85.5082   12.2542 C.ar    1  UNL1        0.0382
      6 C          62.0618   86.1876   11.0379 C.ar    1  UNL1        0.0176
      7 N          60.1129   88.6983    6.9968 N.pl3   1  UNL1       -0.3041
      8 C          60.2534   89.4111    8.2716 C.3     1  UNL1        0.1122
      9 C          61.1330   88.6054    9.2274 C.3     1  UNL1        0.1122
     10 N          60.6814   87.2096    9.2725 N.pl3   1  UNL1       -0.3041
     11 C          60.5273   86.4963    7.9985 C.3     1  UNL1        0.1122
     12 C          59.6534   87.3054    7.0394 C.3     1  UNL1        0.1122
     13 C          60.1589   90.8491    3.3220 C.ar    1  UNL1        0.0702
     14 C          59.0211   90.8750    4.1428 C.ar    1  UNL1        0.0190
     15 C          59.0039   90.1715    5.3502 C.ar    1  UNL1        0.0160
     16 C          60.1249   89.4284    5.7557 C.ar    1  UNL1        0.0480
     17 C          61.2585   89.3946    4.9291 C.ar    1  UNL1        0.0160
     18 C          61.2745   90.0968    3.7209 C.ar    1  UNL1        0.0190
     19 N          59.5642   92.4390    0.1218 N.ar    1  UNL1       -0.2020
     20 N          60.8431   92.7422    0.2892 N.ar    1  UNL1       -0.1411
     21 C          61.2051   92.2115    1.4769 C.ar    1  UNL1        0.1938
     22 S          62.8824   92.2827    2.1024 S.3     1  UNL1       -0.1031
     23 N          60.1767   91.5652    2.0751 N.ar    1  UNL1       -0.2376
     24 C          59.1694   91.7268    1.1966 C.ar    1  UNL1        0.3525
     25 O          58.0019   91.2822    1.3671 O.2     1  UNL1       -0.2444
     26 H          62.6445   93.5066    2.7552 H       1  UNL1        0.1101
     27 C          58.7792   92.8367   -1.0526 C.3     1  UNL1        0.1099
     28 C          59.5670   93.8474   -1.8970 C.3     1  UNL1        0.0265
     29 C          56.8624   91.3040   -1.7704 C.3     1  UNL1        0.0021
     30 C          58.3613   91.5904   -1.8609 C.3     1  UNL1        0.0245
     31 O          61.1937   84.4948   14.2042 O.3     1  UNL1       -0.4727
     32 C          62.1074   83.4320   14.4838 C.3     1  UNL1        0.2374
     33 C          61.8748   82.2590   13.5213 C.3     1  UNL1        0.1909
     34 C          63.1400   81.7788   12.8732 C.3     1  UNL1        0.1783
     35 O          62.7767   81.3530   11.5963 O.3     1  UNL1       -0.3267
     36 C          61.4386   81.7769   11.3956 C.3     1  UNL1        0.2296
     37 O          61.0542   82.6259   12.4584 O.3     1  UNL1       -0.3255
     38 C          60.5279   80.5429   11.3147 C.ar    1  UNL1        0.0409
     39 C          59.2469   80.6174   11.9057 C.ar    1  UNL1        0.0022
     40 C          58.3829   79.5221   11.8973 C.ar    1  UNL1        0.0113
     41 C          58.7780   78.3237   11.3077 C.ar    1  UNL1        0.0585
     42 CL         57.6937   76.9451   11.3084 Cl      1  UNL1       -0.0822
     43 C          60.0435   78.2166   10.7321 C.ar    1  UNL1        0.0226
     44 C          60.9277   79.3031   10.7388 C.ar    1  UNL1        0.0591
     45 CL         62.5199   79.0136   10.0436 Cl      1  UNL1       -0.0824
     46 C          61.4009   82.5598   10.0637 C.3     1  UNL1        0.1679
     47 N          60.4673   81.9786    9.0925 N.ar    1  UNL1       -0.3084
     48 C          60.6896   80.8656    8.3741 C.ar    1  UNL1        0.0979
     49 C          59.5762   80.6143    7.6076 C.ar    1  UNL1        0.1188
     50 N          58.6407   81.5518    7.8530 N.ar    1  UNL1       -0.2293
     51 C          59.2158   82.3776    8.7565 C.ar    1  UNL1        0.1201
     52 C          58.4653   83.5155    9.4083 C.3     1  UNL1        0.0569
     53 C          57.7224   84.3565    8.3637 C.3     1  UNL1        0.0079
     54 C          57.4915   82.9669   10.4536 C.3     1  UNL1        0.0079
@<TRIPOS>BOND
     1    29    30    1
     2    30    27    1
     3    27    28    1
     4    27    19    1
     5    19    20   ar
     6    20    21   ar
     7    21    22    1
     8    21    23   ar
     9    23    13    1
    10    13    14   ar
    11    14    15   ar
    12    15    16   ar
    13    16     7    1
    14     7     8    1
    15     8     9    1
    16     9    10    1
    17    10     1    1
    18     1     2   ar
    19     2     3   ar
    20     3     4   ar
    21     4    31    1
    22    31    32    1
    23    32    33    1
    24    33    34    1
    25    34    35    1
    26    35    36    1
    27    36    46    1
    28    46    47    1
    29    47    48   ar
    30    48    49   ar
    31    49    50   ar
    32    50    51   ar
    33    51    52    1
    34    52    53    1
    35    52    54    1
    36    36    38    1
    37    38    39   ar
    38    39    40   ar
    39    40    41   ar
    40    41    42    1
    41    41    43   ar
    42    43    44   ar
    43    44    45    1
    44    36    37    1
    45     4     5   ar
    46     5     6   ar
    47    10    11    1
    48    11    12    1
    49    16    17   ar
    50    17    18   ar
    51    23    24   ar
    52    24    25    2
    53    24    19   ar
    54    18    13   ar
    55    12     7    1
    56     6     1   ar
    57    37    33    1
    58    51    47   ar
    59    44    38   ar
    60    22    26    1
@<TRIPOS>MOLECULE
*****
 54 60 0 0 0
SMALL
GASTEIGER

@<TRIPOS>ATOM
      1 C          58.9857   86.0662    9.8316 C.ar    1  UNL1        0.0481
      2 C          58.3298   84.8376    9.6595 C.ar    1  UNL1        0.0176
      3 C          57.9538   84.0752   10.7681 C.ar    1  UNL1        0.0382
      4 C          58.2387   84.5269   12.0684 C.ar    1  UNL1        0.1388
      5 C          58.9514   85.7195   12.2361 C.ar    1  UNL1        0.0382
      6 C          59.3113   86.4919   11.1281 C.ar    1  UNL1        0.0176
      7 N          59.6586   88.7225    6.6363 N.pl3   1  UNL1       -0.3041
      8 C          60.3131   88.9930    7.9215 C.3     1  UNL1        0.1122
      9 C          60.5352   87.6853    8.6810 C.3     1  UNL1        0.1122
     10 N          59.2978   86.8961    8.6983 N.pl3   1  UNL1       -0.3041
     11 C          58.6328   86.6336    7.4160 C.3     1  UNL1        0.1122
     12 C          58.4170   87.9408    6.6526 C.3     1  UNL1        0.1122
     13 C          60.8045   90.8958    3.1583 C.ar    1  UNL1        0.0702
     14 C          61.6106   89.8522    3.6381 C.ar    1  UNL1        0.0190
     15 C          61.2359   89.1361    4.7783 C.ar    1  UNL1        0.0160
     16 C          60.0489   89.4537    5.4589 C.ar    1  UNL1        0.0480
     17 C          59.2487   90.5046    4.9843 C.ar    1  UNL1        0.0160
     18 C          59.6247   91.2215    3.8452 C.ar    1  UNL1        0.0190
     19 N          62.3496   92.8909    0.5594 N.ar    1  UNL1       -0.2020
     20 N          61.1698   92.6670   -0.0006 N.ar    1  UNL1       -0.1411
     21 C          60.4757   91.9054    0.8720 C.ar    1  UNL1        0.1938
     22 S          58.7750   91.4150    0.5948 S.3     1  UNL1       -0.1031
     23 N          61.1913   91.6398    1.9902 N.ar    1  UNL1       -0.2376
     24 C          62.3556   92.2750    1.7589 C.ar    1  UNL1        0.3525
     25 O          63.3321   92.2781    2.5566 O.2     1  UNL1       -0.2444
     26 H          59.1661   90.2401   -0.0739 H       1  UNL1        0.1101
     27 C          63.4134   93.6824   -0.0696 C.3     1  UNL1        0.1099
     28 C          64.5951   93.8413    0.8967 C.3     1  UNL1        0.0265
     29 C          63.4788   91.5586   -1.4921 C.3     1  UNL1        0.0021
     30 C          63.8294   93.0444   -1.4116 C.3     1  UNL1        0.0245
     31 O          57.8348   83.8234   13.2119 O.3     1  UNL1       -0.4727
     32 C          58.4210   82.6043   13.6731 C.3     1  UNL1        0.2374
     33 C          58.7869   81.7034   12.4853 C.3     1  UNL1        0.1909
     34 C          59.4854   80.4432   12.9046 C.3     1  UNL1        0.1783
     35 O          60.3834   80.1460   11.8804 O.3     1  UNL1       -0.3267
     36 C          60.4071   81.2761   11.0245 C.3     1  UNL1        0.2296
     37 O          59.6838   82.3314   11.6256 O.3     1  UNL1       -0.3255
     38 C          59.8003   80.8908    9.6673 C.ar    1  UNL1        0.0409
     39 C          58.5614   81.4631    9.3021 C.ar    1  UNL1        0.0022
     40 C          57.9389   81.1305    8.0987 C.ar    1  UNL1        0.0113
     41 C          58.5316   80.2130    7.2346 C.ar    1  UNL1        0.0585
     42 CL         57.7413   79.7885    5.7275 Cl      1  UNL1       -0.0822
     43 C          59.7458   79.6195    7.5776 C.ar    1  UNL1        0.0226
     44 C          60.3811   79.9347    8.7857 C.ar    1  UNL1        0.0591
     45 CL         61.8715   79.0619    9.1309 Cl      1  UNL1       -0.0824
     46 C          61.8862   81.6899   10.8528 C.3     1  UNL1        0.1679
     47 N          62.0838   83.1397   10.9613 N.ar    1  UNL1       -0.3084
     48 C          62.1298   83.8317   12.1117 C.ar    1  UNL1        0.0979
     49 C          62.3687   85.1525   11.8144 C.ar    1  UNL1        0.1188
     50 N          62.4954   85.2973   10.4811 N.ar    1  UNL1       -0.2293
     51 C          62.3071   84.0534    9.9848 C.ar    1  UNL1        0.1201
     52 C          62.4837   83.7295    8.5196 C.3     1  UNL1        0.0569
     53 C          61.1277   83.5578    7.8252 C.3     1  UNL1        0.0079
     54 C          63.3057   84.8259    7.8385 C.3     1  UNL1        0.0079
@<TRIPOS>BOND
     1    29    30    1
     2    30    27    1
     3    27    28    1
     4    27    19    1
     5    19    20   ar
     6    20    21   ar
     7    21    22    1
     8    21    23   ar
     9    23    13    1
    10    13    14   ar
    11    14    15   ar
    12    15    16   ar
    13    16     7    1
    14     7     8    1
    15     8     9    1
    16     9    10    1
    17    10     1    1
    18     1     2   ar
    19     2     3   ar
    20     3     4   ar
    21     4    31    1
    22    31    32    1
    23    32    33    1
    24    33    34    1
    25    34    35    1
    26    35    36    1
    27    36    46    1
    28    46    47    1
    29    47    48   ar
    30    48    49   ar
    31    49    50   ar
    32    50    51   ar
    33    51    52    1
    34    52    53    1
    35    52    54    1
    36    36    38    1
    37    38    39   ar
    38    39    40   ar
    39    40    41   ar
    40    41    42    1
    41    41    43   ar
    42    43    44   ar
    43    44    45    1
    44    36    37    1
    45     4     5   ar
    46     5     6   ar
    47    10    11    1
    48    11    12    1
    49    16    17   ar
    50    17    18   ar
    51    23    24   ar
    52    24    25    2
    53    24    19   ar
    54    18    13   ar
    55    12     7    1
    56     6     1   ar
    57    37    33    1
    58    51    47   ar
    59    44    38   ar
    60    22    26    1
@<TRIPOS>MOLECULE
*****
 54 60 0 0 0
SMALL
GASTEIGER

@<TRIPOS>ATOM
      1 C          60.3434   87.2690   10.5446 C.ar    1  UNL1        0.0481
      2 C          59.2422   86.5285   11.0010 C.ar    1  UNL1        0.0176
      3 C          59.2424   85.9797   12.2857 C.ar    1  UNL1        0.0382
      4 C          60.3516   86.1552   13.1311 C.ar    1  UNL1        0.1388
      5 C          61.4753   86.8370   12.6505 C.ar    1  UNL1        0.0382
      6 C          61.4683   87.4023   11.3721 C.ar    1  UNL1        0.0176
      7 N          60.4593   88.8795    6.6572 N.pl3   1  UNL1       -0.3041
      8 C          59.5116   87.7949    6.9379 C.3     1  UNL1        0.1122
      9 C          59.1153   87.8153    8.4140 C.3     1  UNL1        0.1122
     10 N          60.3136   87.9092    9.2563 N.pl3   1  UNL1       -0.3041
     11 C          61.2708   88.9853    8.9711 C.3     1  UNL1        0.1122
     12 C          61.6619   88.9698    7.4929 C.3     1  UNL1        0.1122
     13 C          60.1681   91.0797    3.0231 C.ar    1  UNL1        0.0702
     14 C          61.3710   90.4476    3.3731 C.ar    1  UNL1        0.0190
     15 C          61.4687   89.7232    4.5643 C.ar    1  UNL1        0.0160
     16 C          60.3646   89.6211    5.4266 C.ar    1  UNL1        0.0480
     17 C          59.1651   90.2625    5.0808 C.ar    1  UNL1        0.0160
     18 C          59.0685   90.9882    3.8904 C.ar    1  UNL1        0.0190
     19 N          59.3607   92.6006   -0.1639 N.ar    1  UNL1       -0.2020
     20 N          60.4957   93.2294    0.1041 N.ar    1  UNL1       -0.1411
     21 C          60.9148   92.7602    1.2988 C.ar    1  UNL1        0.1938
     22 S          62.4675   93.2516    2.0455 S.3     1  UNL1       -0.1031
     23 N          60.0667   91.8326    1.8022 N.ar    1  UNL1       -0.2376
     24 C          59.1096   91.7579    0.8583 C.ar    1  UNL1        0.3525
     25 O          58.0992   91.0071    0.9311 O.2     1  UNL1       -0.2444
     26 H          61.8653   94.3333    2.7148 H       1  UNL1        0.1101
     27 C          58.5708   92.8271   -1.3799 C.3     1  UNL1        0.1099
     28 C          58.1551   91.4850   -1.9973 C.3     1  UNL1        0.0265
     29 C          56.0359   93.1278   -1.5295 C.3     1  UNL1        0.0021
     30 C          57.3615   93.7336   -1.0683 C.3     1  UNL1        0.0245
     31 O          60.3767   85.6692   14.4460 O.3     1  UNL1       -0.4727
     32 C          61.4402   84.9032   15.0159 C.3     1  UNL1        0.2374
     33 C          61.4541   83.4857   14.4268 C.3     1  UNL1        0.1909
     34 C          62.8421   82.9467   14.2410 C.3     1  UNL1        0.1783
     35 O          62.7888   82.1389   13.1059 O.3     1  UNL1       -0.3267
     36 C          61.5259   82.3712   12.5047 C.3     1  UNL1        0.2296
     37 O          60.8937   83.4569   13.1528 O.3     1  UNL1       -0.3255
     38 C          60.6784   81.0946   12.6077 C.ar    1  UNL1        0.0409
     39 C          61.3472   79.8529   12.6908 C.ar    1  UNL1        0.0022
     40 C          60.6379   78.6532   12.7528 C.ar    1  UNL1        0.0113
     41 C          59.2454   78.6615   12.7246 C.ar    1  UNL1        0.0585
     42 CL         58.3565   77.1510   12.7918 Cl      1  UNL1       -0.0822
     43 C          58.5595   79.8715   12.6256 C.ar    1  UNL1        0.0226
     44 C          59.2552   81.0853   12.5535 C.ar    1  UNL1        0.0591
     45 CL         58.2724   82.5339   12.3585 Cl      1  UNL1       -0.0824
     46 C          61.7824   82.7269   11.0229 C.3     1  UNL1        0.1679
     47 N          61.3998   81.6459   10.1076 N.ar    1  UNL1       -0.3084
     48 C          62.0481   80.4768    9.9751 C.ar    1  UNL1        0.0979
     49 C          61.3732   79.7081    9.0565 C.ar    1  UNL1        0.1188
     50 N          60.2878   80.3768    8.6217 N.ar    1  UNL1       -0.2293
     51 C          60.3345   81.5610    9.2732 C.ar    1  UNL1        0.1201
     52 C          59.2287   82.5857    9.1736 C.3     1  UNL1        0.0569
     53 C          59.5679   83.6648    8.1387 C.3     1  UNL1        0.0079
     54 C          57.9084   81.8958    8.8235 C.3     1  UNL1        0.0079
@<TRIPOS>BOND
     1    29    30    1
     2    30    27    1
     3    27    28    1
     4    27    19    1
     5    19    20   ar
     6    20    21   ar
     7    21    22    1
     8    21    23   ar
     9    23    13    1
    10    13    14   ar
    11    14    15   ar
    12    15    16   ar
    13    16     7    1
    14     7     8    1
    15     8     9    1
    16     9    10    1
    17    10     1    1
    18     1     2   ar
    19     2     3   ar
    20     3     4   ar
    21     4    31    1
    22    31    32    1
    23    32    33    1
    24    33    34    1
    25    34    35    1
    26    35    36    1
    27    36    46    1
    28    46    47    1
    29    47    48   ar
    30    48    49   ar
    31    49    50   ar
    32    50    51   ar
    33    51    52    1
    34    52    53    1
    35    52    54    1
    36    36    38    1
    37    38    39   ar
    38    39    40   ar
    39    40    41   ar
    40    41    42    1
    41    41    43   ar
    42    43    44   ar
    43    44    45    1
    44    36    37    1
    45     4     5   ar
    46     5     6   ar
    47    10    11    1
    48    11    12    1
    49    16    17   ar
    50    17    18   ar
    51    23    24   ar
    52    24    25    2
    53    24    19   ar
    54    18    13   ar
    55    12     7    1
    56     6     1   ar
    57    37    33    1
    58    51    47   ar
    59    44    38   ar
    60    22    26    1
@<TRIPOS>MOLECULE
*****
 54 60 0 0 0
SMALL
GASTEIGER

@<TRIPOS>ATOM
      1 C          58.4217   83.8374   10.2689 C.ar    1  UNL1        0.0481
      2 C          58.1076   84.1141   11.6084 C.ar    1  UNL1        0.0176
      3 C          57.9708   83.0749   12.5319 C.ar    1  UNL1        0.0382
      4 C          58.1363   81.7394   12.1257 C.ar    1  UNL1        0.1388
      5 C          58.3837   81.4618   10.7766 C.ar    1  UNL1        0.0382
      6 C          58.5392   82.5019    9.8558 C.ar    1  UNL1        0.0176
      7 N          59.4256   86.8673    7.5247 N.pl3   1  UNL1       -0.3041
      8 C          59.1996   85.5093    7.0168 C.3     1  UNL1        0.1122
      9 C          58.2311   84.7623    7.9335 C.3     1  UNL1        0.1122
     10 N          58.6491   84.9064    9.3330 N.pl3   1  UNL1       -0.3041
     11 C          58.8885   86.2626    9.8419 C.3     1  UNL1        0.1122
     12 C          59.8517   87.0127    8.9212 C.3     1  UNL1        0.1122
     13 C          59.7366   90.1344    4.8115 C.ar    1  UNL1        0.0702
     14 C          58.4814   89.7297    5.2907 C.ar    1  UNL1        0.0190
     15 C          58.3766   88.6589    6.1827 C.ar    1  UNL1        0.0160
     16 C          59.5265   87.9737    6.6087 C.ar    1  UNL1        0.0480
     17 C          60.7804   88.3725    6.1205 C.ar    1  UNL1        0.0160
     18 C          60.8844   89.4421    5.2272 C.ar    1  UNL1        0.0190
     19 N          60.3922   92.4676    2.1191 N.ar    1  UNL1       -0.2020
     20 N          59.7089   93.2546    2.9371 N.ar    1  UNL1       -0.1411
     21 C          59.3797   92.4958    4.0044 C.ar    1  UNL1        0.1938
     22 S          58.5198   93.1498    5.4336 S.3     1  UNL1       -0.1031
     23 N          59.8469   91.2304    3.8872 N.ar    1  UNL1       -0.2376
     24 C          60.4767   91.2524    2.6974 C.ar    1  UNL1        0.3525
     25 O          61.0565   90.2575    2.1838 O.2     1  UNL1       -0.2444
     26 H          57.2606   92.8596    4.8762 H       1  UNL1        0.1101
     27 C          60.9358   92.9081    0.8291 C.3     1  UNL1        0.1099
     28 C          62.4699   92.8806    0.8652 C.3     1  UNL1        0.0265
     29 C          58.8410   92.1949   -0.4522 C.3     1  UNL1        0.0021
     30 C          60.3565   92.0490   -0.3144 C.3     1  UNL1        0.0245
     31 O          58.0613   80.6670   13.0257 O.3     1  UNL1       -0.4727
     32 C          59.1868   80.0065   13.6084 C.3     1  UNL1        0.2374
     33 C          60.4950   80.6044   13.0720 C.3     1  UNL1        0.1909
     34 C          61.7117   80.0366   13.7420 C.3     1  UNL1        0.1783
     35 O          62.6417   81.0743   13.7868 O.3     1  UNL1       -0.3267
     36 C          61.9513   82.2512   13.4013 C.3     1  UNL1        0.2296
     37 O          60.5681   81.9731   13.3149 O.3     1  UNL1       -0.3255
     38 C          62.5039   82.7388   12.0539 C.ar    1  UNL1        0.0409
     39 C          61.6769   83.5512   11.2466 C.ar    1  UNL1        0.0022
     40 C          62.1043   84.0005    9.9969 C.ar    1  UNL1        0.0113
     41 C          63.3626   83.6437    9.5180 C.ar    1  UNL1        0.0585
     42 CL         63.8929   84.2010    7.9418 Cl      1  UNL1       -0.0822
     43 C          64.1931   82.8286   10.2862 C.ar    1  UNL1        0.0226
     44 C          63.7772   82.3609   11.5395 C.ar    1  UNL1        0.0591
     45 CL         64.8907   81.2818   12.3750 Cl      1  UNL1       -0.0824
     46 C          62.2022   83.3098   14.4989 C.3     1  UNL1        0.1679
     47 N          61.2734   84.4424   14.4149 N.ar    1  UNL1       -0.3084
     48 C          59.9872   84.4202   14.8016 C.ar    1  UNL1        0.0979
     49 C          59.4539   85.6724   14.6076 C.ar    1  UNL1        0.1188
     50 N          60.4028   86.4942   14.1190 N.ar    1  UNL1       -0.2293
     51 C          61.5011   85.7137   14.0023 C.ar    1  UNL1        0.1201
     52 C          62.8489   86.2651   13.5995 C.3     1  UNL1        0.0569
     53 C          62.6986   87.3965   12.5758 C.3     1  UNL1        0.0079
     54 C          63.6043   86.7524   14.8380 C.3     1  UNL1        0.0079
@<TRIPOS>BOND
     1    29    30    1
     2    30    27    1
     3    27    28    1
     4    27    19    1
     5    19    20   ar
     6    20    21   ar
     7    21    22    1
     8    21    23   ar
     9    23    13    1
    10    13    14   ar
    11    14    15   ar
    12    15    16   ar
    13    16     7    1
    14     7     8    1
    15     8     9    1
    16     9    10    1
    17    10     1    1
    18     1     2   ar
    19     2     3   ar
    20     3     4   ar
    21     4    31    1
    22    31    32    1
    23    32    33    1
    24    33    34    1
    25    34    35    1
    26    35    36    1
    27    36    46    1
    28    46    47    1
    29    47    48   ar
    30    48    49   ar
    31    49    50   ar
    32    50    51   ar
    33    51    52    1
    34    52    53    1
    35    52    54    1
    36    36    38    1
    37    38    39   ar
    38    39    40   ar
    39    40    41   ar
    40    41    42    1
    41    41    43   ar
    42    43    44   ar
    43    44    45    1
    44    36    37    1
    45     4     5   ar
    46     5     6   ar
    47    10    11    1
    48    11    12    1
    49    16    17   ar
    50    17    18   ar
    51    23    24   ar
    52    24    25    2
    53    24    19   ar
    54    18    13   ar
    55    12     7    1
    56     6     1   ar
    57    37    33    1
    58    51    47   ar
    59    44    38   ar
    60    22    26    1
