@<TRIPOS>MOLECULE
*****
 41 45 0 0 0
SMALL
GASTEIGER

@<TRIPOS>ATOM
      1 C          -6.1480  -16.1615   25.2490 C.ar    1  UNL1        0.0888
      2 C          -6.0378  -15.4877   26.4966 C.ar    1  UNL1        0.0282
      3 C          -7.2095  -15.0001   27.0940 C.ar    1  UNL1        0.0997
      4 N          -7.3288  -14.3371   28.2582 N.ar    1  UNL1       -0.2137
      5 C          -8.6680  -14.1090   28.3341 C.ar    1  UNL1        0.1984
      6 N          -9.3729  -14.5846   27.2746 N.ar    1  UNL1       -0.3255
      7 C          -8.4334  -15.1477   26.5081 C.ar    1  UNL1        0.0755
      8 C          -8.5621  -15.7903   25.2853 C.ar    1  UNL1        0.0325
      9 C          -7.4374  -16.2802   24.6699 C.ar    1  UNL1        0.1401
     10 O          -7.7583  -16.8454   23.4529 O.3     1  UNL1       -0.4824
     11 C          -9.1656  -16.7631   23.2053 C.3     1  UNL1        0.1375
     12 C          -9.7335  -18.1814   23.0631 C.3     1  UNL1        0.0439
     13 C          -9.4029  -15.9597   21.9199 C.3     1  UNL1        0.0439
     14 C          -9.7666  -16.0323   24.4526 C.3     1  UNL1        0.0709
     15 H         -10.3978  -14.5175   27.0865 H       1  UNL1        0.1686
     16 N          -4.9370  -16.9206   23.1564 N.am    1  UNL1       -0.2799
     17 C          -4.9437  -16.6894   24.5730 C.2     1  UNL1        0.2525
     18 O          -3.9181  -16.9629   25.2552 O.2     1  UNL1       -0.2697
     19 H          -5.8467  -17.0965   22.6742 H       1  UNL1        0.1552
     20 C          -4.2534  -19.6459   22.4285 C.3     1  UNL1        0.0323
     21 C          -3.3716  -18.4827   22.0620 C.ar    1  UNL1       -0.0076
     22 C          -2.1954  -18.7085   21.3288 C.ar    1  UNL1        0.0009
     23 C          -1.3490  -17.6443   20.9805 C.ar    1  UNL1        0.0720
     24 C          -1.7246  -16.3355   21.3185 C.ar    1  UNL1        0.0165
     25 C          -2.8984  -16.0928   22.0378 C.ar    1  UNL1        0.0707
     26 CL         -3.3494  -14.4233   22.3661 Cl      1  UNL1       -0.0810
     27 C          -3.7233  -17.1658   22.4289 C.ar    1  UNL1        0.0572
     28 C          -0.1101  -17.8938   20.1568 C.3     1  UNL1        0.4186
     29 F          -0.3243  -18.9816   19.3312 F       1  UNL1       -0.1659
     30 F           0.9758  -18.1550   20.9746 F       1  UNL1       -0.1659
     31 F           0.1916  -16.7895   19.3786 F       1  UNL1       -0.1659
     32 N          -9.2617  -13.3953   29.4257 N.pl3   1  UNL1       -0.2816
     33 H          -9.6029  -13.9466   30.2448 H       1  UNL1        0.1551
     34 C          -9.2166  -11.9662   29.5353 C.ar    1  UNL1        0.0889
     35 C         -10.4129  -11.2339   29.4713 C.ar    1  UNL1        0.1543
     36 F         -11.6000  -11.8753   29.3280 F       1  UNL1       -0.2028
     37 C         -10.3924   -9.8400   29.5754 C.ar    1  UNL1        0.0310
     38 C          -9.1788   -9.1667   29.7288 C.ar    1  UNL1        0.0033
     39 C          -7.9808   -9.8841   29.7677 C.ar    1  UNL1        0.0128
     40 C          -7.9901  -11.2803   29.6645 C.ar    1  UNL1        0.0733
     41 CL         -6.4510  -12.1326   29.6338 Cl      1  UNL1       -0.0809
@<TRIPOS>BOND
     1    20    21    1
     2    21    22   ar
     3    22    23   ar
     4    23    28    1
     5    28    29    1
     6    28    30    1
     7    28    31    1
     8    23    24   ar
     9    24    25   ar
    10    25    26    1
    11    25    27   ar
    12    27    16    1
    13    16    17   am
    14    17    18    2
    15    17     1    1
    16     1     2   ar
    17     2     3   ar
    18     3     4   ar
    19     4     5   ar
    20     5    32    1
    21    32    34    1
    22    34    35   ar
    23    35    36    1
    24    35    37   ar
    25    37    38   ar
    26    38    39   ar
    27    39    40   ar
    28    40    41    1
    29     5     6   ar
    30     6     7   ar
    31     7     8   ar
    32     8     9   ar
    33     9    10    1
    34    10    11    1
    35    11    12    1
    36    11    13    1
    37    11    14    1
    38    27    21   ar
    39     9     1   ar
    40     7     3   ar
    41    14     8    1
    42    40    34   ar
    43    16    19    1
    44    32    33    1
    45     6    15    1
@<TRIPOS>MOLECULE
*****
 41 45 0 0 0
SMALL
GASTEIGER

@<TRIPOS>ATOM
      1 C          -7.7143  -13.7577   28.2957 C.ar    1  UNL1        0.0888
      2 C          -8.9326  -14.1254   28.9305 C.ar    1  UNL1        0.0282
      3 C          -9.4385  -13.2860   29.9340 C.ar    1  UNL1        0.0997
      4 N         -10.5613  -13.4469   30.6571 N.ar    1  UNL1       -0.2137
      5 C         -10.5499  -12.3556   31.4697 C.ar    1  UNL1        0.1984
      6 N          -9.4759  -11.5428   31.2925 N.ar    1  UNL1       -0.3255
      7 C          -8.7917  -12.1461   30.3151 C.ar    1  UNL1        0.0755
      8 C          -7.5955  -11.7754   29.7181 C.ar    1  UNL1        0.0325
      9 C          -7.0691  -12.5724   28.7326 C.ar    1  UNL1        0.1401
     10 O          -5.8641  -12.0654   28.2916 O.3     1  UNL1       -0.4824
     11 C          -5.5332  -10.8568   28.9832 C.3     1  UNL1        0.1375
     12 C          -5.4266   -9.7113   27.9680 C.3     1  UNL1        0.0439
     13 C          -4.1997  -11.0476   29.7175 C.3     1  UNL1        0.0439
     14 C          -6.7081  -10.6171   29.9897 C.3     1  UNL1        0.0709
     15 H          -9.2269  -10.6660   31.8020 H       1  UNL1        0.1686
     16 N          -7.7148  -14.6518   25.9245 N.am    1  UNL1       -0.2799
     17 C          -7.1337  -14.6101   27.2363 C.2     1  UNL1        0.2525
     18 O          -6.1296  -15.3281   27.4976 O.2     1  UNL1       -0.2697
     19 H          -8.7266  -14.4148   25.8182 H       1  UNL1        0.1552
     20 C          -9.2390  -16.1970   23.9974 C.3     1  UNL1        0.0323
     21 C          -7.7545  -15.9951   23.8552 C.ar    1  UNL1       -0.0076
     22 C          -7.0826  -16.5462   22.7521 C.ar    1  UNL1        0.0009
     23 C          -5.6971  -16.3819   22.5978 C.ar    1  UNL1        0.0720
     24 C          -4.9950  -15.6018   23.5289 C.ar    1  UNL1        0.0165
     25 C          -5.6514  -15.0365   24.6259 C.ar    1  UNL1        0.0707
     26 CL         -4.7275  -14.0086   25.7161 Cl      1  UNL1       -0.0810
     27 C          -7.0335  -15.2416   24.8063 C.ar    1  UNL1        0.0572
     28 C          -4.9932  -16.9426   21.3872 C.3     1  UNL1        0.4186
     29 F          -3.8752  -17.6455   21.7958 F       1  UNL1       -0.1659
     30 F          -4.5997  -15.9245   20.5359 F       1  UNL1       -0.1659
     31 F          -5.8289  -17.7935   20.6846 F       1  UNL1       -0.1659
     32 N         -11.5708  -12.1191   32.4471 N.pl3   1  UNL1       -0.2816
     33 H         -11.9374  -11.1461   32.5483 H       1  UNL1        0.1551
     34 C         -12.2502  -13.1797   33.1326 C.ar    1  UNL1        0.0889
     35 C         -13.5190  -13.5840   32.6874 C.ar    1  UNL1        0.1543
     36 F         -14.0853  -12.9899   31.6070 F       1  UNL1       -0.2028
     37 C         -14.1995  -14.6154   33.3409 C.ar    1  UNL1        0.0310
     38 C         -13.6267  -15.2398   34.4508 C.ar    1  UNL1        0.0033
     39 C         -12.3762  -14.8276   34.9174 C.ar    1  UNL1        0.0128
     40 C         -11.6860  -13.7956   34.2701 C.ar    1  UNL1        0.0733
     41 CL        -10.1536  -13.2549   34.9450 Cl      1  UNL1       -0.0809
@<TRIPOS>BOND
     1    20    21    1
     2    21    22   ar
     3    22    23   ar
     4    23    28    1
     5    28    29    1
     6    28    30    1
     7    28    31    1
     8    23    24   ar
     9    24    25   ar
    10    25    26    1
    11    25    27   ar
    12    27    16    1
    13    16    17   am
    14    17    18    2
    15    17     1    1
    16     1     2   ar
    17     2     3   ar
    18     3     4   ar
    19     4     5   ar
    20     5    32    1
    21    32    34    1
    22    34    35   ar
    23    35    36    1
    24    35    37   ar
    25    37    38   ar
    26    38    39   ar
    27    39    40   ar
    28    40    41    1
    29     5     6   ar
    30     6     7   ar
    31     7     8   ar
    32     8     9   ar
    33     9    10    1
    34    10    11    1
    35    11    12    1
    36    11    13    1
    37    11    14    1
    38    27    21   ar
    39     9     1   ar
    40     7     3   ar
    41    14     8    1
    42    40    34   ar
    43    16    19    1
    44    32    33    1
    45     6    15    1
@<TRIPOS>MOLECULE
*****
 41 45 0 0 0
SMALL
GASTEIGER

@<TRIPOS>ATOM
      1 C          -7.5202  -13.1360   28.4984 C.ar    1  UNL1        0.0888
      2 C          -8.7703  -13.6050   28.9882 C.ar    1  UNL1        0.0282
      3 C          -9.3369  -12.9542   30.0940 C.ar    1  UNL1        0.0997
      4 N         -10.4977  -13.2356   30.7125 N.ar    1  UNL1       -0.2137
      5 C         -10.5385  -12.3055   31.7048 C.ar    1  UNL1        0.1984
      6 N          -9.4610  -11.4788   31.7352 N.ar    1  UNL1       -0.3255
      7 C          -8.7192  -11.9025   30.7068 C.ar    1  UNL1        0.0755
      8 C          -7.4934  -11.4372   30.2534 C.ar    1  UNL1        0.0325
      9 C          -6.9075  -12.0495   29.1739 C.ar    1  UNL1        0.1401
     10 O          -5.6825  -11.4777   28.8984 O.3     1  UNL1       -0.4824
     11 C          -5.3982  -10.4120   29.8105 C.3     1  UNL1        0.1375
     12 C          -5.2411   -9.1054   29.0216 C.3     1  UNL1        0.0439
     13 C          -4.1072  -10.7355   30.5737 C.3     1  UNL1        0.0439
     14 C          -6.6294  -10.3491   30.7755 C.3     1  UNL1        0.0709
     15 H          -9.2462  -10.7071   32.4051 H       1  UNL1        0.1686
     16 N          -7.4617  -14.9498   26.7296 N.am    1  UNL1       -0.2799
     17 C          -6.8758  -13.7900   27.3394 C.2     1  UNL1        0.2525
     18 O          -5.7844  -13.3363   26.8979 O.2     1  UNL1       -0.2697
     19 H          -8.0897  -15.5540   27.3054 H       1  UNL1        0.1552
     20 C          -4.7384  -15.9125   26.4444 C.3     1  UNL1        0.0323
     21 C          -5.7062  -15.9193   25.2920 C.ar    1  UNL1       -0.0076
     22 C          -5.2977  -16.4235   24.0466 C.ar    1  UNL1        0.0009
     23 C          -6.1757  -16.4342   22.9515 C.ar    1  UNL1        0.0720
     24 C          -7.4952  -15.9927   23.1309 C.ar    1  UNL1        0.0165
     25 C          -7.9209  -15.4989   24.3674 C.ar    1  UNL1        0.0707
     26 CL         -9.6081  -15.0296   24.5460 Cl      1  UNL1       -0.0810
     27 C          -7.0254  -15.4437   25.4536 C.ar    1  UNL1        0.0572
     28 C          -5.7392  -17.0168   21.6303 C.3     1  UNL1        0.4186
     29 F          -4.6769  -17.8759   21.8407 F       1  UNL1       -0.1659
     30 F          -5.3435  -16.0146   20.7613 F       1  UNL1       -0.1659
     31 F          -6.7753  -17.7176   21.0374 F       1  UNL1       -0.1659
     32 N         -11.6143  -12.2413   32.6492 N.pl3   1  UNL1       -0.2816
     33 H         -11.9841  -11.2993   32.9087 H       1  UNL1        0.1551
     34 C         -12.3350  -13.4017   33.0855 C.ar    1  UNL1        0.0889
     35 C         -13.5249  -13.7581   32.4308 C.ar    1  UNL1        0.1543
     36 F         -13.9753  -13.0226   31.3834 F       1  UNL1       -0.2028
     37 C         -14.2438  -14.8851   32.8397 C.ar    1  UNL1        0.0310
     38 C         -13.7896  -15.6548   33.9125 C.ar    1  UNL1        0.0033
     39 C         -12.6206  -15.2940   34.5869 C.ar    1  UNL1        0.0128
     40 C         -11.8930  -14.1673   34.1855 C.ar    1  UNL1        0.0733
     41 CL        -10.4743  -13.7050   35.1183 Cl      1  UNL1       -0.0809
@<TRIPOS>BOND
     1    20    21    1
     2    21    22   ar
     3    22    23   ar
     4    23    28    1
     5    28    29    1
     6    28    30    1
     7    28    31    1
     8    23    24   ar
     9    24    25   ar
    10    25    26    1
    11    25    27   ar
    12    27    16    1
    13    16    17   am
    14    17    18    2
    15    17     1    1
    16     1     2   ar
    17     2     3   ar
    18     3     4   ar
    19     4     5   ar
    20     5    32    1
    21    32    34    1
    22    34    35   ar
    23    35    36    1
    24    35    37   ar
    25    37    38   ar
    26    38    39   ar
    27    39    40   ar
    28    40    41    1
    29     5     6   ar
    30     6     7   ar
    31     7     8   ar
    32     8     9   ar
    33     9    10    1
    34    10    11    1
    35    11    12    1
    36    11    13    1
    37    11    14    1
    38    27    21   ar
    39     9     1   ar
    40     7     3   ar
    41    14     8    1
    42    40    34   ar
    43    16    19    1
    44    32    33    1
    45     6    15    1
@<TRIPOS>MOLECULE
*****
 41 45 0 0 0
SMALL
GASTEIGER

@<TRIPOS>ATOM
      1 C          -7.6294  -13.7043   28.2834 C.ar    1  UNL1        0.0888
      2 C          -8.8241  -14.0298   28.9828 C.ar    1  UNL1        0.0282
      3 C          -9.2662  -13.1544   29.9857 C.ar    1  UNL1        0.0997
      4 N         -10.3573  -13.2730   30.7634 N.ar    1  UNL1       -0.2137
      5 C         -10.2866  -12.1617   31.5454 C.ar    1  UNL1        0.1984
      6 N          -9.2059  -11.3766   31.2977 N.ar    1  UNL1       -0.3255
      7 C          -8.5798  -12.0191   30.3064 C.ar    1  UNL1        0.0755
      8 C          -7.4055  -11.6892   29.6457 C.ar    1  UNL1        0.0325
      9 C          -6.9412  -12.5222   28.6587 C.ar    1  UNL1        0.1401
     10 O          -5.7480  -12.0522   28.1497 O.3     1  UNL1       -0.4824
     11 C          -5.3615  -10.8335   28.7930 C.3     1  UNL1        0.1375
     12 C          -5.2792   -9.7169   27.7439 C.3     1  UNL1        0.0439
     13 C          -3.9994  -11.0336   29.4703 C.3     1  UNL1        0.0439
     14 C          -6.4835  -10.5433   29.8456 C.3     1  UNL1        0.0709
     15 H          -8.9162  -10.4925   31.7718 H       1  UNL1        0.1686
     16 N          -7.7216  -14.6157   25.9206 N.am    1  UNL1       -0.2799
     17 C          -7.1156  -14.5957   27.2215 C.2     1  UNL1        0.2525
     18 O          -6.1478  -15.3658   27.4716 O.2     1  UNL1       -0.2697
     19 H          -8.7206  -14.3242   25.8298 H       1  UNL1        0.1552
     20 C          -9.3517  -16.1546   24.0769 C.3     1  UNL1        0.0323
     21 C          -7.8669  -16.0022   23.8847 C.ar    1  UNL1       -0.0076
     22 C          -7.2469  -16.5980   22.7745 C.ar    1  UNL1        0.0009
     23 C          -5.8625  -16.4805   22.5743 C.ar    1  UNL1        0.0720
     24 C          -5.1083  -15.7023   23.4652 C.ar    1  UNL1        0.0165
     25 C          -5.7125  -15.0929   24.5686 C.ar    1  UNL1        0.0707
     26 CL         -4.7241  -14.0705   25.6062 Cl      1  UNL1       -0.0810
     27 C          -7.0938  -15.2508   24.7959 C.ar    1  UNL1        0.0572
     28 C          -5.2142  -17.0893   21.3558 C.3     1  UNL1        0.4186
     29 F          -4.8978  -16.0856   20.4595 F       1  UNL1       -0.1659
     30 F          -6.0716  -17.9871   20.7435 F       1  UNL1       -0.1659
     31 F          -4.0572  -17.7654   21.7025 F       1  UNL1       -0.1659
     32 N         -11.2562  -11.8788   32.5619 N.pl3   1  UNL1       -0.2816
     33 H         -11.5909  -10.8940   32.6604 H       1  UNL1        0.1551
     34 C         -11.9337  -12.9071   33.2966 C.ar    1  UNL1        0.0889
     35 C         -11.2734  -13.5389   34.3626 C.ar    1  UNL1        0.1543
     36 F         -10.0151  -13.1644   34.7052 F       1  UNL1       -0.2028
     37 C         -11.9146  -14.5442   35.0922 C.ar    1  UNL1        0.0310
     38 C         -13.2116  -14.9362   34.7546 C.ar    1  UNL1        0.0033
     39 C         -13.8676  -14.3318   33.6796 C.ar    1  UNL1        0.0128
     40 C         -13.2345  -13.3239   32.9424 C.ar    1  UNL1        0.0733
     41 CL        -14.0682  -12.6522   31.5458 Cl      1  UNL1       -0.0809
@<TRIPOS>BOND
     1    20    21    1
     2    21    22   ar
     3    22    23   ar
     4    23    28    1
     5    28    29    1
     6    28    30    1
     7    28    31    1
     8    23    24   ar
     9    24    25   ar
    10    25    26    1
    11    25    27   ar
    12    27    16    1
    13    16    17   am
    14    17    18    2
    15    17     1    1
    16     1     2   ar
    17     2     3   ar
    18     3     4   ar
    19     4     5   ar
    20     5    32    1
    21    32    34    1
    22    34    35   ar
    23    35    36    1
    24    35    37   ar
    25    37    38   ar
    26    38    39   ar
    27    39    40   ar
    28    40    41    1
    29     5     6   ar
    30     6     7   ar
    31     7     8   ar
    32     8     9   ar
    33     9    10    1
    34    10    11    1
    35    11    12    1
    36    11    13    1
    37    11    14    1
    38    27    21   ar
    39     9     1   ar
    40     7     3   ar
    41    14     8    1
    42    40    34   ar
    43    16    19    1
    44    32    33    1
    45     6    15    1
@<TRIPOS>MOLECULE
*****
 41 45 0 0 0
SMALL
GASTEIGER

@<TRIPOS>ATOM
      1 C          -6.4933  -15.2298   25.8262 C.ar    1  UNL1        0.0888
      2 C          -5.1920  -15.1178   25.2635 C.ar    1  UNL1        0.0282
      3 C          -4.9778  -15.6348   23.9773 C.ar    1  UNL1        0.0997
      4 N          -3.8350  -15.6371   23.2678 N.ar    1  UNL1       -0.2137
      5 C          -4.2018  -16.2622   22.1162 C.ar    1  UNL1        0.1984
      6 N          -5.5024  -16.6535   22.0871 N.ar    1  UNL1       -0.3255
      7 C          -5.9737  -16.2423   23.2687 C.ar    1  UNL1        0.0755
      8 C          -7.2470  -16.3736   23.8037 C.ar    1  UNL1        0.0325
      9 C          -7.4944  -15.8805   25.0604 C.ar    1  UNL1        0.1401
     10 O          -8.7968  -16.1396   25.4348 O.3     1  UNL1       -0.4824
     11 C          -9.4999  -16.8308   24.3973 C.3     1  UNL1        0.1375
     12 C         -10.6893  -15.9753   23.9417 C.3     1  UNL1        0.0439
     13 C          -9.9872  -18.1824   24.9356 C.3     1  UNL1        0.0439
     14 C          -8.4597  -17.0195   23.2425 C.3     1  UNL1        0.0709
     15 H          -6.0154  -17.1664   21.3360 H       1  UNL1        0.1686
     16 N          -6.6671  -13.3042   27.4645 N.am    1  UNL1       -0.2799
     17 C          -6.7718  -14.7074   27.1811 C.2     1  UNL1        0.2525
     18 O          -7.0812  -15.5097   28.1045 O.2     1  UNL1       -0.2697
     19 H          -6.0398  -12.7192   26.8684 H       1  UNL1        0.1552
     20 C          -5.0719  -11.3481   28.8975 C.3     1  UNL1        0.0323
     21 C          -6.4304  -11.7738   29.3854 C.ar    1  UNL1       -0.0076
     22 C          -6.9594  -11.1989   30.5523 C.ar    1  UNL1        0.0009
     23 C          -8.2198  -11.5829   31.0363 C.ar    1  UNL1        0.0720
     24 C          -8.9796  -12.5062   30.3025 C.ar    1  UNL1        0.0165
     25 C          -8.4723  -13.0788   29.1326 C.ar    1  UNL1        0.0707
     26 CL         -9.5050  -14.1741   28.2202 Cl      1  UNL1       -0.0810
     27 C          -7.1873  -12.7288   28.6731 C.ar    1  UNL1        0.0572
     28 C          -8.7956  -10.9280   32.2672 C.3     1  UNL1        0.4186
     29 F          -7.8283  -10.8840   33.2537 F       1  UNL1       -0.1659
     30 F          -9.8855  -11.6414   32.7355 F       1  UNL1       -0.1659
     31 F          -9.2125   -9.6382   31.9865 F       1  UNL1       -0.1659
     32 N          -3.2749  -16.5106   21.0520 N.pl3   1  UNL1       -0.2816
     33 H          -3.1996  -15.7992   20.2907 H       1  UNL1        0.1551
     34 C          -2.3098  -17.5704   21.0944 C.ar    1  UNL1        0.0889
     35 C          -0.9867  -17.3112   20.7020 C.ar    1  UNL1        0.1543
     36 F          -0.6227  -16.0652   20.3070 F       1  UNL1       -0.2028
     37 C          -0.0296  -18.3295   20.7349 C.ar    1  UNL1        0.0310
     38 C          -0.3883  -19.6153   21.1444 C.ar    1  UNL1        0.0033
     39 C          -1.7077  -19.8898   21.5122 C.ar    1  UNL1        0.0128
     40 C          -2.6741  -18.8771   21.4830 C.ar    1  UNL1        0.0733
     41 CL         -4.3392  -19.2909   21.8737 Cl      1  UNL1       -0.0809
@<TRIPOS>BOND
     1    20    21    1
     2    21    22   ar
     3    22    23   ar
     4    23    28    1
     5    28    29    1
     6    28    30    1
     7    28    31    1
     8    23    24   ar
     9    24    25   ar
    10    25    26    1
    11    25    27   ar
    12    27    16    1
    13    16    17   am
    14    17    18    2
    15    17     1    1
    16     1     2   ar
    17     2     3   ar
    18     3     4   ar
    19     4     5   ar
    20     5    32    1
    21    32    34    1
    22    34    35   ar
    23    35    36    1
    24    35    37   ar
    25    37    38   ar
    26    38    39   ar
    27    39    40   ar
    28    40    41    1
    29     5     6   ar
    30     6     7   ar
    31     7     8   ar
    32     8     9   ar
    33     9    10    1
    34    10    11    1
    35    11    12    1
    36    11    13    1
    37    11    14    1
    38    27    21   ar
    39     9     1   ar
    40     7     3   ar
    41    14     8    1
    42    40    34   ar
    43    16    19    1
    44    32    33    1
    45     6    15    1
@<TRIPOS>MOLECULE
*****
 41 45 0 0 0
SMALL
GASTEIGER

@<TRIPOS>ATOM
      1 C          -6.1874  -15.9551   23.6064 C.ar    1  UNL1        0.0888
      2 C          -4.8312  -15.6661   23.2905 C.ar    1  UNL1        0.0282
      3 C          -4.2205  -16.3922   22.2574 C.ar    1  UNL1        0.0997
      4 N          -2.9589  -16.2818   21.8042 N.ar    1  UNL1       -0.2137
      5 C          -2.9148  -17.2179   20.8177 C.ar    1  UNL1        0.1984
      6 N          -4.0758  -17.9034   20.6509 N.ar    1  UNL1       -0.3255
      7 C          -4.8868  -17.3619   21.5654 C.ar    1  UNL1        0.0755
      8 C          -6.2060  -17.6687   21.8657 C.ar    1  UNL1        0.0325
      9 C          -6.8368  -16.9797   22.8712 C.ar    1  UNL1        0.1401
     10 O          -8.1215  -17.4502   23.0489 O.3     1  UNL1       -0.4824
     11 C          -8.4136  -18.5032   22.1246 C.3     1  UNL1        0.1375
     12 C          -9.5919  -18.0795   21.2379 C.3     1  UNL1        0.0439
     13 C          -8.7627  -19.7757   22.9074 C.3     1  UNL1        0.0439
     14 C          -7.1077  -18.6932   21.2823 C.3     1  UNL1        0.0709
     15 H          -4.2888  -18.6785   19.9844 H       1  UNL1        0.1686
     16 N          -6.4904  -15.4039   26.0613 N.am    1  UNL1       -0.2799
     17 C          -6.8770  -15.2238   24.6907 C.2     1  UNL1        0.2525
     18 O          -7.8335  -14.4510   24.4081 O.2     1  UNL1       -0.2697
     19 H          -6.0246  -16.2976   26.3360 H       1  UNL1        0.1552
     20 C          -8.9993  -15.9692   27.4067 C.3     1  UNL1        0.0323
     21 C          -8.1543  -14.7790   27.7727 C.ar    1  UNL1       -0.0076
     22 C          -8.5707  -13.9249   28.8067 C.ar    1  UNL1        0.0009
     23 C          -7.8077  -12.8022   29.1640 C.ar    1  UNL1        0.0720
     24 C          -6.5837  -12.5755   28.5169 C.ar    1  UNL1        0.0165
     25 C          -6.1494  -13.4230   27.4937 C.ar    1  UNL1        0.0707
     26 CL         -4.5710  -13.1257   26.7733 Cl      1  UNL1       -0.0810
     27 C          -6.9386  -14.5226   27.1028 C.ar    1  UNL1        0.0572
     28 C          -8.2436  -11.9158   30.3042 C.3     1  UNL1        0.4186
     29 F          -8.6936  -10.7110   29.7975 F       1  UNL1       -0.1659
     30 F          -7.1883  -11.6762   31.1675 F       1  UNL1       -0.1659
     31 F          -9.2642  -12.5112   31.0252 F       1  UNL1       -0.1659
     32 N          -1.7279  -17.4710   20.0558 N.pl3   1  UNL1       -0.2816
     33 H          -1.5704  -16.9068   19.1907 H       1  UNL1        0.1551
     34 C          -0.6606  -18.3009   20.5336 C.ar    1  UNL1        0.0889
     35 C           0.6674  -17.8764   20.3673 C.ar    1  UNL1        0.1543
     36 F           0.9349  -16.6834   19.7788 F       1  UNL1       -0.2028
     37 C           1.7235  -18.6697   20.8250 C.ar    1  UNL1        0.0310
     38 C           1.4633  -19.8972   21.4375 C.ar    1  UNL1        0.0033
     39 C           0.1468  -20.3405   21.5846 C.ar    1  UNL1        0.0128
     40 C          -0.9182  -19.5537   21.1299 C.ar    1  UNL1        0.0733
     41 CL         -2.5527  -20.1921   21.2612 Cl      1  UNL1       -0.0809
@<TRIPOS>BOND
     1    20    21    1
     2    21    22   ar
     3    22    23   ar
     4    23    28    1
     5    28    29    1
     6    28    30    1
     7    28    31    1
     8    23    24   ar
     9    24    25   ar
    10    25    26    1
    11    25    27   ar
    12    27    16    1
    13    16    17   am
    14    17    18    2
    15    17     1    1
    16     1     2   ar
    17     2     3   ar
    18     3     4   ar
    19     4     5   ar
    20     5    32    1
    21    32    34    1
    22    34    35   ar
    23    35    36    1
    24    35    37   ar
    25    37    38   ar
    26    38    39   ar
    27    39    40   ar
    28    40    41    1
    29     5     6   ar
    30     6     7   ar
    31     7     8   ar
    32     8     9   ar
    33     9    10    1
    34    10    11    1
    35    11    12    1
    36    11    13    1
    37    11    14    1
    38    27    21   ar
    39     9     1   ar
    40     7     3   ar
    41    14     8    1
    42    40    34   ar
    43    16    19    1
    44    32    33    1
    45     6    15    1
