@<TRIPOS>MOLECULE
*****
 36 39 0 0 0
SMALL
GASTEIGER

@<TRIPOS>ATOM
      1 C          46.0301   12.0885  -29.8876 C.ar    1  UNL1        0.1718
      2 C          46.3798   11.0306  -29.0318 C.ar    1  UNL1        0.0400
      3 C          46.7753   11.2826  -27.7199 C.ar    1  UNL1        0.0030
      4 C          46.8347   12.5948  -27.2285 C.ar    1  UNL1       -0.0015
      5 C          46.5169   13.6724  -28.0905 C.ar    1  UNL1        0.0145
      6 C          46.0973   13.4115  -29.4128 C.ar    1  UNL1        0.1636
      7 O          45.7492   14.4743  -30.2502 O.3     1  UNL1       -0.5031
      8 C          46.6386   15.0936  -27.5859 C.3     1  UNL1        0.0299
      9 C          45.5395   15.4412  -26.5690 C.3     1  UNL1        0.0091
     10 C          45.2675   14.3467  -25.5194 C.3     1  UNL1        0.0227
     11 C          46.5339   13.6852  -25.0049 C.2     1  UNL1       -0.0398
     12 C          47.2227   12.8219  -25.8046 C.2     1  UNL1       -0.0076
     13 H          45.4421   14.3368  -31.2054 H       1  UNL1        0.2923
     14 C          48.4136   12.0991  -25.3087 C.ar    1  UNL1        0.0056
     15 C          48.2760   11.0349  -24.4143 C.ar    1  UNL1        0.0402
     16 C          49.4078   10.3559  -23.9232 C.ar    1  UNL1        0.1754
     17 C          50.6995   10.7670  -24.3468 C.ar    1  UNL1        0.2061
     18 C          50.8288   11.8303  -25.2568 C.ar    1  UNL1        0.1754
     19 C          49.6834   12.4801  -25.7452 C.ar    1  UNL1        0.0402
     20 O          49.2699    9.2910  -23.0192 O.3     1  UNL1       -0.4683
     21 C          49.4034    9.3976  -21.6054 C.3     1  UNL1        0.2526
     22 O          51.8943   10.1699  -23.9009 O.3     1  UNL1       -0.4654
     23 C          52.5122    9.0053  -24.4368 C.3     1  UNL1        0.2528
     24 O          52.1210   12.2189  -25.6458 O.3     1  UNL1       -0.4683
     25 C          52.7627   11.8020  -26.8468 C.3     1  UNL1        0.2526
     26 C          46.0901   12.5858  -32.3415 C.3     1  UNL1        0.2526
     27 O          45.6145   11.8635  -31.2101 O.3     1  UNL1       -0.4684
     28 C          46.9388   13.9439  -23.5586 C.3     1  UNL1        0.0488
     29 C          48.3139   14.5752  -23.4336 C.ar    1  UNL1       -0.0127
     30 C          48.6792   15.6012  -24.3254 C.ar    1  UNL1       -0.0035
     31 C          49.9511   16.1741  -24.2728 C.ar    1  UNL1       -0.0003
     32 C          50.8686   15.7516  -23.3125 C.ar    1  UNL1        0.0005
     33 C          50.5090   14.7708  -22.3878 C.ar    1  UNL1        0.0056
     34 C          49.2352   14.1891  -22.4265 C.ar    1  UNL1        0.0178
     35 S          48.8316   12.9817  -21.1578 S.3     1  UNL1       -0.1417
     36 H          48.3200   13.9742  -20.3015 H       1  UNL1        0.1071
@<TRIPOS>BOND
     1    26    27    1
     2    27     1    1
     3     1     2   ar
     4     2     3   ar
     5     3     4   ar
     6     4     5   ar
     7     5     6   ar
     8     6     7    1
     9     5     8    1
    10     8     9    1
    11     9    10    1
    12    10    11    1
    13    11    28    1
    14    28    29    1
    15    29    30   ar
    16    30    31   ar
    17    31    32   ar
    18    32    33   ar
    19    33    34   ar
    20    34    35    1
    21    11    12    2
    22    12    14    1
    23    14    15   ar
    24    15    16   ar
    25    16    20    1
    26    20    21    1
    27    16    17   ar
    28    17    22    1
    29    22    23    1
    30    17    18   ar
    31    18    24    1
    32    24    25    1
    33    18    19   ar
    34     6     1   ar
    35    34    29   ar
    36    19    14   ar
    37    12     4    1
    38     7    13    1
    39    35    36    1
@<TRIPOS>MOLECULE
*****
 36 39 0 0 0
SMALL
GASTEIGER

@<TRIPOS>ATOM
      1 C          46.0492   12.0694  -29.8614 C.ar    1  UNL1        0.1718
      2 C          46.4072   11.0288  -28.9880 C.ar    1  UNL1        0.0400
      3 C          46.7984   11.3057  -27.6798 C.ar    1  UNL1        0.0030
      4 C          46.8451   12.6262  -27.2097 C.ar    1  UNL1       -0.0015
      5 C          46.5188   13.6867  -28.0896 C.ar    1  UNL1        0.0145
      6 C          46.1037   13.4005  -29.4081 C.ar    1  UNL1        0.1636
      7 O          45.7472   14.4463  -30.2631 O.3     1  UNL1       -0.5031
      8 C          46.6267   15.1169  -27.6080 C.3     1  UNL1        0.0299
      9 C          45.5228   15.4710  -26.5985 C.3     1  UNL1        0.0091
     10 C          45.2593   14.3912  -25.5316 C.3     1  UNL1        0.0227
     11 C          46.5308   13.7498  -25.0046 C.2     1  UNL1       -0.0398
     12 C          47.2287   12.8800  -25.7891 C.2     1  UNL1       -0.0076
     13 H          45.4428   14.2906  -31.2164 H       1  UNL1        0.2923
     14 C          48.4253   12.1762  -25.2799 C.ar    1  UNL1        0.0056
     15 C          49.7038   12.5648  -25.6871 C.ar    1  UNL1        0.0402
     16 C          50.8458   11.8853  -25.2209 C.ar    1  UNL1        0.1754
     17 C          50.6848   10.7925  -24.3283 C.ar    1  UNL1        0.2061
     18 C          49.3959   10.4158  -23.9134 C.ar    1  UNL1        0.1754
     19 C          48.2739   11.1206  -24.3793 C.ar    1  UNL1        0.0402
     20 O          52.1300   12.2715  -25.6354 O.3     1  UNL1       -0.4683
     21 C          52.7859   11.7995  -26.8080 C.3     1  UNL1        0.2526
     22 O          51.7573   10.0345  -23.8205 O.3     1  UNL1       -0.4654
     23 C          52.4277    8.9658  -24.4793 C.3     1  UNL1        0.2528
     24 O          49.2716    9.3234  -23.0397 O.3     1  UNL1       -0.4683
     25 C          49.1365    9.4309  -21.6261 C.3     1  UNL1        0.2526
     26 C          46.1126   12.5237  -32.3235 C.3     1  UNL1        0.2526
     27 O          45.6378   11.8192  -31.1807 O.3     1  UNL1       -0.4684
     28 C          46.9311   14.0357  -23.5621 C.3     1  UNL1        0.0488
     29 C          48.3067   14.6672  -23.4444 C.ar    1  UNL1       -0.0127
     30 C          48.6679   15.6919  -24.3395 C.ar    1  UNL1       -0.0035
     31 C          49.9400   16.2648  -24.2937 C.ar    1  UNL1       -0.0003
     32 C          50.8619   15.8437  -23.3369 C.ar    1  UNL1        0.0005
     33 C          50.5067   14.8644  -22.4091 C.ar    1  UNL1        0.0056
     34 C          49.2326   14.2826  -22.4411 C.ar    1  UNL1        0.0178
     35 S          48.8349   13.0771  -21.1686 S.3     1  UNL1       -0.1417
     36 H          48.3273   14.0709  -20.3115 H       1  UNL1        0.1071
@<TRIPOS>BOND
     1    26    27    1
     2    27     1    1
     3     1     2   ar
     4     2     3   ar
     5     3     4   ar
     6     4     5   ar
     7     5     6   ar
     8     6     7    1
     9     5     8    1
    10     8     9    1
    11     9    10    1
    12    10    11    1
    13    11    28    1
    14    28    29    1
    15    29    30   ar
    16    30    31   ar
    17    31    32   ar
    18    32    33   ar
    19    33    34   ar
    20    34    35    1
    21    11    12    2
    22    12    14    1
    23    14    15   ar
    24    15    16   ar
    25    16    20    1
    26    20    21    1
    27    16    17   ar
    28    17    22    1
    29    22    23    1
    30    17    18   ar
    31    18    24    1
    32    24    25    1
    33    18    19   ar
    34     6     1   ar
    35    34    29   ar
    36    19    14   ar
    37    12     4    1
    38     7    13    1
    39    35    36    1
@<TRIPOS>MOLECULE
*****
 36 39 0 0 0
SMALL
GASTEIGER

@<TRIPOS>ATOM
      1 C          50.2897   17.5472  -25.2661 C.ar    1  UNL1        0.1718
      2 C          50.8673   16.2696  -25.3556 C.ar    1  UNL1        0.0400
      3 C          50.0784   15.1534  -25.6251 C.ar    1  UNL1        0.0030
      4 C          48.6941   15.2815  -25.8096 C.ar    1  UNL1       -0.0015
      5 C          48.0945   16.5587  -25.6892 C.ar    1  UNL1        0.0145
      6 C          48.9001   17.6899  -25.4360 C.ar    1  UNL1        0.1636
      7 O          48.3110   18.9540  -25.3539 O.3     1  UNL1       -0.5031
      8 C          46.5938   16.6953  -25.8255 C.3     1  UNL1        0.0299
      9 C          46.1250   16.4924  -27.2754 C.3     1  UNL1        0.0091
     10 C          46.7892   15.3089  -28.0044 C.3     1  UNL1        0.0227
     11 C          46.9484   14.0802  -27.1262 C.2     1  UNL1       -0.0398
     12 C          47.8881   14.0682  -26.1383 C.2     1  UNL1       -0.0076
     13 H          48.8474   19.7941  -25.1748 H       1  UNL1        0.2923
     14 C          48.1250   12.8611  -25.3177 C.ar    1  UNL1        0.0056
     15 C          47.3135   12.5823  -24.2154 C.ar    1  UNL1        0.0402
     16 C          47.5470   11.4448  -23.4185 C.ar    1  UNL1        0.1754
     17 C          48.6237   10.5789  -23.7468 C.ar    1  UNL1        0.2061
     18 C          49.4276   10.8595  -24.8650 C.ar    1  UNL1        0.1754
     19 C          49.1634   11.9911  -25.6539 C.ar    1  UNL1        0.0402
     20 O          46.7358   11.1683  -22.3069 O.3     1  UNL1       -0.4683
     21 C          46.6765   11.9573  -21.1229 C.3     1  UNL1        0.2526
     22 O          48.9549    9.4289  -23.0047 O.3     1  UNL1       -0.4654
     23 C          49.6539    9.3910  -21.7656 C.3     1  UNL1        0.2528
     24 O          50.4910    9.9891  -25.1543 O.3     1  UNL1       -0.4683
     25 C          50.9688    9.7055  -26.4656 C.3     1  UNL1        0.2526
     26 C          52.4015   18.6721  -24.5265 C.3     1  UNL1        0.2526
     27 O          51.0621   18.6918  -25.0095 O.3     1  UNL1       -0.4684
     28 C          46.1021   12.8550  -27.4506 C.3     1  UNL1        0.0488
     29 C          46.1221   12.4964  -28.9257 C.ar    1  UNL1       -0.0127
     30 C          45.6126   13.4174  -29.8604 C.ar    1  UNL1       -0.0035
     31 C          45.5703   13.1054  -31.2204 C.ar    1  UNL1       -0.0003
     32 C          46.0605   11.8813  -31.6721 C.ar    1  UNL1        0.0005
     33 C          46.6149   10.9751  -30.7678 C.ar    1  UNL1        0.0056
     34 C          46.6668   11.2759  -29.4005 C.ar    1  UNL1        0.0178
     35 S          47.4572   10.0818  -28.3142 S.3     1  UNL1       -0.1417
     36 H          48.7141   10.6958  -28.4669 H       1  UNL1        0.1071
@<TRIPOS>BOND
     1    26    27    1
     2    27     1    1
     3     1     2   ar
     4     2     3   ar
     5     3     4   ar
     6     4     5   ar
     7     5     6   ar
     8     6     7    1
     9     5     8    1
    10     8     9    1
    11     9    10    1
    12    10    11    1
    13    11    28    1
    14    28    29    1
    15    29    30   ar
    16    30    31   ar
    17    31    32   ar
    18    32    33   ar
    19    33    34   ar
    20    34    35    1
    21    11    12    2
    22    12    14    1
    23    14    15   ar
    24    15    16   ar
    25    16    20    1
    26    20    21    1
    27    16    17   ar
    28    17    22    1
    29    22    23    1
    30    17    18   ar
    31    18    24    1
    32    24    25    1
    33    18    19   ar
    34     6     1   ar
    35    34    29   ar
    36    19    14   ar
    37    12     4    1
    38     7    13    1
    39    35    36    1
@<TRIPOS>MOLECULE
*****
 36 39 0 0 0
SMALL
GASTEIGER

@<TRIPOS>ATOM
      1 C          50.3320   17.5672  -25.2714 C.ar    1  UNL1        0.1718
      2 C          50.9119   16.2901  -25.3538 C.ar    1  UNL1        0.0400
      3 C          50.1240   15.1700  -25.6097 C.ar    1  UNL1        0.0030
      4 C          48.7384   15.2936  -25.7875 C.ar    1  UNL1       -0.0015
      5 C          48.1366   16.5704  -25.6741 C.ar    1  UNL1        0.0145
      6 C          48.9412   17.7054  -25.4347 C.ar    1  UNL1        0.1636
      7 O          48.3497   18.9689  -25.3595 O.3     1  UNL1       -0.5031
      8 C          46.6349   16.7026  -25.8031 C.3     1  UNL1        0.0299
      9 C          46.1585   16.4869  -27.2486 C.3     1  UNL1        0.0091
     10 C          46.8212   15.2989  -27.9716 C.3     1  UNL1        0.0227
     11 C          46.9881   14.0778  -27.0843 C.2     1  UNL1       -0.0398
     12 C          47.9334   14.0759  -26.1017 C.2     1  UNL1       -0.0076
     13 H          48.8852   19.8116  -25.1903 H       1  UNL1        0.2923
     14 C          48.1775   12.8761  -25.2727 C.ar    1  UNL1        0.0056
     15 C          49.2108   11.9918  -25.5916 C.ar    1  UNL1        0.0402
     16 C          49.4352   10.8370  -24.8172 C.ar    1  UNL1        0.1754
     17 C          48.5943   10.5768  -23.7028 C.ar    1  UNL1        0.2061
     18 C          47.5649   11.4780  -23.3810 C.ar    1  UNL1        0.1754
     19 C          47.3726   12.6316  -24.1588 C.ar    1  UNL1        0.0402
     20 O          50.4691    9.9450  -25.1417 O.3     1  UNL1       -0.4683
     21 C          51.8390   10.1219  -24.7949 C.3     1  UNL1        0.2526
     22 O          48.7200    9.4426  -22.8777 O.3     1  UNL1       -0.4654
     23 C          49.5553    9.3151  -21.7325 C.3     1  UNL1        0.2528
     24 O          46.7444   11.1843  -22.2798 O.3     1  UNL1       -0.4683
     25 C          46.6732   11.9690  -21.0935 C.3     1  UNL1        0.2526
     26 C          52.4235   18.7052  -24.4949 C.3     1  UNL1        0.2526
     27 O          51.1032   18.7155  -25.0285 O.3     1  UNL1       -0.4684
     28 C          46.1428   12.8481  -27.3940 C.3     1  UNL1        0.0488
     29 C          46.1482   12.4828  -28.8676 C.ar    1  UNL1       -0.0127
     30 C          45.6184   13.3944  -29.8002 C.ar    1  UNL1       -0.0035
     31 C          45.5624   13.0756  -31.1581 C.ar    1  UNL1       -0.0003
     32 C          46.0589   11.8542  -31.6102 C.ar    1  UNL1        0.0005
     33 C          46.6331   10.9577  -30.7087 C.ar    1  UNL1        0.0056
     34 C          46.6988   11.2653  -29.3435 C.ar    1  UNL1        0.0178
     35 S          47.5140   10.0841  -28.2615 S.3     1  UNL1       -0.1417
     36 H          48.7629   10.7094  -28.4324 H       1  UNL1        0.1071
@<TRIPOS>BOND
     1    26    27    1
     2    27     1    1
     3     1     2   ar
     4     2     3   ar
     5     3     4   ar
     6     4     5   ar
     7     5     6   ar
     8     6     7    1
     9     5     8    1
    10     8     9    1
    11     9    10    1
    12    10    11    1
    13    11    28    1
    14    28    29    1
    15    29    30   ar
    16    30    31   ar
    17    31    32   ar
    18    32    33   ar
    19    33    34   ar
    20    34    35    1
    21    11    12    2
    22    12    14    1
    23    14    15   ar
    24    15    16   ar
    25    16    20    1
    26    20    21    1
    27    16    17   ar
    28    17    22    1
    29    22    23    1
    30    17    18   ar
    31    18    24    1
    32    24    25    1
    33    18    19   ar
    34     6     1   ar
    35    34    29   ar
    36    19    14   ar
    37    12     4    1
    38     7    13    1
    39    35    36    1
@<TRIPOS>MOLECULE
*****
 36 39 0 0 0
SMALL
GASTEIGER

@<TRIPOS>ATOM
      1 C          45.9046   13.1284  -28.9831 C.ar    1  UNL1        0.1718
      2 C          46.2060   12.0057  -28.1940 C.ar    1  UNL1        0.0400
      3 C          46.8536   12.1544  -26.9695 C.ar    1  UNL1        0.0030
      4 C          47.2195   13.4248  -26.5015 C.ar    1  UNL1       -0.0015
      5 C          46.9514   14.5616  -27.3022 C.ar    1  UNL1        0.0145
      6 C          46.2771   14.4085  -28.5329 C.ar    1  UNL1        0.1636
      7 O          45.9811   15.5353  -29.3040 O.3     1  UNL1       -0.5031
      8 C          47.3986   15.9285  -26.8324 C.3     1  UNL1        0.0299
      9 C          46.5624   16.4331  -25.6453 C.3     1  UNL1        0.0091
     10 C          46.2866   15.3754  -24.5596 C.3     1  UNL1        0.0227
     11 C          47.4886   14.4955  -24.2644 C.2     1  UNL1       -0.0398
     12 C          47.8744   13.5475  -25.1653 C.2     1  UNL1       -0.0076
     13 H          45.4989   15.4756  -30.1926 H       1  UNL1        0.2923
     14 C          48.9894   12.6206  -24.8753 C.ar    1  UNL1        0.0056
     15 C          48.7597   11.4294  -24.1827 C.ar    1  UNL1        0.0402
     16 C          49.8211   10.5524  -23.8863 C.ar    1  UNL1        0.1754
     17 C          51.1365   10.8935  -24.2988 C.ar    1  UNL1        0.2061
     18 C          51.3573   12.0877  -25.0063 C.ar    1  UNL1        0.1754
     19 C          50.2792   12.9370  -25.3047 C.ar    1  UNL1        0.0402
     20 O          49.5913    9.3588  -23.1845 O.3     1  UNL1       -0.4683
     21 C          49.5187    9.2462  -21.7667 C.3     1  UNL1        0.2526
     22 O          52.2683   10.0983  -24.0352 O.3     1  UNL1       -0.4654
     23 C          52.6320    8.8935  -24.6997 C.3     1  UNL1        0.2528
     24 O          52.6719   12.4002  -25.3889 O.3     1  UNL1       -0.4683
     25 C          53.2623   12.0272  -26.6300 C.3     1  UNL1        0.2526
     26 C          45.8156   12.4570  -31.3942 C.3     1  UNL1        0.2526
     27 O          45.2403   13.0099  -30.2148 O.3     1  UNL1       -0.4684
     28 C          48.1691   14.6460  -22.9091 C.3     1  UNL1        0.0488
     29 C          47.7813   13.5539  -21.9283 C.ar    1  UNL1       -0.0127
     30 C          46.5336   12.9180  -22.0709 C.ar    1  UNL1       -0.0035
     31 C          46.1211   11.9424  -21.1617 C.ar    1  UNL1       -0.0003
     32 C          46.9579   11.5666  -20.1124 C.ar    1  UNL1        0.0005
     33 C          48.2188   12.1493  -19.9824 C.ar    1  UNL1        0.0056
     34 C          48.6474   13.1275  -20.8891 C.ar    1  UNL1        0.0178
     35 S          50.3109   13.7779  -20.6884 S.3     1  UNL1       -0.1417
     36 H          50.8542   12.7955  -21.5367 H       1  UNL1        0.1071
@<TRIPOS>BOND
     1    26    27    1
     2    27     1    1
     3     1     2   ar
     4     2     3   ar
     5     3     4   ar
     6     4     5   ar
     7     5     6   ar
     8     6     7    1
     9     5     8    1
    10     8     9    1
    11     9    10    1
    12    10    11    1
    13    11    28    1
    14    28    29    1
    15    29    30   ar
    16    30    31   ar
    17    31    32   ar
    18    32    33   ar
    19    33    34   ar
    20    34    35    1
    21    11    12    2
    22    12    14    1
    23    14    15   ar
    24    15    16   ar
    25    16    20    1
    26    20    21    1
    27    16    17   ar
    28    17    22    1
    29    22    23    1
    30    17    18   ar
    31    18    24    1
    32    24    25    1
    33    18    19   ar
    34     6     1   ar
    35    34    29   ar
    36    19    14   ar
    37    12     4    1
    38     7    13    1
    39    35    36    1
@<TRIPOS>MOLECULE
*****
 36 39 0 0 0
SMALL
GASTEIGER

@<TRIPOS>ATOM
      1 C          45.4566   12.1295  -19.3892 C.ar    1  UNL1        0.1718
      2 C          44.9223   12.0970  -20.6882 C.ar    1  UNL1        0.0400
      3 C          45.7320   11.7884  -21.7792 C.ar    1  UNL1        0.0030
      4 C          47.0946   11.5069  -21.6038 C.ar    1  UNL1       -0.0015
      5 C          47.6530   11.5687  -20.3039 C.ar    1  UNL1        0.0145
      6 C          46.8249   11.8620  -19.1989 C.ar    1  UNL1        0.1636
      7 O          47.3708   11.8865  -17.9131 O.3     1  UNL1       -0.5031
      8 C          49.1346   11.3271  -20.1151 C.3     1  UNL1        0.0299
      9 C          49.5100    9.8511  -20.3236 C.3     1  UNL1        0.0091
     10 C          48.8419    9.1854  -21.5418 C.3     1  UNL1        0.0227
     11 C          48.7893   10.0887  -22.7615 C.2     1  UNL1       -0.0398
     12 C          47.9207   11.1393  -22.7920 C.2     1  UNL1       -0.0076
     13 H          46.8169   12.0912  -17.0903 H       1  UNL1        0.2923
     14 C          47.7860   11.9901  -23.9939 C.ar    1  UNL1        0.0056
     15 C          48.3557   13.2651  -24.0278 C.ar    1  UNL1        0.0402
     16 C          48.2135   14.0876  -25.1622 C.ar    1  UNL1        0.1754
     17 C          47.4786   13.6065  -26.2782 C.ar    1  UNL1        0.2061
     18 C          46.9192   12.3176  -26.2410 C.ar    1  UNL1        0.1754
     19 C          47.0900   11.5102  -25.1045 C.ar    1  UNL1        0.0402
     20 O          48.7802   15.3713  -25.1937 O.3     1  UNL1       -0.4683
     21 C          50.0086   15.7060  -25.8318 C.3     1  UNL1        0.2526
     22 O          47.2600   14.3551  -27.4506 O.3     1  UNL1       -0.4654
     23 C          46.2389   15.3240  -27.6605 C.3     1  UNL1        0.2528
     24 O          46.1887   11.8777  -27.3568 O.3     1  UNL1       -0.4683
     25 C          46.7087   11.0383  -28.3830 C.3     1  UNL1        0.2526
     26 C          43.2417   12.3198  -18.2358 C.3     1  UNL1        0.2526
     27 O          44.6615   12.4238  -18.2696 O.3     1  UNL1       -0.4684
     28 C          49.6564    9.7227  -23.9602 C.3     1  UNL1        0.0488
     29 C          50.6249   10.8257  -24.3479 C.ar    1  UNL1       -0.0127
     30 C          51.2353   11.5878  -23.3339 C.ar    1  UNL1       -0.0035
     31 C          52.0949   12.6409  -23.6513 C.ar    1  UNL1       -0.0003
     32 C          52.3804   12.9325  -24.9839 C.ar    1  UNL1        0.0005
     33 C          51.8248   12.1577  -26.0023 C.ar    1  UNL1        0.0056
     34 C          50.9627   11.0959  -25.6988 C.ar    1  UNL1        0.0178
     35 S          50.3440   10.1078  -27.0668 S.3     1  UNL1       -0.1417
     36 H          51.4275    9.2141  -26.9804 H       1  UNL1        0.1071
@<TRIPOS>BOND
     1    26    27    1
     2    27     1    1
     3     1     2   ar
     4     2     3   ar
     5     3     4   ar
     6     4     5   ar
     7     5     6   ar
     8     6     7    1
     9     5     8    1
    10     8     9    1
    11     9    10    1
    12    10    11    1
    13    11    28    1
    14    28    29    1
    15    29    30   ar
    16    30    31   ar
    17    31    32   ar
    18    32    33   ar
    19    33    34   ar
    20    34    35    1
    21    11    12    2
    22    12    14    1
    23    14    15   ar
    24    15    16   ar
    25    16    20    1
    26    20    21    1
    27    16    17   ar
    28    17    22    1
    29    22    23    1
    30    17    18   ar
    31    18    24    1
    32    24    25    1
    33    18    19   ar
    34     6     1   ar
    35    34    29   ar
    36    19    14   ar
    37    12     4    1
    38     7    13    1
    39    35    36    1
@<TRIPOS>MOLECULE
*****
 36 39 0 0 0
SMALL
GASTEIGER

@<TRIPOS>ATOM
      1 C          49.7040   16.9872  -26.3589 C.ar    1  UNL1        0.1718
      2 C          48.9049   16.2434  -27.2433 C.ar    1  UNL1        0.0400
      3 C          48.4167   14.9919  -26.8742 C.ar    1  UNL1        0.0030
      4 C          48.7144   14.4488  -25.6159 C.ar    1  UNL1       -0.0015
      5 C          49.5460   15.1734  -24.7279 C.ar    1  UNL1        0.0145
      6 C          50.0220   16.4498  -25.0979 C.ar    1  UNL1        0.1636
      7 O          50.8123   17.1785  -24.2055 O.3     1  UNL1       -0.5031
      8 C          49.9221   14.5667  -23.3938 C.3     1  UNL1        0.0299
      9 C          48.7325   14.5290  -22.4209 C.3     1  UNL1        0.0091
     10 C          47.4040   14.0678  -23.0500 C.3     1  UNL1        0.0227
     11 C          47.5722   12.9102  -24.0184 C.2     1  UNL1       -0.0398
     12 C          48.1383   13.1234  -25.2404 C.2     1  UNL1       -0.0076
     13 H          51.1761   18.0976  -24.4257 H       1  UNL1        0.2923
     14 C          48.2444   12.0372  -26.2381 C.ar    1  UNL1        0.0056
     15 C          49.3662   11.2053  -26.2645 C.ar    1  UNL1        0.0402
     16 C          49.4816   10.1820  -27.2252 C.ar    1  UNL1        0.1754
     17 C          48.4408   10.0037  -28.1750 C.ar    1  UNL1        0.2061
     18 C          47.3096   10.8367  -28.1337 C.ar    1  UNL1        0.1754
     19 C          47.2105   11.8389  -27.1547 C.ar    1  UNL1        0.0402
     20 O          50.6119    9.3504  -27.2560 O.3     1  UNL1       -0.4683
     21 C          51.9607    9.8033  -27.1959 C.3     1  UNL1        0.2526
     22 O          48.4674    9.0260  -29.1880 O.3     1  UNL1       -0.4654
     23 C          49.3544    7.9164  -29.2731 C.3     1  UNL1        0.2528
     24 O          46.3046   10.6409  -29.0949 O.3     1  UNL1       -0.4683
     25 C          46.2688   11.2789  -30.3676 C.3     1  UNL1        0.2526
     26 C          49.4288   19.2878  -27.3096 C.3     1  UNL1        0.2526
     27 O          50.1983   18.2571  -26.6985 O.3     1  UNL1       -0.4684
     28 C          47.0062   11.5536  -23.6163 C.3     1  UNL1        0.0488
     29 C          47.8874   10.8160  -22.6241 C.ar    1  UNL1       -0.0127
     30 C          49.0299   10.1410  -23.0939 C.ar    1  UNL1       -0.0035
     31 C          49.8389    9.4126  -22.2201 C.ar    1  UNL1       -0.0003
     32 C          49.5363    9.3686  -20.8603 C.ar    1  UNL1        0.0005
     33 C          48.4368   10.0714  -20.3670 C.ar    1  UNL1        0.0056
     34 C          47.6176   10.8091  -21.2316 C.ar    1  UNL1        0.0178
     35 S          46.2618   11.7383  -20.5043 S.3     1  UNL1       -0.1417
     36 H          47.0651   12.8815  -20.3375 H       1  UNL1        0.1071
@<TRIPOS>BOND
     1    26    27    1
     2    27     1    1
     3     1     2   ar
     4     2     3   ar
     5     3     4   ar
     6     4     5   ar
     7     5     6   ar
     8     6     7    1
     9     5     8    1
    10     8     9    1
    11     9    10    1
    12    10    11    1
    13    11    28    1
    14    28    29    1
    15    29    30   ar
    16    30    31   ar
    17    31    32   ar
    18    32    33   ar
    19    33    34   ar
    20    34    35    1
    21    11    12    2
    22    12    14    1
    23    14    15   ar
    24    15    16   ar
    25    16    20    1
    26    20    21    1
    27    16    17   ar
    28    17    22    1
    29    22    23    1
    30    17    18   ar
    31    18    24    1
    32    24    25    1
    33    18    19   ar
    34     6     1   ar
    35    34    29   ar
    36    19    14   ar
    37    12     4    1
    38     7    13    1
    39    35    36    1
@<TRIPOS>MOLECULE
*****
 36 39 0 0 0
SMALL
GASTEIGER

@<TRIPOS>ATOM
      1 C          45.3231   12.1215  -19.3286 C.ar    1  UNL1        0.1718
      2 C          44.7973   12.0862  -20.6310 C.ar    1  UNL1        0.0400
      3 C          45.6183   11.7941  -21.7181 C.ar    1  UNL1        0.0030
      4 C          46.9838   11.5324  -21.5353 C.ar    1  UNL1       -0.0015
      5 C          47.5333   11.5975  -20.2318 C.ar    1  UNL1        0.0145
      6 C          46.6941   11.8739  -19.1308 C.ar    1  UNL1        0.1636
      7 O          47.2316   11.9015  -17.8415 O.3     1  UNL1       -0.5031
      8 C          49.0172   11.3775  -20.0347 C.3     1  UNL1        0.0299
      9 C          49.4160    9.9081  -20.2466 C.3     1  UNL1        0.0091
     10 C          48.7656    9.2373  -21.4715 C.3     1  UNL1        0.0227
     11 C          48.7069   10.1445  -22.6880 C.2     1  UNL1       -0.0398
     12 C          47.8228   11.1820  -22.7198 C.2     1  UNL1       -0.0076
     13 H          46.6696   12.0946  -17.0214 H       1  UNL1        0.2923
     14 C          47.6826   12.0355  -23.9192 C.ar    1  UNL1        0.0056
     15 C          46.9707   11.5830  -25.0326 C.ar    1  UNL1        0.0402
     16 C          46.8509   12.3836  -26.1850 C.ar    1  UNL1        0.1754
     17 C          47.4666   13.6632  -26.2059 C.ar    1  UNL1        0.2061
     18 C          48.1703   14.1164  -25.0769 C.ar    1  UNL1        0.1754
     19 C          48.2606   13.3059  -23.9334 C.ar    1  UNL1        0.0402
     20 O          46.1413   11.9261  -27.3063 O.3     1  UNL1       -0.4683
     21 C          46.6947   11.1429  -28.3591 C.3     1  UNL1        0.2526
     22 O          47.4248   14.5317  -27.3135 O.3     1  UNL1       -0.4654
     23 C          46.3560   15.4014  -27.6697 C.3     1  UNL1        0.2528
     24 O          48.7770   15.3815  -25.1355 O.3     1  UNL1       -0.4683
     25 C          49.7353   15.8621  -24.1980 C.3     1  UNL1        0.2526
     26 C          43.0953   12.3149  -18.2008 C.3     1  UNL1        0.2526
     27 O          44.5168   12.3994  -18.2128 O.3     1  UNL1       -0.4684
     28 C          49.5868    9.7964  -23.8826 C.3     1  UNL1        0.0488
     29 C          50.5319   10.9202  -24.2682 C.ar    1  UNL1       -0.0127
     30 C          51.1345   11.6861  -23.2523 C.ar    1  UNL1       -0.0035
     31 C          51.9721   12.7575  -23.5671 C.ar    1  UNL1       -0.0003
     32 C          52.2434   13.0644  -24.8993 C.ar    1  UNL1        0.0005
     33 C          51.6957   12.2869  -25.9200 C.ar    1  UNL1        0.0056
     34 C          50.8558   11.2069  -25.6191 C.ar    1  UNL1        0.0178
     35 S          50.2468   10.2176  -26.9906 S.3     1  UNL1       -0.1417
     36 H          51.3473    9.3438  -26.9179 H       1  UNL1        0.1071
@<TRIPOS>BOND
     1    26    27    1
     2    27     1    1
     3     1     2   ar
     4     2     3   ar
     5     3     4   ar
     6     4     5   ar
     7     5     6   ar
     8     6     7    1
     9     5     8    1
    10     8     9    1
    11     9    10    1
    12    10    11    1
    13    11    28    1
    14    28    29    1
    15    29    30   ar
    16    30    31   ar
    17    31    32   ar
    18    32    33   ar
    19    33    34   ar
    20    34    35    1
    21    11    12    2
    22    12    14    1
    23    14    15   ar
    24    15    16   ar
    25    16    20    1
    26    20    21    1
    27    16    17   ar
    28    17    22    1
    29    22    23    1
    30    17    18   ar
    31    18    24    1
    32    24    25    1
    33    18    19   ar
    34     6     1   ar
    35    34    29   ar
    36    19    14   ar
    37    12     4    1
    38     7    13    1
    39    35    36    1
@<TRIPOS>MOLECULE
*****
 36 39 0 0 0
SMALL
GASTEIGER

@<TRIPOS>ATOM
      1 C          46.0074   13.0363  -28.8475 C.ar    1  UNL1        0.1718
      2 C          46.3900   11.9261  -28.0762 C.ar    1  UNL1        0.0400
      3 C          47.0472   12.1015  -26.8603 C.ar    1  UNL1        0.0030
      4 C          47.3418   13.3870  -26.3835 C.ar    1  UNL1       -0.0015
      5 C          46.9914   14.5135  -27.1668 C.ar    1  UNL1        0.0145
      6 C          46.3078   14.3321  -28.3884 C.ar    1  UNL1        0.1636
      7 O          45.9306   15.4467  -29.1418 O.3     1  UNL1       -0.5031
      8 C          47.3613   15.9004  -26.6882 C.3     1  UNL1        0.0299
      9 C          46.5151   16.3398  -25.4825 C.3     1  UNL1        0.0091
     10 C          46.3226   15.2558  -24.4049 C.3     1  UNL1        0.0227
     11 C          47.5811   14.4486  -24.1387 C.2     1  UNL1       -0.0398
     12 C          48.0097   13.5357  -25.0563 C.2     1  UNL1       -0.0076
     13 H          45.4386   15.3668  -30.0234 H       1  UNL1        0.2923
     14 C          49.1841   12.6763  -24.7945 C.ar    1  UNL1        0.0056
     15 C          50.4164   12.9589  -25.3885 C.ar    1  UNL1        0.0402
     16 C          51.5332   12.1323  -25.1586 C.ar    1  UNL1        0.1754
     17 C          51.3938   10.9997  -24.3131 C.ar    1  UNL1        0.2061
     18 C          50.1538   10.7295  -23.7092 C.ar    1  UNL1        0.1754
     19 C          49.0596   11.5791  -23.9407 C.ar    1  UNL1        0.0402
     20 O          52.7698   12.4124  -25.7608 O.3     1  UNL1       -0.4683
     21 C          53.2247   11.8543  -26.9894 C.3     1  UNL1        0.2526
     22 O          52.4401   10.0994  -24.0349 O.3     1  UNL1       -0.4654
     23 C          52.7155    8.8816  -24.7180 C.3     1  UNL1        0.2528
     24 O          50.0474    9.5949  -22.8885 O.3     1  UNL1       -0.4683
     25 C          48.9109    9.2788  -22.0906 C.3     1  UNL1        0.2526
     26 C          45.8813   12.2724  -31.2293 C.3     1  UNL1        0.2526
     27 O          45.3316   12.8902  -30.0700 O.3     1  UNL1       -0.4684
     28 C          48.2731   14.6264  -22.7925 C.3     1  UNL1        0.0488
     29 C          47.8649   13.5765  -21.7747 C.ar    1  UNL1       -0.0127
     30 C          46.6151   12.9428  -21.9093 C.ar    1  UNL1       -0.0035
     31 C          46.1840   12.0066  -20.9679 C.ar    1  UNL1       -0.0003
     32 C          47.0040   11.6678  -19.8930 C.ar    1  UNL1        0.0005
     33 C          48.2667   12.2477  -19.7688 C.ar    1  UNL1        0.0056
     34 C          48.7140   13.1866  -20.7075 C.ar    1  UNL1        0.0178
     35 S          50.3788   13.8346  -20.5096 S.3     1  UNL1       -0.1417
     36 H          50.9272   12.8161  -21.3108 H       1  UNL1        0.1071
@<TRIPOS>BOND
     1    26    27    1
     2    27     1    1
     3     1     2   ar
     4     2     3   ar
     5     3     4   ar
     6     4     5   ar
     7     5     6   ar
     8     6     7    1
     9     5     8    1
    10     8     9    1
    11     9    10    1
    12    10    11    1
    13    11    28    1
    14    28    29    1
    15    29    30   ar
    16    30    31   ar
    17    31    32   ar
    18    32    33   ar
    19    33    34   ar
    20    34    35    1
    21    11    12    2
    22    12    14    1
    23    14    15   ar
    24    15    16   ar
    25    16    20    1
    26    20    21    1
    27    16    17   ar
    28    17    22    1
    29    22    23    1
    30    17    18   ar
    31    18    24    1
    32    24    25    1
    33    18    19   ar
    34     6     1   ar
    35    34    29   ar
    36    19    14   ar
    37    12     4    1
    38     7    13    1
    39    35    36    1
