@<TRIPOS>MOLECULE
*****
 52 57 0 0 0
SMALL
GASTEIGER

@<TRIPOS>ATOM
      1 C           7.7496   75.1167   23.2102 C.ar    1  UNL1        0.0483
      2 C           8.6402   75.3591   24.2730 C.ar    1  UNL1        0.0108
      3 C           8.2533   76.1243   25.3858 C.ar    1  UNL1        0.0809
      4 C           6.9436   76.6311   25.4458 C.ar    1  UNL1        0.1457
      5 F           6.5045   77.3101   26.5358 F       1  UNL1       -0.2040
      6 C           6.0500   76.3901   24.4018 C.ar    1  UNL1        0.0444
      7 C           6.4383   75.6419   23.2832 C.ar    1  UNL1        0.0529
      8 N           5.4657   75.3602   22.2652 N.pl3   1  UNL1       -0.3039
      9 C           5.0752   76.4220   21.3344 C.3     1  UNL1        0.1123
     10 C           3.6067   76.2598   20.9332 C.3     1  UNL1        0.1136
     11 N           3.2944   74.8758   20.5432 N.pl3   1  UNL1       -0.2897
     12 C           4.2974   73.8120   20.7111 C.3     1  UNL1        0.1136
     13 C           5.0468   73.9715   22.0394 C.3     1  UNL1        0.1123
     14 C           2.0211   74.6086   19.9191 C.ar    1  UNL1        0.1318
     15 C           1.3413   75.5973   19.1880 C.ar    1  UNL1        0.0343
     16 C           0.1061   75.3008   18.6096 C.ar    1  UNL1        0.0083
     17 C          -0.4496   74.0201   18.7459 C.ar    1  UNL1        0.0906
     18 C           0.2417   73.0729   19.5166 C.ar    1  UNL1        0.1041
     19 N           1.4425   73.3846   20.0714 N.ar    1  UNL1       -0.2292
     20 C          -1.8061   73.7035   18.1697 C.3     1  UNL1        0.4200
     21 F          -2.8091   74.2235   18.9694 F       1  UNL1       -0.1658
     22 F          -1.9582   72.3319   18.0905 F       1  UNL1       -0.1658
     23 F          -1.9369   74.2460   16.9030 F       1  UNL1       -0.1658
     24 C           9.2227   76.3657   26.4787 C.2     1  UNL1        0.2483
     25 O          10.2421   75.6283   26.5746 O.2     1  UNL1       -0.2701
     26 N           9.0345   77.4455   27.4072 N.am    1  UNL1       -0.2945
     27 H           8.3372   78.1899   27.1776 H       1  UNL1        0.1501
     28 C           9.9178   77.6396   28.5604 C.3     1  UNL1        0.1535
     29 C           9.9204   79.0904   28.9693 C.2     1  UNL1        0.2443
     30 O           9.6154   79.9779   28.1264 O.2     1  UNL1       -0.2730
     31 N          10.2452   79.4498   30.3216 N.am    1  UNL1       -0.2825
     32 H          10.7849   78.7615   30.8937 H       1  UNL1        0.1549
     33 C           9.9110   80.7108   30.9257 C.ar    1  UNL1        0.0535
     34 C           9.1554   80.7289   32.1060 C.ar    1  UNL1        0.0353
     35 C           8.8001   81.9510   32.6816 C.ar    1  UNL1        0.1002
     36 N           9.1711   83.1170   32.0898 N.ar    1  UNL1       -0.2422
     37 C           9.8870   83.1323   30.9345 C.ar    1  UNL1        0.1002
     38 C          10.2646   81.9323   30.3268 C.ar    1  UNL1        0.0353
     39 C           9.4671   76.7453   29.7297 C.3     1  UNL1        0.0569
     40 C           7.9755   76.7790   29.9103 C.ar    1  UNL1       -0.0017
     41 C           7.2510   77.7206   30.6357 C.ar    1  UNL1        0.0681
     42 N           5.9428   77.3803   30.6772 N.ar    1  UNL1       -0.3523
     43 C           5.8370   76.2277   29.9934 C.ar    1  UNL1        0.0563
     44 C           4.6839   75.4729   29.7830 C.ar    1  UNL1        0.0170
     45 C           4.8058   74.2753   29.0547 C.ar    1  UNL1        0.0015
     46 C           6.0637   73.8618   28.5623 C.ar    1  UNL1        0.0001
     47 C           7.2111   74.6424   28.7925 C.ar    1  UNL1        0.0012
     48 C           7.0575   75.8271   29.5128 C.ar    1  UNL1        0.0131
     49 H           5.1771   77.8997   31.1614 H       1  UNL1        0.1660
     50 C           8.6819   72.9282   22.1543 C.3     1  UNL1        0.0773
     51 C           8.2093   74.3441   22.0270 C.2     1  UNL1        0.1747
     52 O           8.2577   74.8957   20.8949 O.2     1  UNL1       -0.2913
@<TRIPOS>BOND
     1    50    51    1
     2    51    52    2
     3    51     1    1
     4     1     2   ar
     5     2     3   ar
     6     3    24    1
     7    24    25    2
     8    24    26   am
     9    26    28    1
    10    28    39    1
    11    39    40    1
    12    40    41   ar
    13    41    42   ar
    14    42    43   ar
    15    43    44   ar
    16    44    45   ar
    17    45    46   ar
    18    46    47   ar
    19    47    48   ar
    20    28    29    1
    21    29    30    2
    22    29    31   am
    23    31    33    1
    24    33    34   ar
    25    34    35   ar
    26    35    36   ar
    27    36    37   ar
    28    37    38   ar
    29     3     4   ar
    30     4     5    1
    31     4     6   ar
    32     6     7   ar
    33     7     8    1
    34     8     9    1
    35     9    10    1
    36    10    11    1
    37    11    14    1
    38    14    15   ar
    39    15    16   ar
    40    16    17   ar
    41    17    20    1
    42    20    21    1
    43    20    22    1
    44    20    23    1
    45    17    18   ar
    46    18    19   ar
    47    11    12    1
    48    12    13    1
    49     7     1   ar
    50    13     8    1
    51    48    40   ar
    52    38    33   ar
    53    19    14   ar
    54    48    43   ar
    55    26    27    1
    56    42    49    1
    57    31    32    1
@<TRIPOS>MOLECULE
*****
 52 57 0 0 0
SMALL
GASTEIGER

@<TRIPOS>ATOM
      1 C           5.7308   76.1031   24.7544 C.ar    1  UNL1        0.0483
      2 C           6.7248   76.3609   25.7172 C.ar    1  UNL1        0.0108
      3 C           8.0839   76.1446   25.4351 C.ar    1  UNL1        0.0809
      4 C           8.4535   75.6888   24.1578 C.ar    1  UNL1        0.1457
      5 F           9.7589   75.5393   23.8181 F       1  UNL1       -0.2040
      6 C           7.4773   75.4378   23.1933 C.ar    1  UNL1        0.0444
      7 C           6.1201   75.6363   23.4773 C.ar    1  UNL1        0.0529
      8 N           5.1557   75.4317   22.4334 N.pl3   1  UNL1       -0.3039
      9 C           4.5648   76.5946   21.7663 C.3     1  UNL1        0.1123
     10 C           3.1213   76.2919   21.3561 C.3     1  UNL1        0.1136
     11 N           3.0063   74.9944   20.6719 N.pl3   1  UNL1       -0.2897
     12 C           4.1667   74.0930   20.5876 C.3     1  UNL1        0.1136
     13 C           4.9437   74.0769   21.9095 C.3     1  UNL1        0.1123
     14 C           1.7611   74.6701   20.0186 C.ar    1  UNL1        0.1318
     15 C           1.2128   73.3781   20.0858 C.ar    1  UNL1        0.0343
     16 C           0.0118   73.1034   19.4300 C.ar    1  UNL1        0.0083
     17 C          -0.6520   74.1128   18.7173 C.ar    1  UNL1        0.0906
     18 C          -0.0520   75.3791   18.6414 C.ar    1  UNL1        0.1041
     19 N           1.1186   75.6231   19.2872 N.ar    1  UNL1       -0.2292
     20 C          -1.9225   73.8152   17.9626 C.3     1  UNL1        0.4200
     21 F          -1.7866   74.1523   16.6269 F       1  UNL1       -0.1658
     22 F          -2.9591   74.5480   18.5093 F       1  UNL1       -0.1658
     23 F          -2.2319   72.4683   18.0401 F       1  UNL1       -0.1658
     24 C           9.0987   76.4178   26.4782 C.2     1  UNL1        0.2483
     25 O          10.1631   75.7405   26.4974 O.2     1  UNL1       -0.2701
     26 N           8.9015   77.4626   27.4441 N.am    1  UNL1       -0.2945
     27 H           8.1501   78.1692   27.2738 H       1  UNL1        0.1501
     28 C           9.8367   77.6821   28.5510 C.3     1  UNL1        0.1535
     29 C           9.8215   79.1331   28.9586 C.2     1  UNL1        0.2443
     30 O           9.4243   80.0079   28.1411 O.2     1  UNL1       -0.2730
     31 N          10.2352   79.5066   30.2825 N.am    1  UNL1       -0.2825
     32 H          10.8393   78.8381   30.8122 H       1  UNL1        0.1549
     33 C           9.9055   80.7573   30.9102 C.ar    1  UNL1        0.0535
     34 C           9.1598   80.7554   32.0969 C.ar    1  UNL1        0.0353
     35 C           8.8088   81.9676   32.6955 C.ar    1  UNL1        0.1002
     36 N           9.1743   83.1434   32.1201 N.ar    1  UNL1       -0.2422
     37 C           9.8804   83.1782   30.9592 C.ar    1  UNL1        0.1002
     38 C          10.2534   81.9887   30.3286 C.ar    1  UNL1        0.0353
     39 C           9.4697   76.7782   29.7421 C.3     1  UNL1        0.0569
     40 C           7.9939   76.8059   30.0248 C.ar    1  UNL1       -0.0017
     41 C           7.3208   77.7306   30.8182 C.ar    1  UNL1        0.0681
     42 N           6.0184   77.3876   30.9416 N.ar    1  UNL1       -0.3523
     43 C           5.8660   76.2499   30.2418 C.ar    1  UNL1        0.0563
     44 C           4.7012   75.4981   30.0944 C.ar    1  UNL1        0.0170
     45 C           4.7731   74.3167   29.3338 C.ar    1  UNL1        0.0015
     46 C           5.9944   73.9157   28.7478 C.ar    1  UNL1        0.0001
     47 C           7.1549   74.6928   28.9159 C.ar    1  UNL1        0.0012
     48 C           7.0509   75.8615   29.6705 C.ar    1  UNL1        0.0131
     49 H           5.2876   77.8954   31.4880 H       1  UNL1        0.1660
     50 C           3.8874   77.1679   26.2518 C.3     1  UNL1        0.0773
     51 C           4.2997   76.2971   25.1045 C.2     1  UNL1        0.1747
     52 O           3.4059   75.6807   24.4648 O.2     1  UNL1       -0.2913
@<TRIPOS>BOND
     1    50    51    1
     2    51    52    2
     3    51     1    1
     4     1     2   ar
     5     2     3   ar
     6     3    24    1
     7    24    25    2
     8    24    26   am
     9    26    28    1
    10    28    39    1
    11    39    40    1
    12    40    41   ar
    13    41    42   ar
    14    42    43   ar
    15    43    44   ar
    16    44    45   ar
    17    45    46   ar
    18    46    47   ar
    19    47    48   ar
    20    28    29    1
    21    29    30    2
    22    29    31   am
    23    31    33    1
    24    33    34   ar
    25    34    35   ar
    26    35    36   ar
    27    36    37   ar
    28    37    38   ar
    29     3     4   ar
    30     4     5    1
    31     4     6   ar
    32     6     7   ar
    33     7     8    1
    34     8     9    1
    35     9    10    1
    36    10    11    1
    37    11    14    1
    38    14    15   ar
    39    15    16   ar
    40    16    17   ar
    41    17    20    1
    42    20    21    1
    43    20    22    1
    44    20    23    1
    45    17    18   ar
    46    18    19   ar
    47    11    12    1
    48    12    13    1
    49     7     1   ar
    50    13     8    1
    51    48    40   ar
    52    38    33   ar
    53    19    14   ar
    54    48    43   ar
    55    26    27    1
    56    42    49    1
    57    31    32    1
@<TRIPOS>MOLECULE
*****
 52 57 0 0 0
SMALL
GASTEIGER

@<TRIPOS>ATOM
      1 C           7.6180   74.8620   22.8494 C.ar    1  UNL1        0.0483
      2 C           8.5519   75.1392   23.8654 C.ar    1  UNL1        0.0108
      3 C           8.2784   76.0870   24.8656 C.ar    1  UNL1        0.0809
      4 C           7.0372   76.7469   24.8620 C.ar    1  UNL1        0.1457
      5 F           6.7014   77.6129   25.8514 F       1  UNL1       -0.2040
      6 C           6.1009   76.4738   23.8643 C.ar    1  UNL1        0.0444
      7 C           6.3778   75.5418   22.8560 C.ar    1  UNL1        0.0529
      8 N           5.3588   75.2415   21.8900 N.pl3   1  UNL1       -0.3039
      9 C           5.0554   76.2188   20.8417 C.3     1  UNL1        0.1123
     10 C           3.5693   76.1607   20.4787 C.3     1  UNL1        0.1136
     11 N           3.1112   74.7794   20.2625 N.pl3   1  UNL1       -0.2897
     12 C           4.0062   73.6463   20.5473 C.3     1  UNL1        0.1136
     13 C           4.7979   73.8859   21.8385 C.3     1  UNL1        0.1123
     14 C           1.8035   74.5710   19.6889 C.ar    1  UNL1        0.1318
     15 C           1.1068   75.6134   19.0547 C.ar    1  UNL1        0.0343
     16 C          -0.1610   75.3724   18.5230 C.ar    1  UNL1        0.0083
     17 C          -0.7331   74.0946   18.6094 C.ar    1  UNL1        0.0906
     18 C          -0.0222   73.0910   19.2850 C.ar    1  UNL1        0.1041
     19 N           1.2104   73.3492   19.7959 N.ar    1  UNL1       -0.2292
     20 C          -2.1223   73.8353   18.0848 C.3     1  UNL1        0.4200
     21 F          -2.4446   72.4940   18.1997 F       1  UNL1       -0.1658
     22 F          -2.1817   74.2007   16.7531 F       1  UNL1       -0.1658
     23 F          -3.0570   74.5678   18.7960 F       1  UNL1       -0.1658
     24 C           9.2910   76.3582   25.9114 C.2     1  UNL1        0.2483
     25 O           9.7870   75.3937   26.5562 O.2     1  UNL1       -0.2701
     26 N           9.7380   77.6974   26.1764 N.am    1  UNL1       -0.2945
     27 H           9.5136   78.4483   25.4844 H       1  UNL1        0.1501
     28 C          10.6558   78.0051   27.2767 C.3     1  UNL1        0.1535
     29 C          12.0787   77.9939   26.7794 C.2     1  UNL1        0.2443
     30 O          12.9007   77.1641   27.2556 O.2     1  UNL1       -0.2730
     31 N          12.4816   78.9104   25.7493 N.am    1  UNL1       -0.2825
     32 H          11.9009   79.7671   25.6034 H       1  UNL1        0.1549
     33 C          13.6539   78.7458   24.9337 C.ar    1  UNL1        0.0535
     34 C          13.7815   77.6002   24.1364 C.ar    1  UNL1        0.0353
     35 C          14.9320   77.4182   23.3654 C.ar    1  UNL1        0.1002
     36 N          15.9302   78.3399   23.4019 N.ar    1  UNL1       -0.2422
     37 C          15.8445   79.4510   24.1801 C.ar    1  UNL1        0.1002
     38 C          14.7104   79.6725   24.9651 C.ar    1  UNL1        0.0353
     39 C          10.3053   79.3717   27.8929 C.3     1  UNL1        0.0569
     40 C           9.5911   79.2207   29.2065 C.ar    1  UNL1       -0.0017
     41 C          10.1358   79.4191   30.4720 C.ar    1  UNL1        0.0681
     42 N           9.2400   79.0868   31.4292 N.ar    1  UNL1       -0.3523
     43 C           8.1390   78.6713   30.7793 C.ar    1  UNL1        0.0563
     44 C           6.9531   78.2008   31.3415 C.ar    1  UNL1        0.0170
     45 C           5.9294   77.7895   30.4683 C.ar    1  UNL1        0.0015
     46 C           6.1135   77.8532   29.0690 C.ar    1  UNL1        0.0001
     47 C           7.3223   78.3296   28.5299 C.ar    1  UNL1        0.0012
     48 C           8.3162   78.7353   29.4208 C.ar    1  UNL1        0.0131
     49 H           9.3860   79.1267   32.4625 H       1  UNL1        0.1660
     50 C           8.4491   72.5102   22.1059 C.3     1  UNL1        0.0773
     51 C           7.9617   73.8889   21.7801 C.2     1  UNL1        0.1747
     52 O           7.8968   74.2343   20.5699 O.2     1  UNL1       -0.2913
@<TRIPOS>BOND
     1    50    51    1
     2    51    52    2
     3    51     1    1
     4     1     2   ar
     5     2     3   ar
     6     3    24    1
     7    24    25    2
     8    24    26   am
     9    26    28    1
    10    28    39    1
    11    39    40    1
    12    40    41   ar
    13    41    42   ar
    14    42    43   ar
    15    43    44   ar
    16    44    45   ar
    17    45    46   ar
    18    46    47   ar
    19    47    48   ar
    20    28    29    1
    21    29    30    2
    22    29    31   am
    23    31    33    1
    24    33    34   ar
    25    34    35   ar
    26    35    36   ar
    27    36    37   ar
    28    37    38   ar
    29     3     4   ar
    30     4     5    1
    31     4     6   ar
    32     6     7   ar
    33     7     8    1
    34     8     9    1
    35     9    10    1
    36    10    11    1
    37    11    14    1
    38    14    15   ar
    39    15    16   ar
    40    16    17   ar
    41    17    20    1
    42    20    21    1
    43    20    22    1
    44    20    23    1
    45    17    18   ar
    46    18    19   ar
    47    11    12    1
    48    12    13    1
    49     7     1   ar
    50    13     8    1
    51    48    40   ar
    52    38    33   ar
    53    19    14   ar
    54    48    43   ar
    55    26    27    1
    56    42    49    1
    57    31    32    1
@<TRIPOS>MOLECULE
*****
 52 57 0 0 0
SMALL
GASTEIGER

@<TRIPOS>ATOM
      1 C          10.2057   77.7847   25.5600 C.ar    1  UNL1        0.0483
      2 C           9.3806   76.6832   25.2650 C.ar    1  UNL1        0.0108
      3 C           8.6089   76.6462   24.0916 C.ar    1  UNL1        0.0809
      4 C           8.6877   77.7191   23.1868 C.ar    1  UNL1        0.1457
      5 F           8.0188   77.6904   22.0063 F       1  UNL1       -0.2040
      6 C           9.5085   78.8123   23.4653 C.ar    1  UNL1        0.0444
      7 C          10.2659   78.8596   24.6426 C.ar    1  UNL1        0.0529
      8 N          11.1492   79.9715   24.8553 N.pl3   1  UNL1       -0.3039
      9 C          10.7052   81.0889   25.6923 C.3     1  UNL1        0.1123
     10 C          11.3061   82.4019   25.1835 C.3     1  UNL1        0.1136
     11 N          12.7510   82.2828   24.9326 N.pl3   1  UNL1       -0.2897
     12 C          13.4168   80.9739   25.0290 C.3     1  UNL1        0.1136
     13 C          12.5460   79.8709   24.4154 C.3     1  UNL1        0.1123
     14 C          13.5051   83.4860   24.6754 C.ar    1  UNL1        0.1318
     15 C          13.7222   84.4438   25.6802 C.ar    1  UNL1        0.0343
     16 C          14.4475   85.5995   25.3865 C.ar    1  UNL1        0.0083
     17 C          14.9680   85.8001   24.0995 C.ar    1  UNL1        0.0906
     18 C          14.6958   84.8391   23.1139 C.ar    1  UNL1        0.1041
     19 N          13.9861   83.7219   23.4228 N.ar    1  UNL1       -0.2292
     20 C          15.7085   87.0676   23.7567 C.3     1  UNL1        0.4200
     21 F          14.9297   87.8863   22.9572 F       1  UNL1       -0.1658
     22 F          16.8695   86.7473   23.0784 F       1  UNL1       -0.1658
     23 F          16.0352   87.7676   24.9053 F       1  UNL1       -0.1658
     24 C           7.7453   75.4741   23.8221 C.2     1  UNL1        0.2483
     25 O           7.3316   74.7761   24.7884 O.2     1  UNL1       -0.2701
     26 N           7.3471   75.1432   22.4821 N.am    1  UNL1       -0.2945
     27 H           7.4837   75.8535   21.7274 H       1  UNL1        0.1501
     28 C           6.5848   73.9291   22.1771 C.3     1  UNL1        0.1535
     29 C           5.2179   74.2956   21.6583 C.2     1  UNL1        0.2443
     30 O           4.3357   74.7097   22.4591 O.2     1  UNL1       -0.2730
     31 N           4.9378   74.1951   20.2530 N.am    1  UNL1       -0.2825
     32 H           5.5480   73.5722   19.6767 H       1  UNL1        0.1549
     33 C           3.8482   74.8641   19.5957 C.ar    1  UNL1        0.0535
     34 C           4.1222   75.7884   18.5784 C.ar    1  UNL1        0.0353
     35 C           3.0705   76.4656   17.9568 C.ar    1  UNL1        0.1002
     36 N           1.7886   76.2413   18.3491 N.ar    1  UNL1       -0.2422
     37 C           1.4924   75.3661   19.3459 C.ar    1  UNL1        0.1002
     38 C           2.5143   74.6666   19.9926 C.ar    1  UNL1        0.0353
     39 C           7.3447   73.0702   21.1500 C.3     1  UNL1        0.0569
     40 C           8.6099   72.5029   21.7296 C.ar    1  UNL1       -0.0017
     41 C           8.7931   71.2086   22.2081 C.ar    1  UNL1        0.0681
     42 N          10.0216   71.0779   22.7583 N.ar    1  UNL1       -0.3523
     43 C          10.6112   72.2802   22.6403 C.ar    1  UNL1        0.0563
     44 C          11.8802   72.6464   23.0866 C.ar    1  UNL1        0.0170
     45 C          12.2912   73.9762   22.8809 C.ar    1  UNL1        0.0015
     46 C          11.4327   74.9005   22.2448 C.ar    1  UNL1        0.0001
     47 C          10.1560   74.5035   21.8076 C.ar    1  UNL1        0.0012
     48 C           9.7792   73.1773   22.0205 C.ar    1  UNL1        0.0131
     49 H          10.4193   70.2205   23.2024 H       1  UNL1        0.1660
     50 C          10.3100   78.1559   28.1340 C.3     1  UNL1        0.0773
     51 C          10.9701   77.8108   26.8341 C.2     1  UNL1        0.1747
     52 O          12.2111   77.5916   26.8284 O.2     1  UNL1       -0.2913
@<TRIPOS>BOND
     1    50    51    1
     2    51    52    2
     3    51     1    1
     4     1     2   ar
     5     2     3   ar
     6     3    24    1
     7    24    25    2
     8    24    26   am
     9    26    28    1
    10    28    39    1
    11    39    40    1
    12    40    41   ar
    13    41    42   ar
    14    42    43   ar
    15    43    44   ar
    16    44    45   ar
    17    45    46   ar
    18    46    47   ar
    19    47    48   ar
    20    28    29    1
    21    29    30    2
    22    29    31   am
    23    31    33    1
    24    33    34   ar
    25    34    35   ar
    26    35    36   ar
    27    36    37   ar
    28    37    38   ar
    29     3     4   ar
    30     4     5    1
    31     4     6   ar
    32     6     7   ar
    33     7     8    1
    34     8     9    1
    35     9    10    1
    36    10    11    1
    37    11    14    1
    38    14    15   ar
    39    15    16   ar
    40    16    17   ar
    41    17    20    1
    42    20    21    1
    43    20    22    1
    44    20    23    1
    45    17    18   ar
    46    18    19   ar
    47    11    12    1
    48    12    13    1
    49     7     1   ar
    50    13     8    1
    51    48    40   ar
    52    38    33   ar
    53    19    14   ar
    54    48    43   ar
    55    26    27    1
    56    42    49    1
    57    31    32    1
@<TRIPOS>MOLECULE
*****
 52 57 0 0 0
SMALL
GASTEIGER

@<TRIPOS>ATOM
      1 C          10.0094   78.8426   24.4428 C.ar    1  UNL1        0.0483
      2 C           9.1838   77.7177   24.6287 C.ar    1  UNL1        0.0108
      3 C           9.3234   76.8916   25.7563 C.ar    1  UNL1        0.0809
      4 C          10.2879   77.2152   26.7264 C.ar    1  UNL1        0.1457
      5 F          10.4051   76.4892   27.8670 F       1  UNL1       -0.2040
      6 C          11.1060   78.3324   26.5563 C.ar    1  UNL1        0.0444
      7 C          10.9806   79.1481   25.4245 C.ar    1  UNL1        0.0529
      8 N          11.7956   80.3260   25.3245 N.pl3   1  UNL1       -0.3039
      9 C          11.3108   81.5833   25.8992 C.3     1  UNL1        0.1123
     10 C          11.8033   82.7699   25.0666 C.3     1  UNL1        0.1136
     11 N          13.2423   82.6753   24.7747 N.pl3   1  UNL1       -0.2897
     12 C          13.9967   81.4653   25.1393 C.3     1  UNL1        0.1136
     13 C          13.1783   80.2019   24.8473 C.3     1  UNL1        0.1123
     14 C          13.9045   83.8233   24.2040 C.ar    1  UNL1        0.1318
     15 C          13.9214   85.0633   24.8646 C.ar    1  UNL1        0.0343
     16 C          14.5636   86.1518   24.2724 C.ar    1  UNL1        0.0083
     17 C          15.1995   86.0080   23.0304 C.ar    1  UNL1        0.0906
     18 C          15.1263   84.7642   22.3849 C.ar    1  UNL1        0.1041
     19 N          14.4944   83.7187   22.9804 N.ar    1  UNL1       -0.2292
     20 C          15.8515   87.1887   22.3573 C.3     1  UNL1        0.4200
     21 F          15.0226   88.2962   22.4046 F       1  UNL1       -0.1658
     22 F          16.1091   86.8745   21.0361 F       1  UNL1       -0.1658
     23 F          17.0423   87.5117   22.9848 F       1  UNL1       -0.1658
     24 C           8.4427   75.7114   25.9105 C.2     1  UNL1        0.2483
     25 O           8.9471   74.5553   25.8767 O.2     1  UNL1       -0.2701
     26 N           7.0317   75.8670   26.1305 N.am    1  UNL1       -0.2945
     27 H           6.6661   76.8082   26.4014 H       1  UNL1        0.1501
     28 C           6.1227   74.7183   26.1773 C.3     1  UNL1        0.1535
     29 C           6.1480   73.9870   24.8596 C.2     1  UNL1        0.2443
     30 O           6.0548   72.7292   24.8408 O.2     1  UNL1       -0.2730
     31 N           6.2524   74.7289   23.6340 N.am    1  UNL1       -0.2825
     32 H           6.6368   75.6996   23.6819 H       1  UNL1        0.1549
     33 C           5.9001   74.2083   22.3410 C.ar    1  UNL1        0.0535
     34 C           6.9092   73.7294   21.4944 C.ar    1  UNL1        0.0353
     35 C           6.5781   73.2513   20.2244 C.ar    1  UNL1        0.1002
     36 N           5.2851   73.2666   19.8058 N.ar    1  UNL1       -0.2422
     37 C           4.2870   73.7430   20.5959 C.ar    1  UNL1        0.1002
     38 C           4.5746   74.2287   21.8739 C.ar    1  UNL1        0.0353
     39 C           6.5171   73.7771   27.3300 C.3     1  UNL1        0.0569
     40 C           5.8731   74.1861   28.6248 C.ar    1  UNL1       -0.0017
     41 C           4.6908   73.6795   29.1570 C.ar    1  UNL1        0.0681
     42 N           4.3506   74.3542   30.2786 N.ar    1  UNL1       -0.3523
     43 C           5.3017   75.2881   30.4533 C.ar    1  UNL1        0.0563
     44 C           5.3700   76.2459   31.4640 C.ar    1  UNL1        0.0170
     45 C           6.4475   77.1503   31.4410 C.ar    1  UNL1        0.0015
     46 C           7.4191   77.0804   30.4178 C.ar    1  UNL1        0.0001
     47 C           7.3229   76.1050   29.4087 C.ar    1  UNL1        0.0012
     48 C           6.2467   75.2190   29.4616 C.ar    1  UNL1        0.0131
     49 H           3.5076   74.1927   30.8735 H       1  UNL1        0.1660
     50 C           9.1620   79.1399   21.9999 C.3     1  UNL1        0.0773
     51 C           9.8657   79.6653   23.2136 C.2     1  UNL1        0.1747
     52 O          10.3878   80.8110   23.1583 O.2     1  UNL1       -0.2913
@<TRIPOS>BOND
     1    50    51    1
     2    51    52    2
     3    51     1    1
     4     1     2   ar
     5     2     3   ar
     6     3    24    1
     7    24    25    2
     8    24    26   am
     9    26    28    1
    10    28    39    1
    11    39    40    1
    12    40    41   ar
    13    41    42   ar
    14    42    43   ar
    15    43    44   ar
    16    44    45   ar
    17    45    46   ar
    18    46    47   ar
    19    47    48   ar
    20    28    29    1
    21    29    30    2
    22    29    31   am
    23    31    33    1
    24    33    34   ar
    25    34    35   ar
    26    35    36   ar
    27    36    37   ar
    28    37    38   ar
    29     3     4   ar
    30     4     5    1
    31     4     6   ar
    32     6     7   ar
    33     7     8    1
    34     8     9    1
    35     9    10    1
    36    10    11    1
    37    11    14    1
    38    14    15   ar
    39    15    16   ar
    40    16    17   ar
    41    17    20    1
    42    20    21    1
    43    20    22    1
    44    20    23    1
    45    17    18   ar
    46    18    19   ar
    47    11    12    1
    48    12    13    1
    49     7     1   ar
    50    13     8    1
    51    48    40   ar
    52    38    33   ar
    53    19    14   ar
    54    48    43   ar
    55    26    27    1
    56    42    49    1
    57    31    32    1
@<TRIPOS>MOLECULE
*****
 52 57 0 0 0
SMALL
GASTEIGER

@<TRIPOS>ATOM
      1 C          12.5789   79.2747   25.2703 C.ar    1  UNL1        0.0483
      2 C          13.3177   80.4551   25.0651 C.ar    1  UNL1        0.0108
      3 C          12.6911   81.7125   25.0536 C.ar    1  UNL1        0.0809
      4 C          11.3057   81.7886   25.2791 C.ar    1  UNL1        0.1457
      5 F          10.6728   82.9868   25.3523 F       1  UNL1       -0.2040
      6 C          10.5650   80.6256   25.4918 C.ar    1  UNL1        0.0444
      7 C          11.1844   79.3693   25.4867 C.ar    1  UNL1        0.0529
      8 N          10.3956   78.2056   25.7785 N.pl3   1  UNL1       -0.3039
      9 C           9.4926   77.6769   24.7531 C.3     1  UNL1        0.1123
     10 C           8.2507   77.0650   25.4068 C.3     1  UNL1        0.1136
     11 N           8.6020   76.1689   26.5196 N.pl3   1  UNL1       -0.2897
     12 C           9.9960   76.0672   26.9804 C.3     1  UNL1        0.1136
     13 C          10.6657   77.4464   27.0055 C.3     1  UNL1        0.1123
     14 C           7.5670   75.3373   27.0850 C.ar    1  UNL1        0.1318
     15 C           6.8851   74.3858   26.3080 C.ar    1  UNL1        0.0343
     16 C           5.8824   73.6095   26.8911 C.ar    1  UNL1        0.0083
     17 C           5.5639   73.7682   28.2479 C.ar    1  UNL1        0.0906
     18 C           6.2404   74.7562   28.9795 C.ar    1  UNL1        0.1041
     19 N           7.2123   75.5012   28.3902 N.ar    1  UNL1       -0.2292
     20 C           4.4483   72.9722   28.8758 C.3     1  UNL1        0.4200
     21 F           4.5950   71.6241   28.5981 F       1  UNL1       -0.1658
     22 F           3.2379   73.4076   28.3701 F       1  UNL1       -0.1658
     23 F           4.4475   73.1337   30.2505 F       1  UNL1       -0.1658
     24 C          13.5015   82.9302   24.8239 C.2     1  UNL1        0.2483
     25 O          14.0781   83.4822   25.8011 O.2     1  UNL1       -0.2701
     26 N          13.6656   83.4692   23.5025 N.am    1  UNL1       -0.2945
     27 H          13.3981   82.8789   22.6822 H       1  UNL1        0.1501
     28 C          14.3702   84.7316   23.2619 C.3     1  UNL1        0.1535
     29 C          14.7909   84.8197   21.8172 C.2     1  UNL1        0.2443
     30 O          15.5683   83.9493   21.3383 O.2     1  UNL1       -0.2730
     31 N          14.2839   85.8789   20.9899 N.am    1  UNL1       -0.2825
     32 H          13.9162   86.7350   21.4634 H       1  UNL1        0.1549
     33 C          14.2865   85.8542   19.5524 C.ar    1  UNL1        0.0535
     34 C          14.0711   87.0442   18.8439 C.ar    1  UNL1        0.0353
     35 C          14.0409   87.0225   17.4476 C.ar    1  UNL1        0.1002
     36 N          14.2026   85.8496   16.7802 N.ar    1  UNL1       -0.2422
     37 C          14.3934   84.6763   17.4393 C.ar    1  UNL1        0.1002
     38 C          14.4322   84.6539   18.8357 C.ar    1  UNL1        0.0353
     39 C          13.4698   85.9216   23.6402 C.3     1  UNL1        0.0569
     40 C          14.2672   87.0609   24.2100 C.ar    1  UNL1       -0.0017
     41 C          14.9391   88.0431   23.4878 C.ar    1  UNL1        0.0681
     42 N          15.6426   88.8435   24.3206 N.ar    1  UNL1       -0.3523
     43 C          15.4287   88.3693   25.5602 C.ar    1  UNL1        0.0563
     44 C          15.9656   88.8507   26.7534 C.ar    1  UNL1        0.0170
     45 C          15.6268   88.1820   27.9440 C.ar    1  UNL1        0.0015
     46 C          14.7720   87.0576   27.9150 C.ar    1  UNL1        0.0001
     47 C          14.2472   86.5921   26.6957 C.ar    1  UNL1        0.0012
     48 C          14.5968   87.2792   25.5331 C.ar    1  UNL1        0.0131
     49 H          16.2452   89.6520   24.0492 H       1  UNL1        0.1660
     50 C          13.2403   77.1025   23.9982 C.3     1  UNL1        0.0773
     51 C          13.2681   77.9588   25.2272 C.2     1  UNL1        0.1747
     52 O          13.8475   77.5176   26.2557 O.2     1  UNL1       -0.2913
@<TRIPOS>BOND
     1    50    51    1
     2    51    52    2
     3    51     1    1
     4     1     2   ar
     5     2     3   ar
     6     3    24    1
     7    24    25    2
     8    24    26   am
     9    26    28    1
    10    28    39    1
    11    39    40    1
    12    40    41   ar
    13    41    42   ar
    14    42    43   ar
    15    43    44   ar
    16    44    45   ar
    17    45    46   ar
    18    46    47   ar
    19    47    48   ar
    20    28    29    1
    21    29    30    2
    22    29    31   am
    23    31    33    1
    24    33    34   ar
    25    34    35   ar
    26    35    36   ar
    27    36    37   ar
    28    37    38   ar
    29     3     4   ar
    30     4     5    1
    31     4     6   ar
    32     6     7   ar
    33     7     8    1
    34     8     9    1
    35     9    10    1
    36    10    11    1
    37    11    14    1
    38    14    15   ar
    39    15    16   ar
    40    16    17   ar
    41    17    20    1
    42    20    21    1
    43    20    22    1
    44    20    23    1
    45    17    18   ar
    46    18    19   ar
    47    11    12    1
    48    12    13    1
    49     7     1   ar
    50    13     8    1
    51    48    40   ar
    52    38    33   ar
    53    19    14   ar
    54    48    43   ar
    55    26    27    1
    56    42    49    1
    57    31    32    1
@<TRIPOS>MOLECULE
*****
 52 57 0 0 0
SMALL
GASTEIGER

@<TRIPOS>ATOM
      1 C           9.9978   78.8956   24.7692 C.ar    1  UNL1        0.0483
      2 C           9.1773   77.7951   25.0807 C.ar    1  UNL1        0.0108
      3 C           9.4292   76.9964   26.2086 C.ar    1  UNL1        0.0809
      4 C          10.5048   77.3237   27.0523 C.ar    1  UNL1        0.1457
      5 F          10.7380   76.6258   28.1927 F       1  UNL1       -0.2040
      6 C          11.3196   78.4172   26.7576 C.ar    1  UNL1        0.0444
      7 C          11.0811   79.2050   25.6243 C.ar    1  UNL1        0.0529
      8 N          11.9020   80.3611   25.3977 N.pl3   1  UNL1       -0.3039
      9 C          11.5267   81.6374   26.0113 C.3     1  UNL1        0.1123
     10 C          11.9308   82.8005   25.1014 C.3     1  UNL1        0.1136
     11 N          13.3155   82.6665   24.6224 N.pl3   1  UNL1       -0.2897
     12 C          14.0841   81.4432   24.9031 C.3     1  UNL1        0.1136
     13 C          13.2056   80.1966   24.7431 C.3     1  UNL1        0.1123
     14 C          13.9217   83.7904   23.9501 C.ar    1  UNL1        0.1318
     15 C          13.6837   85.1103   24.3689 C.ar    1  UNL1        0.0343
     16 C          14.2808   86.1697   23.6837 C.ar    1  UNL1        0.0083
     17 C          15.1235   85.9197   22.5906 C.ar    1  UNL1        0.0906
     18 C          15.3042   84.5903   22.1794 C.ar    1  UNL1        0.1041
     19 N          14.7116   83.5750   22.8613 N.ar    1  UNL1       -0.2292
     20 C          15.7326   87.0573   21.8113 C.3     1  UNL1        0.4200
     21 F          15.9179   86.6975   20.4876 F       1  UNL1       -0.1658
     22 F          16.9559   87.3849   22.3650 F       1  UNL1       -0.1658
     23 F          14.9088   88.1691   21.8468 F       1  UNL1       -0.1658
     24 C           8.5492   75.8409   26.4965 C.2     1  UNL1        0.2483
     25 O           8.6922   75.2101   27.5798 O.2     1  UNL1       -0.2701
     26 N           7.5171   75.4519   25.5762 N.am    1  UNL1       -0.2945
     27 H           7.2457   76.1157   24.8155 H       1  UNL1        0.1501
     28 C           6.7056   74.2493   25.7842 C.3     1  UNL1        0.1535
     29 C           6.0496   74.2985   27.1404 C.2     1  UNL1        0.2443
     30 O           5.9557   73.2451   27.8279 O.2     1  UNL1       -0.2730
     31 N           5.5592   75.5485   27.6507 N.am    1  UNL1       -0.2825
     32 H           5.3626   76.3125   26.9650 H       1  UNL1        0.1549
     33 C           5.2832   75.8030   29.0384 C.ar    1  UNL1        0.0535
     34 C           4.0706   76.4065   29.3989 C.ar    1  UNL1        0.0353
     35 C           3.8089   76.6856   30.7422 C.ar    1  UNL1        0.1002
     36 N           4.7336   76.3887   31.6931 N.ar    1  UNL1       -0.2422
     37 C           5.9266   75.8216   31.3729 C.ar    1  UNL1        0.1002
     38 C           6.2276   75.5243   30.0414 C.ar    1  UNL1        0.0353
     39 C           5.6482   74.1246   24.6722 C.3     1  UNL1        0.0569
     40 C           6.2721   73.7730   23.3510 C.ar    1  UNL1       -0.0017
     41 C           7.5825   73.3533   23.1404 C.ar    1  UNL1        0.0681
     42 N           7.8329   73.2326   21.8168 N.ar    1  UNL1       -0.3523
     43 C           6.6958   73.5818   21.1904 C.ar    1  UNL1        0.0563
     44 C           6.4723   73.6404   19.8155 C.ar    1  UNL1        0.0170
     45 C           5.2047   74.0608   19.3728 C.ar    1  UNL1        0.0015
     46 C           4.2020   74.4131   20.3036 C.ar    1  UNL1        0.0001
     47 C           4.4569   74.3473   21.6854 C.ar    1  UNL1        0.0012
     48 C           5.7211   73.9215   22.0936 C.ar    1  UNL1        0.0131
     49 H           8.7347   72.9461   21.3751 H       1  UNL1        0.1660
     50 C           9.4288   79.0238   22.2327 C.3     1  UNL1        0.0773
     51 C           9.7301   79.6884   23.5411 C.2     1  UNL1        0.1747
     52 O           9.8068   80.9458   23.5743 O.2     1  UNL1       -0.2913
@<TRIPOS>BOND
     1    50    51    1
     2    51    52    2
     3    51     1    1
     4     1     2   ar
     5     2     3   ar
     6     3    24    1
     7    24    25    2
     8    24    26   am
     9    26    28    1
    10    28    39    1
    11    39    40    1
    12    40    41   ar
    13    41    42   ar
    14    42    43   ar
    15    43    44   ar
    16    44    45   ar
    17    45    46   ar
    18    46    47   ar
    19    47    48   ar
    20    28    29    1
    21    29    30    2
    22    29    31   am
    23    31    33    1
    24    33    34   ar
    25    34    35   ar
    26    35    36   ar
    27    36    37   ar
    28    37    38   ar
    29     3     4   ar
    30     4     5    1
    31     4     6   ar
    32     6     7   ar
    33     7     8    1
    34     8     9    1
    35     9    10    1
    36    10    11    1
    37    11    14    1
    38    14    15   ar
    39    15    16   ar
    40    16    17   ar
    41    17    20    1
    42    20    21    1
    43    20    22    1
    44    20    23    1
    45    17    18   ar
    46    18    19   ar
    47    11    12    1
    48    12    13    1
    49     7     1   ar
    50    13     8    1
    51    48    40   ar
    52    38    33   ar
    53    19    14   ar
    54    48    43   ar
    55    26    27    1
    56    42    49    1
    57    31    32    1
@<TRIPOS>MOLECULE
*****
 52 57 0 0 0
SMALL
GASTEIGER

@<TRIPOS>ATOM
      1 C           6.1187   76.1404   24.2442 C.ar    1  UNL1        0.0483
      2 C           7.1560   76.4138   25.1557 C.ar    1  UNL1        0.0108
      3 C           8.4606   75.9412   24.9359 C.ar    1  UNL1        0.0809
      4 C           8.7346   75.2063   23.7694 C.ar    1  UNL1        0.1457
      5 F           9.9955   74.7963   23.4798 F       1  UNL1       -0.2040
      6 C           7.7159   74.9364   22.8551 C.ar    1  UNL1        0.0444
      7 C           6.4105   75.3917   23.0802 C.ar    1  UNL1        0.0529
      8 N           5.4093   75.1505   22.0797 N.pl3   1  UNL1       -0.3039
      9 C           5.0787   76.2128   21.1266 C.3     1  UNL1        0.1123
     10 C           3.5980   76.1386   20.7447 C.3     1  UNL1        0.1136
     11 N           3.1904   74.7693   20.3928 N.pl3   1  UNL1       -0.2897
     12 C           4.1230   73.6457   20.5770 C.3     1  UNL1        0.1136
     13 C           4.8970   73.7875   21.8931 C.3     1  UNL1        0.1123
     14 C           1.8949   74.5719   19.7887 C.ar    1  UNL1        0.1318
     15 C           1.2326   75.6138   19.1178 C.ar    1  UNL1        0.0343
     16 C          -0.0247   75.3839   18.5572 C.ar    1  UNL1        0.0083
     17 C          -0.6204   74.1175   18.6513 C.ar    1  UNL1        0.0906
     18 C           0.0556   73.1149   19.3633 C.ar    1  UNL1        0.1041
     19 N           1.2787   73.3622   19.9019 N.ar    1  UNL1       -0.2292
     20 C          -1.9996   73.8714   18.0950 C.3     1  UNL1        0.4200
     21 F          -2.3129   72.5241   18.1461 F       1  UNL1       -0.1658
     22 F          -2.0422   74.2945   16.7798 F       1  UNL1       -0.1658
     23 F          -2.9505   74.5652   18.8234 F       1  UNL1       -0.1658
     24 C           9.5221   76.2412   25.9236 C.2     1  UNL1        0.2483
     25 O          10.2474   75.3033   26.3553 O.2     1  UNL1       -0.2701
     26 N           9.7569   77.5865   26.3692 N.am    1  UNL1       -0.2945
     27 H           9.3291   78.3754   25.8329 H       1  UNL1        0.1501
     28 C          10.7255   77.8959   27.4246 C.3     1  UNL1        0.1535
     29 C          12.1216   77.9046   26.8565 C.2     1  UNL1        0.2443
     30 O          12.9829   77.0981   27.3024 O.2     1  UNL1       -0.2730
     31 N          12.4539   78.8130   25.7946 N.am    1  UNL1       -0.2825
     32 H          11.8496   79.6560   25.6660 H       1  UNL1        0.1549
     33 C          13.5870   78.6588   24.9233 C.ar    1  UNL1        0.0535
     34 C          13.6499   77.5512   24.0667 C.ar    1  UNL1        0.0353
     35 C          14.7625   77.3779   23.2401 C.ar    1  UNL1        0.1002
     36 N          15.7867   78.2705   23.2792 N.ar    1  UNL1       -0.2422
     37 C          15.7640   79.3434   24.1133 C.ar    1  UNL1        0.1002
     38 C          14.6694   79.5550   24.9552 C.ar    1  UNL1        0.0353
     39 C          10.3915   79.2536   28.0690 C.3     1  UNL1        0.0569
     40 C           9.4947   79.0942   29.2644 C.ar    1  UNL1       -0.0017
     41 C           9.8765   79.1687   30.6009 C.ar    1  UNL1        0.0681
     42 N           8.8339   78.8663   31.4075 N.ar    1  UNL1       -0.3523
     43 C           7.8009   78.5921   30.5921 C.ar    1  UNL1        0.0563
     44 C           6.5142   78.2016   30.9605 C.ar    1  UNL1        0.0170
     45 C           5.5883   77.9373   29.9346 C.ar    1  UNL1        0.0015
     46 C           5.9662   78.0637   28.5793 C.ar    1  UNL1        0.0001
     47 C           7.2728   78.4566   28.2370 C.ar    1  UNL1        0.0012
     48 C           8.1664   78.7171   29.2761 C.ar    1  UNL1        0.0131
     49 H           8.8404   78.8334   32.4512 H       1  UNL1        0.1660
     50 C           3.9454   76.0551   25.6738 C.3     1  UNL1        0.0773
     51 C           4.7407   76.6150   24.5342 C.2     1  UNL1        0.1747
     52 O           4.1973   77.4678   23.7823 O.2     1  UNL1       -0.2913
@<TRIPOS>BOND
     1    50    51    1
     2    51    52    2
     3    51     1    1
     4     1     2   ar
     5     2     3   ar
     6     3    24    1
     7    24    25    2
     8    24    26   am
     9    26    28    1
    10    28    39    1
    11    39    40    1
    12    40    41   ar
    13    41    42   ar
    14    42    43   ar
    15    43    44   ar
    16    44    45   ar
    17    45    46   ar
    18    46    47   ar
    19    47    48   ar
    20    28    29    1
    21    29    30    2
    22    29    31   am
    23    31    33    1
    24    33    34   ar
    25    34    35   ar
    26    35    36   ar
    27    36    37   ar
    28    37    38   ar
    29     3     4   ar
    30     4     5    1
    31     4     6   ar
    32     6     7   ar
    33     7     8    1
    34     8     9    1
    35     9    10    1
    36    10    11    1
    37    11    14    1
    38    14    15   ar
    39    15    16   ar
    40    16    17   ar
    41    17    20    1
    42    20    21    1
    43    20    22    1
    44    20    23    1
    45    17    18   ar
    46    18    19   ar
    47    11    12    1
    48    12    13    1
    49     7     1   ar
    50    13     8    1
    51    48    40   ar
    52    38    33   ar
    53    19    14   ar
    54    48    43   ar
    55    26    27    1
    56    42    49    1
    57    31    32    1
@<TRIPOS>MOLECULE
*****
 52 57 0 0 0
SMALL
GASTEIGER

@<TRIPOS>ATOM
      1 C          12.6334   79.3197   25.2279 C.ar    1  UNL1        0.0483
      2 C          13.3806   80.4937   25.0164 C.ar    1  UNL1        0.0108
      3 C          12.7636   81.7558   25.0024 C.ar    1  UNL1        0.0809
      4 C          11.3795   81.8433   25.2317 C.ar    1  UNL1        0.1457
      5 F          10.7559   83.0466   25.3025 F       1  UNL1       -0.2040
      6 C          10.6305   80.6867   25.4505 C.ar    1  UNL1        0.0444
      7 C          11.2403   79.4257   25.4480 C.ar    1  UNL1        0.0529
      8 N          10.4434   78.2691   25.7460 N.pl3   1  UNL1       -0.3039
      9 C           9.5251   77.7506   24.7290 C.3     1  UNL1        0.1123
     10 C           8.2842   77.1495   25.3943 C.3     1  UNL1        0.1136
     11 N           8.6381   76.2484   26.5022 N.pl3   1  UNL1       -0.2897
     12 C          10.0356   76.1327   26.9488 C.3     1  UNL1        0.1136
     13 C          10.7186   77.5055   26.9691 C.3     1  UNL1        0.1123
     14 C           7.6010   75.4258   27.0768 C.ar    1  UNL1        0.1318
     15 C           6.9475   74.4369   26.3224 C.ar    1  UNL1        0.0343
     16 C           5.9417   73.6706   26.9133 C.ar    1  UNL1        0.0083
     17 C           5.5919   73.8766   28.2560 C.ar    1  UNL1        0.0906
     18 C           6.2405   74.9001   28.9635 C.ar    1  UNL1        0.1041
     19 N           7.2162   75.6345   28.3670 N.ar    1  UNL1       -0.2292
     20 C           4.4724   73.0909   28.8899 C.3     1  UNL1        0.4200
     21 F           4.4767   73.2578   30.2640 F       1  UNL1       -0.1658
     22 F           4.6355   71.7497   28.5981 F       1  UNL1       -0.1658
     23 F           3.2458   73.5122   28.4061 F       1  UNL1       -0.1658
     24 C          13.5826   82.9665   24.7662 C.2     1  UNL1        0.2483
     25 O          14.0805   83.5776   25.7514 O.2     1  UNL1       -0.2701
     26 N          13.8435   83.4325   23.4327 N.am    1  UNL1       -0.2945
     27 H          13.6421   82.7948   22.6291 H       1  UNL1        0.1501
     28 C          14.5576   84.6861   23.1751 C.3     1  UNL1        0.1535
     29 C          14.8680   84.8098   21.7053 C.2     1  UNL1        0.2443
     30 O          15.5111   83.8941   21.1230 O.2     1  UNL1       -0.2730
     31 N          14.4077   85.9567   20.9731 N.am    1  UNL1       -0.2825
     32 H          14.1690   86.8182   21.5145 H       1  UNL1        0.1549
     33 C          14.2926   86.0091   19.5410 C.ar    1  UNL1        0.0535
     34 C          14.4902   84.8409   18.7922 C.ar    1  UNL1        0.0353
     35 C          14.4111   84.8905   17.3985 C.ar    1  UNL1        0.1002
     36 N          14.1605   86.0700   16.7713 N.ar    1  UNL1       -0.2422
     37 C          13.9841   87.2232   17.4687 C.ar    1  UNL1        0.1002
     38 C          14.0533   87.2174   18.8640 C.ar    1  UNL1        0.0353
     39 C          13.7178   85.8831   23.6568 C.3     1  UNL1        0.0569
     40 C          14.4609   86.7106   24.6676 C.ar    1  UNL1       -0.0017
     41 C          13.9556   87.1991   25.8692 C.ar    1  UNL1        0.0681
     42 N          14.8651   87.9961   26.4747 N.ar    1  UNL1       -0.3523
     43 C          15.9353   88.0229   25.6616 C.ar    1  UNL1        0.0563
     44 C          17.1201   88.7339   25.8474 C.ar    1  UNL1        0.0170
     45 C          18.1073   88.6388   24.8495 C.ar    1  UNL1        0.0015
     46 C          17.8891   87.8476   23.6997 C.ar    1  UNL1        0.0001
     47 C          16.6822   87.1433   23.5374 C.ar    1  UNL1        0.0012
     48 C          15.7250   87.2528   24.5463 C.ar    1  UNL1        0.0131
     49 H          14.7474   88.5027   27.3802 H       1  UNL1        0.1660
     50 C          13.2697   77.1356   23.9633 C.3     1  UNL1        0.0773
     51 C          13.3124   77.9984   25.1873 C.2     1  UNL1        0.1747
     52 O          13.8954   77.5584   26.2142 O.2     1  UNL1       -0.2913
@<TRIPOS>BOND
     1    50    51    1
     2    51    52    2
     3    51     1    1
     4     1     2   ar
     5     2     3   ar
     6     3    24    1
     7    24    25    2
     8    24    26   am
     9    26    28    1
    10    28    39    1
    11    39    40    1
    12    40    41   ar
    13    41    42   ar
    14    42    43   ar
    15    43    44   ar
    16    44    45   ar
    17    45    46   ar
    18    46    47   ar
    19    47    48   ar
    20    28    29    1
    21    29    30    2
    22    29    31   am
    23    31    33    1
    24    33    34   ar
    25    34    35   ar
    26    35    36   ar
    27    36    37   ar
    28    37    38   ar
    29     3     4   ar
    30     4     5    1
    31     4     6   ar
    32     6     7   ar
    33     7     8    1
    34     8     9    1
    35     9    10    1
    36    10    11    1
    37    11    14    1
    38    14    15   ar
    39    15    16   ar
    40    16    17   ar
    41    17    20    1
    42    20    21    1
    43    20    22    1
    44    20    23    1
    45    17    18   ar
    46    18    19   ar
    47    11    12    1
    48    12    13    1
    49     7     1   ar
    50    13     8    1
    51    48    40   ar
    52    38    33   ar
    53    19    14   ar
    54    48    43   ar
    55    26    27    1
    56    42    49    1
    57    31    32    1
