@<TRIPOS>MOLECULE
*****
 50 55 0 0 0
SMALL
GASTEIGER

@<TRIPOS>ATOM
      1 O          59.2912   87.8077   12.4089 O.2     1  UNL1       -0.2701
      2 C          60.0213   87.3804   11.4730 C.2     1  UNL1        0.2483
      3 N          60.9050   86.2713   11.7086 N.am    1  UNL1       -0.2945
      4 H          61.6758   86.0989   11.0249 H       1  UNL1        0.1501
      5 C          59.9635   88.0348   10.1430 C.ar    1  UNL1        0.0808
      6 C          60.3958   89.3639    9.9859 C.ar    1  UNL1        0.0080
      7 C          60.3510   89.9831    8.7342 C.ar    1  UNL1        0.0148
      8 C          59.8789   89.2854    7.6122 C.ar    1  UNL1        0.0502
      9 C          59.4517   87.9583    7.7630 C.ar    1  UNL1        0.0443
     10 C          59.4949   87.3342    9.0137 C.ar    1  UNL1        0.1457
     11 F          59.0519   86.0555    9.1206 F       1  UNL1       -0.2040
     12 N          59.8274   89.9196    6.3202 N.pl3   1  UNL1       -0.3040
     13 C          58.5349   90.2979    5.7386 C.3     1  UNL1        0.1123
     14 C          58.6553   91.6388    5.0129 C.3     1  UNL1        0.1136
     15 N          59.8318   91.6377    4.1318 N.pl3   1  UNL1       -0.2897
     16 C          61.1230   91.2394    4.7083 C.3     1  UNL1        0.1136
     17 C          60.9939   89.8986    5.4315 C.3     1  UNL1        0.1123
     18 C          59.7966   92.2756    2.8390 C.ar    1  UNL1        0.1318
     19 C          60.9076   92.9746    2.3392 C.ar    1  UNL1        0.0343
     20 C          60.8351   93.5763    1.0820 C.ar    1  UNL1        0.0083
     21 C          59.6553   93.4974    0.3273 C.ar    1  UNL1        0.0906
     22 C          58.5799   92.7606    0.8474 C.ar    1  UNL1        0.1041
     23 N          58.6741   92.1821    2.0736 N.ar    1  UNL1       -0.2292
     24 C          59.5817   94.0989   -1.0529 C.3     1  UNL1        0.4200
     25 F          59.5286   93.1058   -2.0156 F       1  UNL1       -0.1658
     26 F          58.4458   94.8808   -1.1487 F       1  UNL1       -0.1658
     27 F          60.6932   94.8852   -1.3024 F       1  UNL1       -0.1658
     28 C          60.9196   85.5386   12.9783 C.3     1  UNL1        0.1536
     29 C          60.5549   84.0917   12.7463 C.2     1  UNL1        0.2443
     30 O          61.3487   83.1936   13.1385 O.2     1  UNL1       -0.2730
     31 N          59.3610   83.7410   12.0248 N.am    1  UNL1       -0.2825
     32 H          58.8400   84.5021   11.5343 H       1  UNL1        0.1549
     33 C          58.9445   82.3876   11.7802 C.ar    1  UNL1        0.0535
     34 C          58.3553   82.0587   10.5519 C.ar    1  UNL1        0.0353
     35 C          57.9370   80.7472   10.3154 C.ar    1  UNL1        0.1002
     36 N          58.0849   79.8002   11.2791 N.ar    1  UNL1       -0.2422
     37 C          58.6336   80.0938   12.4876 C.ar    1  UNL1        0.1002
     38 C          59.0674   81.3929   12.7642 C.ar    1  UNL1        0.0353
     39 C          62.2986   85.6791   13.6486 C.3     1  UNL1        0.0592
     40 C          62.3482   86.8654   14.5706 C.ar    1  UNL1        0.0254
     41 C          62.0042   86.8845   15.9179 C.ar    1  UNL1        0.1966
     42 F          61.4940   85.8363   16.6101 F       1  UNL1       -0.1855
     43 N          62.2776   88.0853   16.4742 N.ar    1  UNL1       -0.3307
     44 C          62.8062   88.8295   15.4866 C.ar    1  UNL1        0.0580
     45 C          63.2764   90.1390   15.5771 C.ar    1  UNL1        0.0170
     46 C          63.8213   90.7242   14.4198 C.ar    1  UNL1        0.0015
     47 C          63.8836   89.9963   13.2110 C.ar    1  UNL1        0.0001
     48 C          63.4010   88.6770   13.1479 C.ar    1  UNL1        0.0012
     49 C          62.8677   88.1207   14.3115 C.ar    1  UNL1        0.0153
     50 H          62.1295   88.3655   17.4692 H       1  UNL1        0.1680
@<TRIPOS>BOND
     1     1     2    2
     2     2     3   am
     3     3    28    1
     4    28    39    1
     5    39    40    1
     6    40    41   ar
     7    41    42    1
     8    41    43   ar
     9    43    44   ar
    10    44    45   ar
    11    45    46   ar
    12    46    47   ar
    13    47    48   ar
    14    48    49   ar
    15    28    29    1
    16    29    30    2
    17    29    31   am
    18    31    33    1
    19    33    34   ar
    20    34    35   ar
    21    35    36   ar
    22    36    37   ar
    23    37    38   ar
    24     2     5    1
    25     5     6   ar
    26     6     7   ar
    27     7     8   ar
    28     8    12    1
    29    12    13    1
    30    13    14    1
    31    14    15    1
    32    15    18    1
    33    18    19   ar
    34    19    20   ar
    35    20    21   ar
    36    21    24    1
    37    24    25    1
    38    24    26    1
    39    24    27    1
    40    21    22   ar
    41    22    23   ar
    42    15    16    1
    43    16    17    1
    44     8     9   ar
    45     9    10   ar
    46    10    11    1
    47    49    40   ar
    48    38    33   ar
    49    10     5   ar
    50    49    44   ar
    51    17    12    1
    52    23    18   ar
    53     3     4    1
    54    43    50    1
    55    31    32    1
@<TRIPOS>MOLECULE
*****
 50 55 0 0 0
SMALL
GASTEIGER

@<TRIPOS>ATOM
      1 O          59.7787   85.0519   14.2539 O.2     1  UNL1       -0.2701
      2 C          60.6558   84.9048   13.3591 C.2     1  UNL1        0.2483
      3 N          61.6866   83.9170   13.5275 N.am    1  UNL1       -0.2945
      4 H          62.5368   83.9813   12.9240 H       1  UNL1        0.1501
      5 C          60.6157   85.7602   12.1478 C.ar    1  UNL1        0.0808
      6 C          59.4661   85.7919   11.3382 C.ar    1  UNL1        0.0080
      7 C          59.4195   86.6014   10.2004 C.ar    1  UNL1        0.0148
      8 C          60.5184   87.4010    9.8511 C.ar    1  UNL1        0.0502
      9 C          61.6648   87.3767   10.6583 C.ar    1  UNL1        0.0443
     10 C          61.7161   86.5682   11.7982 C.ar    1  UNL1        0.1457
     11 F          62.8527   86.5577   12.5403 F       1  UNL1       -0.2040
     12 N          60.4772   88.2349    8.6777 N.pl3   1  UNL1       -0.3040
     13 C          59.9409   87.7059    7.4189 C.3     1  UNL1        0.1123
     14 C          59.1332   88.7842    6.6952 C.3     1  UNL1        0.1136
     15 N          59.8925   90.0417    6.6444 N.pl3   1  UNL1       -0.2897
     16 C          60.4473   90.5619    7.9013 C.3     1  UNL1        0.1136
     17 C          61.2530   89.4781    8.6181 C.3     1  UNL1        0.1123
     18 C          59.8542   90.8901    5.4790 C.ar    1  UNL1        0.1318
     19 C          58.6565   91.4822    5.0458 C.ar    1  UNL1        0.0343
     20 C          58.6611   92.2994    3.9145 C.ar    1  UNL1        0.0083
     21 C          59.8510   92.5169    3.2041 C.ar    1  UNL1        0.0906
     22 C          61.0323   91.9351    3.6895 C.ar    1  UNL1        0.1041
     23 N          61.0037   91.1439    4.7943 N.ar    1  UNL1       -0.2292
     24 C          59.8790   93.4380    2.0112 C.3     1  UNL1        0.4200
     25 F          58.7905   93.2043    1.1888 F       1  UNL1       -0.1658
     26 F          59.8411   94.7491    2.4475 F       1  UNL1       -0.1658
     27 F          61.0317   93.2420    1.2703 F       1  UNL1       -0.1658
     28 C          61.7031   82.9892   14.6624 C.3     1  UNL1        0.1536
     29 C          61.2188   81.6271   14.2259 C.2     1  UNL1        0.2443
     30 O          61.9590   80.6256   14.4247 O.2     1  UNL1       -0.2730
     31 N          59.9697   81.4799   13.5280 N.am    1  UNL1       -0.2825
     32 H          59.4863   82.3441   13.1950 H       1  UNL1        0.1549
     33 C          59.4403   80.2156   13.0969 C.ar    1  UNL1        0.0535
     34 C          59.1949   79.9993   11.7341 C.ar    1  UNL1        0.0353
     35 C          58.6679   78.7763   11.3125 C.ar    1  UNL1        0.1002
     36 N          58.3782   77.8089   12.2222 N.ar    1  UNL1       -0.2422
     37 C          58.5858   77.9972   13.5524 C.ar    1  UNL1        0.1002
     38 C          59.1138   79.2049   14.0160 C.ar    1  UNL1        0.0353
     39 C          63.1180   82.9252   15.2664 C.3     1  UNL1        0.0592
     40 C          63.7813   84.2742   15.2681 C.ar    1  UNL1        0.0254
     41 C          64.9008   84.6497   14.5333 C.ar    1  UNL1        0.1966
     42 F          65.6271   83.8260   13.7382 F       1  UNL1       -0.1855
     43 N          65.1621   85.9672   14.6814 N.ar    1  UNL1       -0.3307
     44 C          64.2044   86.4360   15.5009 C.ar    1  UNL1        0.0580
     45 C          64.0304   87.7517   15.9283 C.ar    1  UNL1        0.0170
     46 C          62.9369   88.0320   16.7677 C.ar    1  UNL1        0.0015
     47 C          62.0514   87.0030   17.1573 C.ar    1  UNL1        0.0001
     48 C          62.2512   85.6842   16.7120 C.ar    1  UNL1        0.0012
     49 C          63.3426   85.4351   15.8786 C.ar    1  UNL1        0.0153
     50 H          65.9338   86.5093   14.2330 H       1  UNL1        0.1680
@<TRIPOS>BOND
     1     1     2    2
     2     2     3   am
     3     3    28    1
     4    28    39    1
     5    39    40    1
     6    40    41   ar
     7    41    42    1
     8    41    43   ar
     9    43    44   ar
    10    44    45   ar
    11    45    46   ar
    12    46    47   ar
    13    47    48   ar
    14    48    49   ar
    15    28    29    1
    16    29    30    2
    17    29    31   am
    18    31    33    1
    19    33    34   ar
    20    34    35   ar
    21    35    36   ar
    22    36    37   ar
    23    37    38   ar
    24     2     5    1
    25     5     6   ar
    26     6     7   ar
    27     7     8   ar
    28     8    12    1
    29    12    13    1
    30    13    14    1
    31    14    15    1
    32    15    18    1
    33    18    19   ar
    34    19    20   ar
    35    20    21   ar
    36    21    24    1
    37    24    25    1
    38    24    26    1
    39    24    27    1
    40    21    22   ar
    41    22    23   ar
    42    15    16    1
    43    16    17    1
    44     8     9   ar
    45     9    10   ar
    46    10    11    1
    47    49    40   ar
    48    38    33   ar
    49    10     5   ar
    50    49    44   ar
    51    17    12    1
    52    23    18   ar
    53     3     4    1
    54    43    50    1
    55    31    32    1
@<TRIPOS>MOLECULE
*****
 50 55 0 0 0
SMALL
GASTEIGER

@<TRIPOS>ATOM
      1 O          59.3383   87.3641   12.5867 O.2     1  UNL1       -0.2701
      2 C          60.0885   86.9899   11.6439 C.2     1  UNL1        0.2483
      3 N          61.0077   85.9045   11.8529 N.am    1  UNL1       -0.2945
      4 H          61.7883   85.7788   11.1701 H       1  UNL1        0.1501
      5 C          60.0173   87.6818   10.3337 C.ar    1  UNL1        0.0808
      6 C          60.4543   89.0128   10.2085 C.ar    1  UNL1        0.0080
      7 C          60.3968   89.6672    8.9754 C.ar    1  UNL1        0.0148
      8 C          59.9072   89.0035    7.8403 C.ar    1  UNL1        0.0502
      9 C          59.4752   87.6748    7.9592 C.ar    1  UNL1        0.0443
     10 C          59.5310   87.0154    9.1911 C.ar    1  UNL1        0.1457
     11 F          59.0829   85.7363    9.2678 F       1  UNL1       -0.2040
     12 N          59.8426   89.6741    6.5674 N.pl3   1  UNL1       -0.3040
     13 C          58.5422   89.9443    5.9445 C.3     1  UNL1        0.1123
     14 C          58.5568   91.3148    5.2660 C.3     1  UNL1        0.1136
     15 N          59.7606   91.4593    4.4350 N.pl3   1  UNL1       -0.2897
     16 C          61.0618   91.1694    5.0521 C.3     1  UNL1        0.1136
     17 C          61.0386   89.7980    5.7276 C.3     1  UNL1        0.1123
     18 C          59.7119   92.1352    3.1620 C.ar    1  UNL1        0.1318
     19 C          60.8796   92.6079    2.5412 C.ar    1  UNL1        0.0343
     20 C          60.7913   93.2547    1.3077 C.ar    1  UNL1        0.0083
     21 C          59.5428   93.4461    0.6974 C.ar    1  UNL1        0.0906
     22 C          58.4040   92.9284    1.3338 C.ar    1  UNL1        0.1041
     23 N          58.5148   92.3008    2.5342 N.ar    1  UNL1       -0.2292
     24 C          59.4392   94.0973   -0.6581 C.3     1  UNL1        0.4200
     25 F          58.3049   94.8867   -0.7347 F       1  UNL1       -0.1658
     26 F          60.5535   94.8876   -0.8697 F       1  UNL1       -0.1658
     27 F          59.3689   93.1399   -1.6553 F       1  UNL1       -0.1658
     28 C          61.0388   85.1348   13.1002 C.3     1  UNL1        0.1536
     29 C          60.6689   83.6957   12.8309 C.2     1  UNL1        0.2443
     30 O          61.5190   82.7945   13.0671 O.2     1  UNL1       -0.2730
     31 N          59.3987   83.3603   12.2451 N.am    1  UNL1       -0.2825
     32 H          58.8089   84.1364   11.8694 H       1  UNL1        0.1549
     33 C          58.9745   82.0142   11.9753 C.ar    1  UNL1        0.0535
     34 C          59.1588   81.0246   12.9504 C.ar    1  UNL1        0.0353
     35 C          58.7599   79.7121   12.6868 C.ar    1  UNL1        0.1002
     36 N          58.2126   79.3944   11.4839 N.ar    1  UNL1       -0.2422
     37 C          58.0404   80.3282   10.5112 C.ar    1  UNL1        0.1002
     38 C          58.4236   81.6531   10.7347 C.ar    1  UNL1        0.0353
     39 C          62.4271   85.2542   13.7552 C.3     1  UNL1        0.0592
     40 C          62.8689   86.6873   13.8601 C.ar    1  UNL1        0.0254
     41 C          63.1165   87.5589   12.8052 C.ar    1  UNL1        0.1966
     42 F          63.0663   87.2306   11.4908 F       1  UNL1       -0.1855
     43 N          63.3835   88.8051   13.2545 N.ar    1  UNL1       -0.3307
     44 C          63.2957   88.7330   14.5945 C.ar    1  UNL1        0.0580
     45 C          63.4594   89.7742   15.5072 C.ar    1  UNL1        0.0170
     46 C          63.2942   89.4837   16.8737 C.ar    1  UNL1        0.0015
     47 C          62.9729   88.1740   17.2934 C.ar    1  UNL1        0.0001
     48 C          62.8144   87.1424   16.3509 C.ar    1  UNL1        0.0012
     49 C          62.9818   87.4593   15.0021 C.ar    1  UNL1        0.0153
     50 H          63.5913   89.6503   12.6775 H       1  UNL1        0.1680
@<TRIPOS>BOND
     1     1     2    2
     2     2     3   am
     3     3    28    1
     4    28    39    1
     5    39    40    1
     6    40    41   ar
     7    41    42    1
     8    41    43   ar
     9    43    44   ar
    10    44    45   ar
    11    45    46   ar
    12    46    47   ar
    13    47    48   ar
    14    48    49   ar
    15    28    29    1
    16    29    30    2
    17    29    31   am
    18    31    33    1
    19    33    34   ar
    20    34    35   ar
    21    35    36   ar
    22    36    37   ar
    23    37    38   ar
    24     2     5    1
    25     5     6   ar
    26     6     7   ar
    27     7     8   ar
    28     8    12    1
    29    12    13    1
    30    13    14    1
    31    14    15    1
    32    15    18    1
    33    18    19   ar
    34    19    20   ar
    35    20    21   ar
    36    21    24    1
    37    24    25    1
    38    24    26    1
    39    24    27    1
    40    21    22   ar
    41    22    23   ar
    42    15    16    1
    43    16    17    1
    44     8     9   ar
    45     9    10   ar
    46    10    11    1
    47    49    40   ar
    48    38    33   ar
    49    10     5   ar
    50    49    44   ar
    51    17    12    1
    52    23    18   ar
    53     3     4    1
    54    43    50    1
    55    31    32    1
@<TRIPOS>MOLECULE
*****
 50 55 0 0 0
SMALL
GASTEIGER

@<TRIPOS>ATOM
      1 O          57.9029   84.7215   11.9751 O.2     1  UNL1       -0.2701
      2 C          58.9484   84.3809   12.5936 C.2     1  UNL1        0.2483
      3 N          59.1694   82.9962   12.9104 N.am    1  UNL1       -0.2945
      4 H          59.8864   82.7624   13.6333 H       1  UNL1        0.1501
      5 C          59.9323   85.4167   12.9930 C.ar    1  UNL1        0.0808
      6 C          59.5087   86.5775   13.6647 C.ar    1  UNL1        0.0080
      7 C          60.4316   87.5529   14.0502 C.ar    1  UNL1        0.0148
      8 C          61.7980   87.3862   13.7782 C.ar    1  UNL1        0.0502
      9 C          62.2256   86.2280   13.1134 C.ar    1  UNL1        0.0443
     10 C          61.3057   85.2487   12.7257 C.ar    1  UNL1        0.1457
     11 F          61.7587   84.1526   12.0653 F       1  UNL1       -0.2040
     12 N          62.7534   88.3899   14.1703 N.pl3   1  UNL1       -0.3040
     13 C          63.4840   88.2543   15.4352 C.3     1  UNL1        0.1123
     14 C          64.9301   88.7208   15.2616 C.3     1  UNL1        0.1136
     15 N          64.9673   90.0238   14.5823 N.pl3   1  UNL1       -0.2897
     16 C          64.2194   90.1666   13.3260 C.3     1  UNL1        0.1136
     17 C          62.7754   89.6985   13.5082 C.3     1  UNL1        0.1123
     18 C          65.9237   91.0350   14.9596 C.ar    1  UNL1        0.1318
     19 C          65.5527   92.1293   15.7579 C.ar    1  UNL1        0.0343
     20 C          66.5083   93.0858   16.1040 C.ar    1  UNL1        0.0083
     21 C          67.8284   92.9646   15.6452 C.ar    1  UNL1        0.0906
     22 C          68.1664   91.8387   14.8787 C.ar    1  UNL1        0.1041
     23 N          67.2190   90.9194   14.5553 N.ar    1  UNL1       -0.2292
     24 C          68.8811   93.9631   16.0541 C.3     1  UNL1        0.4200
     25 F          69.3879   94.6191   14.9457 F       1  UNL1       -0.1658
     26 F          68.3194   94.8920   16.9100 F       1  UNL1       -0.1658
     27 F          69.9292   93.3303   16.6997 F       1  UNL1       -0.1658
     28 C          58.2698   81.9347   12.4488 C.3     1  UNL1        0.1536
     29 C          58.2851   81.8614   10.9405 C.2     1  UNL1        0.2443
     30 O          57.4643   81.1001   10.3599 O.2     1  UNL1       -0.2730
     31 N          59.2659   82.5875   10.1791 N.am    1  UNL1       -0.2825
     32 H          60.0562   83.0364   10.6941 H       1  UNL1        0.1549
     33 C          59.3306   82.5764    8.7437 C.ar    1  UNL1        0.0535
     34 C          58.4351   81.7782    8.0192 C.ar    1  UNL1        0.0353
     35 C          58.5035   81.7545    6.6242 C.ar    1  UNL1        0.1002
     36 N          59.4458   82.4882    5.9753 N.ar    1  UNL1       -0.2422
     37 C          60.3411   83.2555    6.6517 C.ar    1  UNL1        0.1002
     38 C          60.3057   83.3095    8.0474 C.ar    1  UNL1        0.0353
     39 C          58.6701   80.5930   13.0894 C.3     1  UNL1        0.0592
     40 C          60.1088   80.2550   12.8141 C.ar    1  UNL1        0.0254
     41 C          60.5915   79.4599   11.7802 C.ar    1  UNL1        0.1966
     42 F          59.8249   78.7943   10.8817 F       1  UNL1       -0.1855
     43 N          61.9426   79.4587   11.7559 N.ar    1  UNL1       -0.3307
     44 C          62.3233   80.2608   12.7659 C.ar    1  UNL1        0.0580
     45 C          63.6263   80.6012   13.1269 C.ar    1  UNL1        0.0170
     46 C          63.8004   81.4863   14.2063 C.ar    1  UNL1        0.0015
     47 C          62.6814   82.0058   14.8936 C.ar    1  UNL1        0.0001
     48 C          61.3779   81.6448   14.5088 C.ar    1  UNL1        0.0012
     49 C          61.2345   80.7669   13.4334 C.ar    1  UNL1        0.0153
     50 H          62.5586   78.9569   11.0783 H       1  UNL1        0.1680
@<TRIPOS>BOND
     1     1     2    2
     2     2     3   am
     3     3    28    1
     4    28    39    1
     5    39    40    1
     6    40    41   ar
     7    41    42    1
     8    41    43   ar
     9    43    44   ar
    10    44    45   ar
    11    45    46   ar
    12    46    47   ar
    13    47    48   ar
    14    48    49   ar
    15    28    29    1
    16    29    30    2
    17    29    31   am
    18    31    33    1
    19    33    34   ar
    20    34    35   ar
    21    35    36   ar
    22    36    37   ar
    23    37    38   ar
    24     2     5    1
    25     5     6   ar
    26     6     7   ar
    27     7     8   ar
    28     8    12    1
    29    12    13    1
    30    13    14    1
    31    14    15    1
    32    15    18    1
    33    18    19   ar
    34    19    20   ar
    35    20    21   ar
    36    21    24    1
    37    24    25    1
    38    24    26    1
    39    24    27    1
    40    21    22   ar
    41    22    23   ar
    42    15    16    1
    43    16    17    1
    44     8     9   ar
    45     9    10   ar
    46    10    11    1
    47    49    40   ar
    48    38    33   ar
    49    10     5   ar
    50    49    44   ar
    51    17    12    1
    52    23    18   ar
    53     3     4    1
    54    43    50    1
    55    31    32    1
@<TRIPOS>MOLECULE
*****
 50 55 0 0 0
SMALL
GASTEIGER

@<TRIPOS>ATOM
      1 O          58.4973   86.5662   11.6304 O.2     1  UNL1       -0.2701
      2 C          59.2454   87.5705   11.4774 C.2     1  UNL1        0.2483
      3 N          59.9842   88.0857   12.5978 N.am    1  UNL1       -0.2945
      4 H          60.3833   89.0485   12.5268 H       1  UNL1        0.1501
      5 C          59.3457   88.2115   10.1434 C.ar    1  UNL1        0.0808
      6 C          59.7205   89.5624   10.0307 C.ar    1  UNL1        0.0080
      7 C          59.8241   90.1695    8.7767 C.ar    1  UNL1        0.0148
      8 C          59.5614   89.4379    7.6085 C.ar    1  UNL1        0.0502
      9 C          59.1925   88.0893    7.7157 C.ar    1  UNL1        0.0443
     10 C          59.0877   87.4772    8.9686 C.ar    1  UNL1        0.1457
     11 F          58.7068   86.1756    9.0293 F       1  UNL1       -0.2040
     12 N          59.6635   90.0594    6.3134 N.pl3   1  UNL1       -0.3040
     13 C          58.4539   90.5160    5.6203 C.3     1  UNL1        0.1123
     14 C          58.7257   91.8376    4.9001 C.3     1  UNL1        0.1136
     15 N          59.9707   91.7483    4.1239 N.pl3   1  UNL1       -0.2897
     16 C          61.1781   91.2718    4.8118 C.3     1  UNL1        0.1136
     17 C          60.8978   89.9508    5.5288 C.3     1  UNL1        0.1123
     18 C          60.0893   92.3723    2.8292 C.ar    1  UNL1        0.1318
     19 C          60.5466   93.6935    2.6946 C.ar    1  UNL1        0.0343
     20 C          60.6501   94.2612    1.4239 C.ar    1  UNL1        0.0083
     21 C          60.2854   93.5233    0.2879 C.ar    1  UNL1        0.0906
     22 C          59.8663   92.1953    0.4625 C.ar    1  UNL1        0.1041
     23 N          59.7747   91.6633    1.7099 N.ar    1  UNL1       -0.2292
     24 C          60.4412   94.1072   -1.0931 C.3     1  UNL1        0.4200
     25 F          59.3449   94.8865   -1.4196 F       1  UNL1       -0.1658
     26 F          61.5789   94.8914   -1.1300 F       1  UNL1       -0.1658
     27 F          60.5549   93.1020   -2.0378 F       1  UNL1       -0.1658
     28 C          59.9861   87.4225   13.9053 C.3     1  UNL1        0.1536
     29 C          61.0103   86.3130   13.9226 C.2     1  UNL1        0.2443
     30 O          60.7770   85.2801   14.6076 O.2     1  UNL1       -0.2730
     31 N          62.2638   86.4588   13.2324 N.am    1  UNL1       -0.2825
     32 H          62.5119   87.4006   12.8546 H       1  UNL1        0.1549
     33 C          63.2769   85.4405   13.1936 C.ar    1  UNL1        0.0535
     34 C          64.2947   85.4432   14.1570 C.ar    1  UNL1        0.0353
     35 C          65.2888   84.4628   14.1147 C.ar    1  UNL1        0.1002
     36 N          65.2779   83.5227   13.1331 N.ar    1  UNL1       -0.2422
     37 C          64.3157   83.5071   12.1729 C.ar    1  UNL1        0.1002
     38 C          63.3016   84.4682   12.1801 C.ar    1  UNL1        0.0353
     39 C          60.2457   88.4561   15.0167 C.3     1  UNL1        0.0592
     40 C          61.6911   88.8661   15.0654 C.ar    1  UNL1        0.0254
     41 C          62.6254   88.5012   16.0288 C.ar    1  UNL1        0.1966
     42 F          62.3614   87.7624   17.1345 F       1  UNL1       -0.1855
     43 N          63.8588   88.9495   15.7065 N.ar    1  UNL1       -0.3307
     44 C          63.7155   89.5906   14.5331 C.ar    1  UNL1        0.0580
     45 C          64.7163   90.2015   13.7786 C.ar    1  UNL1        0.0170
     46 C          64.3501   90.7942   12.5565 C.ar    1  UNL1        0.0015
     47 C          63.0071   90.7641   12.1203 C.ar    1  UNL1        0.0001
     48 C          62.0177   90.1417   12.9020 C.ar    1  UNL1        0.0012
     49 C          62.4094   89.5599   14.1086 C.ar    1  UNL1        0.0153
     50 H          64.7408   88.8061   16.2469 H       1  UNL1        0.1680
@<TRIPOS>BOND
     1     1     2    2
     2     2     3   am
     3     3    28    1
     4    28    39    1
     5    39    40    1
     6    40    41   ar
     7    41    42    1
     8    41    43   ar
     9    43    44   ar
    10    44    45   ar
    11    45    46   ar
    12    46    47   ar
    13    47    48   ar
    14    48    49   ar
    15    28    29    1
    16    29    30    2
    17    29    31   am
    18    31    33    1
    19    33    34   ar
    20    34    35   ar
    21    35    36   ar
    22    36    37   ar
    23    37    38   ar
    24     2     5    1
    25     5     6   ar
    26     6     7   ar
    27     7     8   ar
    28     8    12    1
    29    12    13    1
    30    13    14    1
    31    14    15    1
    32    15    18    1
    33    18    19   ar
    34    19    20   ar
    35    20    21   ar
    36    21    24    1
    37    24    25    1
    38    24    26    1
    39    24    27    1
    40    21    22   ar
    41    22    23   ar
    42    15    16    1
    43    16    17    1
    44     8     9   ar
    45     9    10   ar
    46    10    11    1
    47    49    40   ar
    48    38    33   ar
    49    10     5   ar
    50    49    44   ar
    51    17    12    1
    52    23    18   ar
    53     3     4    1
    54    43    50    1
    55    31    32    1
