@<TRIPOS>MOLECULE
*****
 40 44 0 0 0
SMALL
GASTEIGER

@<TRIPOS>ATOM
      1 C          -7.0869  -19.7177   20.7546 C.3     1  UNL1        0.1332
      2 N          -6.4568  -18.7980   21.7017 N.ar    1  UNL1       -0.2977
      3 C          -5.1295  -18.5531   21.8900 C.ar    1  UNL1        0.2018
      4 N          -4.8752  -17.5893   22.8115 N.ar    1  UNL1       -0.2130
      5 C          -6.1039  -17.2404   23.2347 C.ar    1  UNL1        0.1061
      6 C          -6.4275  -16.3036   24.2309 C.ar    1  UNL1        0.0610
      7 BR         -5.0155  -15.4105   25.1772 Br      1  UNL1       -0.0471
      8 C          -7.8032  -16.1248   24.5541 C.ar    1  UNL1        0.0950
      9 C          -8.7575  -16.9142   23.8745 C.ar    1  UNL1        0.1406
     10 C          -8.4090  -17.8130   22.8961 C.ar    1  UNL1        0.0327
     11 C          -7.0591  -17.9717   22.5772 C.ar    1  UNL1        0.0794
     12 C          -9.6260  -18.4901   22.3698 C.3     1  UNL1        0.0709
     13 C         -10.7684  -17.8617   23.2354 C.3     1  UNL1        0.1375
     14 C         -11.4522  -18.9230   24.1080 C.3     1  UNL1        0.0439
     15 C         -11.8030  -17.1401   22.3615 C.3     1  UNL1        0.0439
     16 O         -10.1213  -16.9079   24.0808 O.3     1  UNL1       -0.4824
     17 C          -8.2514  -15.1707   25.5841 C.2     1  UNL1        0.2530
     18 O          -9.2946  -14.4936   25.3777 O.2     1  UNL1       -0.2697
     19 N          -7.5025  -15.0088   26.8005 N.am    1  UNL1       -0.2803
     20 H          -6.6991  -15.6529   26.9772 H       1  UNL1        0.1552
     21 C          -7.8412  -14.0705   27.8348 C.ar    1  UNL1        0.0505
     22 C          -9.1199  -14.1140   28.4065 C.ar    1  UNL1        0.0147
     23 C          -9.4726  -13.2175   29.4169 C.ar    1  UNL1        0.0012
     24 C          -8.5436  -12.2854   29.8845 C.ar    1  UNL1        0.0039
     25 C          -7.2385  -12.2605   29.3633 C.ar    1  UNL1        0.0726
     26 C          -6.8992  -13.1481   28.3258 C.ar    1  UNL1        0.0185
     27 C          -6.2404  -11.2376   29.8461 C.3     1  UNL1        0.4186
     28 F          -6.9178  -10.1281   30.3159 F       1  UNL1       -0.1659
     29 F          -5.4019  -10.8511   28.8149 F       1  UNL1       -0.1659
     30 F          -5.4601  -11.7545   30.8662 F       1  UNL1       -0.1659
     31 N          -4.0728  -19.2373   21.2030 N.pl3   1  UNL1       -0.2814
     32 H          -4.2838  -20.1881   20.8251 H       1  UNL1        0.1551
     33 C          -2.8157  -18.6298   20.8565 C.ar    1  UNL1        0.0889
     34 C          -1.5932  -19.2623   21.1665 C.ar    1  UNL1        0.1543
     35 F          -1.5687  -20.4494   21.8230 F       1  UNL1       -0.2028
     36 C          -0.3808  -18.6545   20.8276 C.ar    1  UNL1        0.0310
     37 C          -0.3711  -17.4131   20.1903 C.ar    1  UNL1        0.0033
     38 C          -1.5743  -16.7703   19.8939 C.ar    1  UNL1        0.0128
     39 C          -2.7949  -17.3683   20.2279 C.ar    1  UNL1        0.0733
     40 CL         -4.2858  -16.5343   19.8091 Cl      1  UNL1       -0.0809
@<TRIPOS>BOND
     1     1     2    1
     2     2     3   ar
     3     3    31    1
     4    31    33    1
     5    33    34   ar
     6    34    35    1
     7    34    36   ar
     8    36    37   ar
     9    37    38   ar
    10    38    39   ar
    11    39    40    1
    12     3     4   ar
    13     4     5   ar
    14     5     6   ar
    15     6     7    1
    16     6     8   ar
    17     8    17    1
    18    17    18    2
    19    17    19   am
    20    19    21    1
    21    21    22   ar
    22    22    23   ar
    23    23    24   ar
    24    24    25   ar
    25    25    27    1
    26    27    28    1
    27    27    29    1
    28    27    30    1
    29    25    26   ar
    30     8     9   ar
    31     9    10   ar
    32    10    11   ar
    33    10    12    1
    34    12    13    1
    35    13    14    1
    36    13    15    1
    37    13    16    1
    38    11     2   ar
    39    39    33   ar
    40    11     5   ar
    41    26    21   ar
    42    16     9    1
    43    31    32    1
    44    19    20    1
@<TRIPOS>MOLECULE
*****
 40 44 0 0 0
SMALL
GASTEIGER

@<TRIPOS>ATOM
      1 C          -9.1797  -10.3353   33.0876 C.3     1  UNL1        0.1332
      2 N          -9.3962  -11.3407   32.0472 N.ar    1  UNL1       -0.2977
      3 C         -10.4910  -12.1261   31.8422 C.ar    1  UNL1        0.2018
      4 N         -10.3993  -12.9180   30.7435 N.ar    1  UNL1       -0.2130
      5 C          -9.1769  -12.6297   30.2608 C.ar    1  UNL1        0.1061
      6 C          -8.5443  -13.2040   29.1452 C.ar    1  UNL1        0.0610
      7 BR         -9.4364  -14.5984   28.1720 Br      1  UNL1       -0.0471
      8 C          -7.2194  -12.7793   28.8399 C.ar    1  UNL1        0.0950
      9 C          -6.6109  -11.8268   29.6875 C.ar    1  UNL1        0.1406
     10 C          -7.2616  -11.2750   30.7639 C.ar    1  UNL1        0.0327
     11 C          -8.5648  -11.6882   31.0473 C.ar    1  UNL1        0.0794
     12 C          -6.3668  -10.3100   31.4599 C.3     1  UNL1        0.0709
     13 C          -5.0449  -10.4081   30.6279 C.3     1  UNL1        0.1375
     14 C          -3.8925  -10.9592   31.4787 C.3     1  UNL1        0.0439
     15 C          -4.6609   -9.0517   30.0216 C.3     1  UNL1        0.0439
     16 O          -5.3292  -11.3300   29.5732 O.3     1  UNL1       -0.4824
     17 C          -6.4649  -13.3191   27.6948 C.2     1  UNL1        0.2530
     18 O          -5.4662  -12.6806   27.2651 O.2     1  UNL1       -0.2697
     19 N          -6.8700  -14.5498   27.0720 N.am    1  UNL1       -0.2803
     20 H          -7.6424  -15.0976   27.5133 H       1  UNL1        0.1552
     21 C          -6.2210  -15.1226   25.9250 C.ar    1  UNL1        0.0505
     22 C          -5.0619  -15.8891   26.1060 C.ar    1  UNL1        0.0147
     23 C          -4.4153  -16.4614   25.0091 C.ar    1  UNL1        0.0012
     24 C          -4.9340  -16.2956   23.7230 C.ar    1  UNL1        0.0039
     25 C          -6.1254  -15.5766   23.5249 C.ar    1  UNL1        0.0726
     26 C          -6.7557  -14.9791   24.6316 C.ar    1  UNL1        0.0185
     27 C          -6.6743  -15.3720   22.1348 C.3     1  UNL1        0.4186
     28 F          -6.9225  -16.6036   21.5583 F       1  UNL1       -0.1659
     29 F          -5.7673  -14.6811   21.3501 F       1  UNL1       -0.1659
     30 F          -7.8528  -14.6466   22.1728 F       1  UNL1       -0.1659
     31 N         -11.6456  -12.1464   32.6925 N.pl3   1  UNL1       -0.2814
     32 H         -12.0745  -11.2267   32.9403 H       1  UNL1        0.1551
     33 C         -12.3400  -13.3471   33.0740 C.ar    1  UNL1        0.0889
     34 C         -13.5020  -13.7627   32.3901 C.ar    1  UNL1        0.1543
     35 F         -14.0115  -13.0279   31.3697 F       1  UNL1       -0.2028
     36 C         -14.1676  -14.9292   32.7784 C.ar    1  UNL1        0.0310
     37 C         -13.6936  -15.6845   33.8518 C.ar    1  UNL1        0.0033
     38 C         -12.5545  -15.2736   34.5464 C.ar    1  UNL1        0.0128
     39 C         -11.8791  -14.1077   34.1676 C.ar    1  UNL1        0.0733
     40 CL        -10.4321  -13.6448   35.0541 Cl      1  UNL1       -0.0809
@<TRIPOS>BOND
     1     1     2    1
     2     2     3   ar
     3     3    31    1
     4    31    33    1
     5    33    34   ar
     6    34    35    1
     7    34    36   ar
     8    36    37   ar
     9    37    38   ar
    10    38    39   ar
    11    39    40    1
    12     3     4   ar
    13     4     5   ar
    14     5     6   ar
    15     6     7    1
    16     6     8   ar
    17     8    17    1
    18    17    18    2
    19    17    19   am
    20    19    21    1
    21    21    22   ar
    22    22    23   ar
    23    23    24   ar
    24    24    25   ar
    25    25    27    1
    26    27    28    1
    27    27    29    1
    28    27    30    1
    29    25    26   ar
    30     8     9   ar
    31     9    10   ar
    32    10    11   ar
    33    10    12    1
    34    12    13    1
    35    13    14    1
    36    13    15    1
    37    13    16    1
    38    11     2   ar
    39    39    33   ar
    40    11     5   ar
    41    26    21   ar
    42    16     9    1
    43    31    32    1
    44    19    20    1
@<TRIPOS>MOLECULE
*****
 40 44 0 0 0
SMALL
GASTEIGER

@<TRIPOS>ATOM
      1 C          -7.2453  -18.3203   21.0053 C.3     1  UNL1        0.1332
      2 N          -6.6596  -17.4486   22.0236 N.ar    1  UNL1       -0.2977
      3 C          -5.4455  -16.8295   22.0129 C.ar    1  UNL1        0.2018
      4 N          -5.2268  -16.0333   23.0903 N.ar    1  UNL1       -0.2130
      5 C          -6.3482  -16.1892   23.8174 C.ar    1  UNL1        0.1061
      6 C          -6.6383  -15.6192   25.0687 C.ar    1  UNL1        0.0610
      7 BR         -5.3208  -14.5194   25.9299 Br      1  UNL1       -0.0471
      8 C          -7.8766  -15.9608   25.6842 C.ar    1  UNL1        0.0950
      9 C          -8.7276  -16.8685   25.0151 C.ar    1  UNL1        0.1406
     10 C          -8.4201  -17.3987   23.7859 C.ar    1  UNL1        0.0327
     11 C          -7.2098  -17.0476   23.1848 C.ar    1  UNL1        0.0794
     12 C          -9.5045  -18.3169   23.3417 C.3     1  UNL1        0.0709
     13 C         -10.5049  -18.2718   24.5443 C.3     1  UNL1        0.1375
     14 C         -10.6249  -19.6451   25.2189 C.3     1  UNL1        0.0439
     15 C         -11.8868  -17.7683   24.1067 C.3     1  UNL1        0.0439
     16 O          -9.9393  -17.3433   25.4723 O.3     1  UNL1       -0.4824
     17 C          -8.2778  -15.4217   26.9959 C.2     1  UNL1        0.2530
     18 O          -8.7292  -16.2111   27.8691 O.2     1  UNL1       -0.2697
     19 N          -8.1652  -14.0148   27.2692 N.am    1  UNL1       -0.2803
     20 H          -7.6999  -13.4076   26.5577 H       1  UNL1        0.1552
     21 C          -8.5753  -13.3995   28.5013 C.ar    1  UNL1        0.0505
     22 C          -9.8490  -13.6782   29.0148 C.ar    1  UNL1        0.0147
     23 C         -10.2700  -13.0980   30.2127 C.ar    1  UNL1        0.0012
     24 C          -9.4137  -12.2539   30.9232 C.ar    1  UNL1        0.0039
     25 C          -8.1124  -12.0041   30.4543 C.ar    1  UNL1        0.0726
     26 C          -7.7055  -12.5698   29.2322 C.ar    1  UNL1        0.0185
     27 C          -7.1940  -11.0715   31.2042 C.3     1  UNL1        0.4186
     28 F          -5.8817  -11.4028   30.9232 F       1  UNL1       -0.1659
     29 F          -7.4032  -11.1750   32.5685 F       1  UNL1       -0.1659
     30 F          -7.4164   -9.7569   30.8319 F       1  UNL1       -0.1659
     31 N          -4.4628  -16.9886   20.9806 N.pl3   1  UNL1       -0.2814
     32 H          -4.5849  -16.4222   20.1114 H       1  UNL1        0.1551
     33 C          -3.2449  -17.7372   21.1408 C.ar    1  UNL1        0.0889
     34 C          -2.0619  -17.1127   21.5893 C.ar    1  UNL1        0.1543
     35 F          -2.0335  -15.7831   21.8579 F       1  UNL1       -0.2028
     36 C          -0.8858  -17.8546   21.7335 C.ar    1  UNL1        0.0310
     37 C          -0.8710  -19.2154   21.4243 C.ar    1  UNL1        0.0033
     38 C          -2.0313  -19.8399   20.9636 C.ar    1  UNL1        0.0128
     39 C          -3.2152  -19.1083   20.8150 C.ar    1  UNL1        0.0733
     40 CL         -4.6595  -19.9440   20.2585 Cl      1  UNL1       -0.0809
@<TRIPOS>BOND
     1     1     2    1
     2     2     3   ar
     3     3    31    1
     4    31    33    1
     5    33    34   ar
     6    34    35    1
     7    34    36   ar
     8    36    37   ar
     9    37    38   ar
    10    38    39   ar
    11    39    40    1
    12     3     4   ar
    13     4     5   ar
    14     5     6   ar
    15     6     7    1
    16     6     8   ar
    17     8    17    1
    18    17    18    2
    19    17    19   am
    20    19    21    1
    21    21    22   ar
    22    22    23   ar
    23    23    24   ar
    24    24    25   ar
    25    25    27    1
    26    27    28    1
    27    27    29    1
    28    27    30    1
    29    25    26   ar
    30     8     9   ar
    31     9    10   ar
    32    10    11   ar
    33    10    12    1
    34    12    13    1
    35    13    14    1
    36    13    15    1
    37    13    16    1
    38    11     2   ar
    39    39    33   ar
    40    11     5   ar
    41    26    21   ar
    42    16     9    1
    43    31    32    1
    44    19    20    1
@<TRIPOS>MOLECULE
*****
 40 44 0 0 0
SMALL
GASTEIGER

@<TRIPOS>ATOM
      1 C          -9.2642   -9.9637   34.3885 C.3     1  UNL1        0.1332
      2 N          -8.5095  -10.2039   33.1586 N.ar    1  UNL1       -0.2977
      3 C          -7.3390   -9.6329   32.7571 C.ar    1  UNL1        0.2018
      4 N          -6.8645  -10.1226   31.5834 N.ar    1  UNL1       -0.2130
      5 C          -7.8012  -11.0202   31.2265 C.ar    1  UNL1        0.1061
      6 C          -7.8343  -11.7972   30.0561 C.ar    1  UNL1        0.0610
      7 BR         -6.4499  -11.5805   28.7433 Br      1  UNL1       -0.0471
      8 C          -8.9543  -12.6549   29.8586 C.ar    1  UNL1        0.0950
      9 C          -9.9751  -12.6567   30.8352 C.ar    1  UNL1        0.1406
     10 C          -9.9065  -11.8939   31.9753 C.ar    1  UNL1        0.0327
     11 C          -8.7985  -11.0662   32.1661 C.ar    1  UNL1        0.0794
     12 C         -11.1239  -12.1079   32.8051 C.3     1  UNL1        0.0709
     13 C         -11.9560  -13.1114   31.9394 C.3     1  UNL1        0.1375
     14 C         -13.2779  -12.4832   31.4775 C.3     1  UNL1        0.0439
     15 C         -12.2211  -14.4200   32.6957 C.3     1  UNL1        0.0439
     16 O         -11.1447  -13.3869   30.7951 O.3     1  UNL1       -0.4824
     17 C          -9.0894  -13.5096   28.6656 C.2     1  UNL1        0.2530
     18 O         -10.1751  -13.4978   28.0249 O.2     1  UNL1       -0.2697
     19 N          -8.0018  -14.3514   28.2471 N.am    1  UNL1       -0.2803
     20 H          -7.0877  -14.2643   28.7455 H       1  UNL1        0.1552
     21 C          -8.0640  -15.2481   27.1259 C.ar    1  UNL1        0.0505
     22 C          -8.8001  -16.4351   27.2388 C.ar    1  UNL1        0.0147
     23 C          -8.8813  -17.3208   26.1628 C.ar    1  UNL1        0.0012
     24 C          -8.2497  -17.0177   24.9546 C.ar    1  UNL1        0.0039
     25 C          -7.5520  -15.8072   24.8019 C.ar    1  UNL1        0.0726
     26 C          -7.4507  -14.9330   25.8996 C.ar    1  UNL1        0.0185
     27 C          -6.8455  -15.4883   23.5078 C.3     1  UNL1        0.4186
     28 F          -7.6796  -14.7278   22.7100 F       1  UNL1       -0.1659
     29 F          -6.5144  -16.6515   22.8345 F       1  UNL1       -0.1659
     30 F          -5.6798  -14.7801   23.7449 F       1  UNL1       -0.1659
     31 N          -6.6501   -8.6020   33.4779 N.pl3   1  UNL1       -0.2814
     32 H          -6.7627   -8.5861   34.5162 H       1  UNL1        0.1551
     33 C          -5.6896   -7.7116   32.8828 C.ar    1  UNL1        0.0889
     34 C          -4.4205   -7.5162   33.4675 C.ar    1  UNL1        0.1543
     35 F          -4.0800   -8.1433   34.6215 F       1  UNL1       -0.2028
     36 C          -3.5016   -6.6425   32.8788 C.ar    1  UNL1        0.0310
     37 C          -3.8372   -5.9494   31.7150 C.ar    1  UNL1        0.0033
     38 C          -5.0962   -6.1222   31.1373 C.ar    1  UNL1        0.0128
     39 C          -6.0251   -6.9941   31.7169 C.ar    1  UNL1        0.0733
     40 CL         -7.5884   -7.2013   30.9376 Cl      1  UNL1       -0.0809
@<TRIPOS>BOND
     1     1     2    1
     2     2     3   ar
     3     3    31    1
     4    31    33    1
     5    33    34   ar
     6    34    35    1
     7    34    36   ar
     8    36    37   ar
     9    37    38   ar
    10    38    39   ar
    11    39    40    1
    12     3     4   ar
    13     4     5   ar
    14     5     6   ar
    15     6     7    1
    16     6     8   ar
    17     8    17    1
    18    17    18    2
    19    17    19   am
    20    19    21    1
    21    21    22   ar
    22    22    23   ar
    23    23    24   ar
    24    24    25   ar
    25    25    27    1
    26    27    28    1
    27    27    29    1
    28    27    30    1
    29    25    26   ar
    30     8     9   ar
    31     9    10   ar
    32    10    11   ar
    33    10    12    1
    34    12    13    1
    35    13    14    1
    36    13    15    1
    37    13    16    1
    38    11     2   ar
    39    39    33   ar
    40    11     5   ar
    41    26    21   ar
    42    16     9    1
    43    31    32    1
    44    19    20    1
@<TRIPOS>MOLECULE
*****
 40 44 0 0 0
SMALL
GASTEIGER

@<TRIPOS>ATOM
      1 C          -9.0609  -10.1982   31.4923 C.3     1  UNL1        0.1332
      2 N          -9.2743  -11.4839   30.8278 N.ar    1  UNL1       -0.2977
      3 C         -10.2997  -12.3654   30.9969 C.ar    1  UNL1        0.2018
      4 N         -10.2348  -13.4454   30.1770 N.ar    1  UNL1       -0.2130
      5 C          -9.0989  -13.2364   29.4866 C.ar    1  UNL1        0.1061
      6 C          -8.5217  -14.0786   28.5213 C.ar    1  UNL1        0.0610
      7 BR         -9.3589  -15.7586   28.1166 Br      1  UNL1       -0.0471
      8 C          -7.2810  -13.6793   27.9466 C.ar    1  UNL1        0.0950
      9 C          -6.6925  -12.4763   28.3964 C.ar    1  UNL1        0.1406
     10 C          -7.2892  -11.6686   29.3334 C.ar    1  UNL1        0.0327
     11 C          -8.5116  -12.0621   29.8813 C.ar    1  UNL1        0.0794
     12 C          -6.4328  -10.4807   29.6012 C.3     1  UNL1        0.0709
     13 C          -5.1933  -10.7383   28.6812 C.3     1  UNL1        0.1375
     14 C          -3.9157  -10.9274   29.5104 C.3     1  UNL1        0.0439
     15 C          -5.0063   -9.6073   27.6610 C.3     1  UNL1        0.0439
     16 O          -5.4836  -11.9534   27.9868 O.3     1  UNL1       -0.4824
     17 C          -6.5891  -14.4895   26.9283 C.2     1  UNL1        0.2530
     18 O          -5.4873  -15.0281   27.2206 O.2     1  UNL1       -0.2697
     19 N          -7.1589  -14.6529   25.6185 N.am    1  UNL1       -0.2803
     20 H          -8.1157  -14.2716   25.4434 H       1  UNL1        0.1552
     21 C          -6.5309  -15.3856   24.5538 C.ar    1  UNL1        0.0505
     22 C          -5.1547  -15.2339   24.3373 C.ar    1  UNL1        0.0147
     23 C          -4.5191  -15.9385   23.3134 C.ar    1  UNL1        0.0012
     24 C          -5.2463  -16.8212   22.5118 C.ar    1  UNL1        0.0039
     25 C          -6.6163  -17.0296   22.7468 C.ar    1  UNL1        0.0726
     26 C          -7.2557  -16.2950   23.7620 C.ar    1  UNL1        0.0185
     27 C          -7.4113  -17.9613   21.8662 C.3     1  UNL1        0.4186
     28 F          -6.6905  -18.2260   20.7168 F       1  UNL1       -0.1659
     29 F          -8.6216  -17.3872   21.5174 F       1  UNL1       -0.1659
     30 F          -7.6717  -19.1537   22.5195 F       1  UNL1       -0.1659
     31 N         -11.3600  -12.2037   31.9488 N.pl3   1  UNL1       -0.2814
     32 H         -11.9584  -11.3521   31.8595 H       1  UNL1        0.1551
     33 C         -11.7510  -13.2153   32.8939 C.ar    1  UNL1        0.0889
     34 C         -12.8988  -14.0068   32.6777 C.ar    1  UNL1        0.1543
     35 F         -13.6802  -13.8187   31.5846 F       1  UNL1       -0.2028
     36 C         -13.2672  -14.9814   33.6099 C.ar    1  UNL1        0.0310
     37 C         -12.5087  -15.1704   34.7658 C.ar    1  UNL1        0.0033
     38 C         -11.3808  -14.3815   34.9983 C.ar    1  UNL1        0.0128
     39 C         -11.0012  -13.4025   34.0728 C.ar    1  UNL1        0.0733
     40 CL         -9.5566  -12.4520   34.3944 Cl      1  UNL1       -0.0809
@<TRIPOS>BOND
     1     1     2    1
     2     2     3   ar
     3     3    31    1
     4    31    33    1
     5    33    34   ar
     6    34    35    1
     7    34    36   ar
     8    36    37   ar
     9    37    38   ar
    10    38    39   ar
    11    39    40    1
    12     3     4   ar
    13     4     5   ar
    14     5     6   ar
    15     6     7    1
    16     6     8   ar
    17     8    17    1
    18    17    18    2
    19    17    19   am
    20    19    21    1
    21    21    22   ar
    22    22    23   ar
    23    23    24   ar
    24    24    25   ar
    25    25    27    1
    26    27    28    1
    27    27    29    1
    28    27    30    1
    29    25    26   ar
    30     8     9   ar
    31     9    10   ar
    32    10    11   ar
    33    10    12    1
    34    12    13    1
    35    13    14    1
    36    13    15    1
    37    13    16    1
    38    11     2   ar
    39    39    33   ar
    40    11     5   ar
    41    26    21   ar
    42    16     9    1
    43    31    32    1
    44    19    20    1
@<TRIPOS>MOLECULE
*****
 40 44 0 0 0
SMALL
GASTEIGER

@<TRIPOS>ATOM
      1 C          -8.9553  -10.2568   31.4562 C.3     1  UNL1        0.1332
      2 N          -9.1742  -11.5301   30.7700 N.ar    1  UNL1       -0.2977
      3 C         -10.2037  -12.4098   30.9240 C.ar    1  UNL1        0.2018
      4 N         -10.1434  -13.4760   30.0860 N.ar    1  UNL1       -0.2130
      5 C          -9.0064  -13.2605   29.3995 C.ar    1  UNL1        0.1061
      6 C          -8.4327  -14.0889   28.4201 C.ar    1  UNL1        0.0610
      7 BR         -9.2774  -15.7580   27.9869 Br      1  UNL1       -0.0471
      8 C          -7.1900  -13.6856   27.8525 C.ar    1  UNL1        0.0950
      9 C          -6.5963  -12.4930   28.3227 C.ar    1  UNL1        0.1406
     10 C          -7.1896  -11.6986   29.2731 C.ar    1  UNL1        0.0327
     11 C          -8.4139  -12.0958   29.8141 C.ar    1  UNL1        0.0794
     12 C          -6.3279  -10.5192   29.5612 C.3     1  UNL1        0.0709
     13 C          -5.0893  -10.7668   28.6373 C.3     1  UNL1        0.1375
     14 C          -3.8129  -10.9757   29.4634 C.3     1  UNL1        0.0439
     15 C          -4.8969   -9.6196   27.6364 C.3     1  UNL1        0.0439
     16 O          -5.3849  -11.9688   27.9223 O.3     1  UNL1       -0.4824
     17 C          -6.5016  -14.4816   26.8209 C.2     1  UNL1        0.2530
     18 O          -5.4865  -15.1554   27.1449 O.2     1  UNL1       -0.2697
     19 N          -6.9759  -14.4795   25.4638 N.am    1  UNL1       -0.2803
     20 H          -7.8724  -13.9862   25.2531 H       1  UNL1        0.1552
     21 C          -6.3393  -15.1883   24.3880 C.ar    1  UNL1        0.0505
     22 C          -6.7300  -14.9241   23.0684 C.ar    1  UNL1        0.0147
     23 C          -6.1235  -15.5947   22.0048 C.ar    1  UNL1        0.0012
     24 C          -5.1029  -16.5169   22.2463 C.ar    1  UNL1        0.0039
     25 C          -4.6580  -16.7566   23.5579 C.ar    1  UNL1        0.0726
     26 C          -5.2932  -16.0982   24.6266 C.ar    1  UNL1        0.0185
     27 C          -3.5749  -17.7718   23.8257 C.3     1  UNL1        0.4186
     28 F          -2.3993  -17.3490   23.2343 F       1  UNL1       -0.1659
     29 F          -3.9241  -19.0054   23.3040 F       1  UNL1       -0.1659
     30 F          -3.3663  -17.9219   25.1860 F       1  UNL1       -0.1659
     31 N         -11.2636  -12.2594   31.8782 N.pl3   1  UNL1       -0.2814
     32 H         -11.8798  -11.4214   31.7818 H       1  UNL1        0.1551
     33 C         -11.6299  -13.2681   32.8362 C.ar    1  UNL1        0.0889
     34 C         -12.7221  -14.1300   32.6019 C.ar    1  UNL1        0.1543
     35 F         -13.4732  -14.0148   31.4779 F       1  UNL1       -0.2028
     36 C         -13.0676  -15.1008   33.5467 C.ar    1  UNL1        0.0310
     37 C         -12.3415  -15.2168   34.7327 C.ar    1  UNL1        0.0033
     38 C         -11.2696  -14.3582   34.9826 C.ar    1  UNL1        0.0128
     39 C         -10.9135  -13.3821   34.0448 C.ar    1  UNL1        0.0733
     40 CL         -9.5380  -12.3418   34.3903 Cl      1  UNL1       -0.0809
@<TRIPOS>BOND
     1     1     2    1
     2     2     3   ar
     3     3    31    1
     4    31    33    1
     5    33    34   ar
     6    34    35    1
     7    34    36   ar
     8    36    37   ar
     9    37    38   ar
    10    38    39   ar
    11    39    40    1
    12     3     4   ar
    13     4     5   ar
    14     5     6   ar
    15     6     7    1
    16     6     8   ar
    17     8    17    1
    18    17    18    2
    19    17    19   am
    20    19    21    1
    21    21    22   ar
    22    22    23   ar
    23    23    24   ar
    24    24    25   ar
    25    25    27    1
    26    27    28    1
    27    27    29    1
    28    27    30    1
    29    25    26   ar
    30     8     9   ar
    31     9    10   ar
    32    10    11   ar
    33    10    12    1
    34    12    13    1
    35    13    14    1
    36    13    15    1
    37    13    16    1
    38    11     2   ar
    39    39    33   ar
    40    11     5   ar
    41    26    21   ar
    42    16     9    1
    43    31    32    1
    44    19    20    1
@<TRIPOS>MOLECULE
*****
 40 44 0 0 0
SMALL
GASTEIGER

@<TRIPOS>ATOM
      1 C          -7.1698  -18.1744   21.1097 C.3     1  UNL1        0.1332
      2 N          -6.5540  -17.3115   22.1177 N.ar    1  UNL1       -0.2977
      3 C          -5.3241  -16.7249   22.0941 C.ar    1  UNL1        0.2018
      4 N          -5.0767  -15.9274   23.1644 N.ar    1  UNL1       -0.2130
      5 C          -6.1966  -16.0485   23.9004 C.ar    1  UNL1        0.1061
      6 C          -6.4625  -15.4625   25.1496 C.ar    1  UNL1        0.0610
      7 BR         -5.1102  -14.3921   25.9938 Br      1  UNL1       -0.0471
      8 C          -7.7049  -15.7670   25.7762 C.ar    1  UNL1        0.0950
      9 C          -8.5844  -16.6565   25.1195 C.ar    1  UNL1        0.1406
     10 C          -8.2998  -17.2030   23.8920 C.ar    1  UNL1        0.0327
     11 C          -7.0851  -16.8882   23.2799 C.ar    1  UNL1        0.0794
     12 C          -9.4112  -18.0952   23.4619 C.3     1  UNL1        0.0709
     13 C         -10.4014  -18.0154   24.6711 C.3     1  UNL1        0.1375
     14 C         -10.5528  -19.3804   25.3562 C.3     1  UNL1        0.0439
     15 C         -11.7727  -17.4785   24.2397 C.3     1  UNL1        0.0439
     16 O          -9.8049  -17.0959   25.5886 O.3     1  UNL1       -0.4824
     17 C          -8.0823  -15.2085   27.0868 C.2     1  UNL1        0.2530
     18 O          -8.7262  -15.9295   27.8961 O.2     1  UNL1       -0.2697
     19 N          -7.7295  -13.8579   27.4307 N.am    1  UNL1       -0.2803
     20 H          -7.1160  -13.3239   26.7750 H       1  UNL1        0.1552
     21 C          -8.0966  -13.2201   28.6649 C.ar    1  UNL1        0.0505
     22 C          -7.1662  -12.3964   29.3129 C.ar    1  UNL1        0.0147
     23 C          -7.4994  -11.7605   30.5101 C.ar    1  UNL1        0.0012
     24 C          -8.7736  -11.9200   31.0591 C.ar    1  UNL1        0.0039
     25 C          -9.7398  -12.6974   30.3976 C.ar    1  UNL1        0.0726
     26 C          -9.3877  -13.3579   29.2063 C.ar    1  UNL1        0.0185
     27 C         -11.1084  -12.8945   31.0007 C.3     1  UNL1        0.4186
     28 F         -11.3495  -14.2476   31.1482 F       1  UNL1       -0.1659
     29 F         -12.0835  -12.3489   30.1838 F       1  UNL1       -0.1659
     30 F         -11.1926  -12.2840   32.2403 F       1  UNL1       -0.1659
     31 N          -4.3534  -16.9170   21.0562 N.pl3   1  UNL1       -0.2814
     32 H          -4.3467  -16.2263   20.2726 H       1  UNL1        0.1551
     33 C          -3.2922  -17.8861   21.1194 C.ar    1  UNL1        0.0889
     34 C          -3.5448  -19.2558   20.8938 C.ar    1  UNL1        0.1543
     35 F          -4.8004  -19.7004   20.6358 F       1  UNL1       -0.2028
     36 C          -2.5023  -20.1846   20.9652 C.ar    1  UNL1        0.0310
     37 C          -1.2070  -19.7649   21.2709 C.ar    1  UNL1        0.0033
     38 C          -0.9488  -18.4146   21.5127 C.ar    1  UNL1        0.0128
     39 C          -1.9837  -17.4747   21.4442 C.ar    1  UNL1        0.0733
     40 CL         -1.6053  -15.7806   21.7284 Cl      1  UNL1       -0.0809
@<TRIPOS>BOND
     1     1     2    1
     2     2     3   ar
     3     3    31    1
     4    31    33    1
     5    33    34   ar
     6    34    35    1
     7    34    36   ar
     8    36    37   ar
     9    37    38   ar
    10    38    39   ar
    11    39    40    1
    12     3     4   ar
    13     4     5   ar
    14     5     6   ar
    15     6     7    1
    16     6     8   ar
    17     8    17    1
    18    17    18    2
    19    17    19   am
    20    19    21    1
    21    21    22   ar
    22    22    23   ar
    23    23    24   ar
    24    24    25   ar
    25    25    27    1
    26    27    28    1
    27    27    29    1
    28    27    30    1
    29    25    26   ar
    30     8     9   ar
    31     9    10   ar
    32    10    11   ar
    33    10    12    1
    34    12    13    1
    35    13    14    1
    36    13    15    1
    37    13    16    1
    38    11     2   ar
    39    39    33   ar
    40    11     5   ar
    41    26    21   ar
    42    16     9    1
    43    31    32    1
    44    19    20    1
@<TRIPOS>MOLECULE
*****
 40 44 0 0 0
SMALL
GASTEIGER

@<TRIPOS>ATOM
      1 C          -9.2425  -10.0728   34.2367 C.3     1  UNL1        0.1332
      2 N          -8.4285  -10.2854   33.0400 N.ar    1  UNL1       -0.2977
      3 C          -7.2635   -9.6725   32.6874 C.ar    1  UNL1        0.2018
      4 N          -6.7227  -10.1445   31.5353 N.ar    1  UNL1       -0.2130
      5 C          -7.6106  -11.0753   31.1405 C.ar    1  UNL1        0.1061
      6 C          -7.5664  -11.8528   29.9708 C.ar    1  UNL1        0.0610
      7 BR         -6.1367  -11.5860   28.7171 Br      1  UNL1       -0.0471
      8 C          -8.6454  -12.7502   29.7275 C.ar    1  UNL1        0.0950
      9 C          -9.7058  -12.7890   30.6602 C.ar    1  UNL1        0.1406
     10 C          -9.7127  -12.0244   31.8012 C.ar    1  UNL1        0.0327
     11 C          -8.6443  -11.1573   32.0374 C.ar    1  UNL1        0.0794
     12 C         -10.9554  -12.2823   32.5794 C.3     1  UNL1        0.0709
     13 C         -11.7136  -13.3151   31.6807 C.3     1  UNL1        0.1375
     14 C         -13.0367  -12.7349   31.1628 C.3     1  UNL1        0.0439
     15 C         -11.9631  -14.6325   32.4270 C.3     1  UNL1        0.0439
     16 O         -10.8456  -13.5609   30.5720 O.3     1  UNL1       -0.4824
     17 C          -8.6993  -13.6090   28.5310 C.2     1  UNL1        0.2530
     18 O          -9.8234  -13.9251   28.0555 O.2     1  UNL1       -0.2697
     19 N          -7.4871  -14.0866   27.9234 N.am    1  UNL1       -0.2803
     20 H          -6.5759  -13.7280   28.2874 H       1  UNL1        0.1552
     21 C          -7.4490  -14.9634   26.7855 C.ar    1  UNL1        0.0505
     22 C          -6.3128  -14.9713   25.9653 C.ar    1  UNL1        0.0147
     23 C          -6.2478  -15.8176   24.8570 C.ar    1  UNL1        0.0012
     24 C          -7.3060  -16.6832   24.5713 C.ar    1  UNL1        0.0039
     25 C          -8.4315  -16.7307   25.4119 C.ar    1  UNL1        0.0726
     26 C          -8.5020  -15.8548   26.5106 C.ar    1  UNL1        0.0185
     27 C          -9.5884  -17.6443   25.0919 C.3     1  UNL1        0.4186
     28 F         -10.5670  -16.9245   24.4325 F       1  UNL1       -0.1659
     29 F         -10.1242  -18.1761   26.2521 F       1  UNL1       -0.1659
     30 F          -9.1795  -18.6925   24.2853 F       1  UNL1       -0.1659
     31 N          -6.6432   -8.6175   33.4351 N.pl3   1  UNL1       -0.2814
     32 H          -6.8270   -8.5866   34.4629 H       1  UNL1        0.1551
     33 C          -5.6593   -7.7199   32.8913 C.ar    1  UNL1        0.0889
     34 C          -4.4329   -7.4992   33.5529 C.ar    1  UNL1        0.1543
     35 F          -4.1577   -8.1080   34.7338 F       1  UNL1       -0.2028
     36 C          -3.4907   -6.6187   33.0130 C.ar    1  UNL1        0.0310
     37 C          -3.7613   -5.9439   31.8219 C.ar    1  UNL1        0.0033
     38 C          -4.9784   -6.1418   31.1676 C.ar    1  UNL1        0.0128
     39 C          -5.9300   -7.0207   31.6978 C.ar    1  UNL1        0.0733
     40 CL         -7.4374   -7.2598   30.8235 Cl      1  UNL1       -0.0809
@<TRIPOS>BOND
     1     1     2    1
     2     2     3   ar
     3     3    31    1
     4    31    33    1
     5    33    34   ar
     6    34    35    1
     7    34    36   ar
     8    36    37   ar
     9    37    38   ar
    10    38    39   ar
    11    39    40    1
    12     3     4   ar
    13     4     5   ar
    14     5     6   ar
    15     6     7    1
    16     6     8   ar
    17     8    17    1
    18    17    18    2
    19    17    19   am
    20    19    21    1
    21    21    22   ar
    22    22    23   ar
    23    23    24   ar
    24    24    25   ar
    25    25    27    1
    26    27    28    1
    27    27    29    1
    28    27    30    1
    29    25    26   ar
    30     8     9   ar
    31     9    10   ar
    32    10    11   ar
    33    10    12    1
    34    12    13    1
    35    13    14    1
    36    13    15    1
    37    13    16    1
    38    11     2   ar
    39    39    33   ar
    40    11     5   ar
    41    26    21   ar
    42    16     9    1
    43    31    32    1
    44    19    20    1
