@<TRIPOS>MOLECULE
*****
 42 46 0 0 0
SMALL
GASTEIGER

@<TRIPOS>ATOM
      1 C         -24.5698   51.2450   -9.0278 C.ar    1  UNL1        0.0942
      2 C         -25.5807   51.0392   -8.0593 C.ar    1  UNL1        0.1405
      3 C         -26.9083   50.9622   -8.3907 C.ar    1  UNL1        0.0325
      4 C         -27.2771   51.0927   -9.7207 C.ar    1  UNL1        0.0760
      5 N         -28.4977   51.0740  -10.2668 N.ar    1  UNL1       -0.3255
      6 C         -28.2531   51.2786  -11.5866 C.ar    1  UNL1        0.1984
      7 N         -26.9367   51.4404  -11.8880 N.ar    1  UNL1       -0.2132
      8 C         -26.3383   51.3088  -10.6894 C.ar    1  UNL1        0.1051
      9 C         -24.9666   51.3999  -10.3915 C.ar    1  UNL1        0.0480
     10 S         -23.7988   51.7896  -11.7001 S.3     1  UNL1       -0.1397
     11 C         -27.7396   50.7364   -7.1820 C.3     1  UNL1        0.0709
     12 C         -26.6639   50.6850   -6.0449 C.3     1  UNL1        0.1375
     13 C         -26.8783   51.8105   -5.0243 C.3     1  UNL1        0.0439
     14 C         -26.6598   49.3202   -5.3437 C.3     1  UNL1        0.0439
     15 O         -25.4057   50.8794   -6.7002 O.3     1  UNL1       -0.4824
     16 H         -29.4146   50.9622   -9.7800 H       1  UNL1        0.1686
     17 H         -23.9358   53.1731  -11.4825 H       1  UNL1        0.1072
     18 N         -22.2096   52.1019   -9.3311 N.am    1  UNL1       -0.2805
     19 C         -23.1601   51.3103   -8.5991 C.2     1  UNL1        0.2530
     20 O         -22.7954   50.6458   -7.5914 O.2     1  UNL1       -0.2697
     21 H         -22.5547   52.6868  -10.1243 H       1  UNL1        0.1552
     22 C         -20.2726   51.4926  -11.4234 C.3     1  UNL1        0.0323
     23 C         -19.8478   51.8247  -10.0185 C.ar    1  UNL1       -0.0084
     24 C         -18.4820   51.8158   -9.6876 C.ar    1  UNL1        0.0008
     25 C         -18.0529   52.1349   -8.3888 C.ar    1  UNL1        0.0712
     26 C         -19.0125   52.4074   -7.4024 C.ar    1  UNL1        0.0051
     27 C         -20.3718   52.4099   -7.7182 C.ar    1  UNL1        0.0143
     28 C         -20.8040   52.1352   -9.0261 C.ar    1  UNL1        0.0465
     29 C         -16.5878   52.0788   -8.0347 C.3     1  UNL1        0.4186
     30 F         -16.1262   53.3317   -7.6694 F       1  UNL1       -0.1659
     31 F         -15.8713   51.6366   -9.1311 F       1  UNL1       -0.1659
     32 F         -16.3715   51.2136   -6.9759 F       1  UNL1       -0.1659
     33 N         -29.2825   51.3795  -12.5789 N.pl3   1  UNL1       -0.2816
     34 H         -29.6514   52.3302  -12.8056 H       1  UNL1        0.1551
     35 C         -29.8907   50.2370  -13.2004 C.ar    1  UNL1        0.0889
     36 C         -29.4430   49.7827  -14.4559 C.ar    1  UNL1        0.1543
     37 F         -28.4400   50.4251  -15.1058 F       1  UNL1       -0.2028
     38 C         -30.0534   48.6819  -15.0642 C.ar    1  UNL1        0.0310
     39 C         -31.1191   48.0347  -14.4361 C.ar    1  UNL1        0.0033
     40 C         -31.5836   48.4903  -13.2003 C.ar    1  UNL1        0.0128
     41 C         -30.9800   49.5920  -12.5826 C.ar    1  UNL1        0.0733
     42 CL        -31.5828   50.1231  -11.0181 Cl      1  UNL1       -0.0809
@<TRIPOS>BOND
     1    22    23    1
     2    23    24   ar
     3    24    25   ar
     4    25    29    1
     5    29    30    1
     6    29    31    1
     7    29    32    1
     8    25    26   ar
     9    26    27   ar
    10    27    28   ar
    11    28    18    1
    12    18    19   am
    13    19    20    2
    14    19     1    1
    15     1     2   ar
    16     2     3   ar
    17     3     4   ar
    18     4     5   ar
    19     5     6   ar
    20     6    33    1
    21    33    35    1
    22    35    36   ar
    23    36    37    1
    24    36    38   ar
    25    38    39   ar
    26    39    40   ar
    27    40    41   ar
    28    41    42    1
    29     6     7   ar
    30     7     8   ar
    31     8     9   ar
    32     9    10    1
    33     3    11    1
    34    11    12    1
    35    12    13    1
    36    12    14    1
    37    12    15    1
    38    28    23   ar
    39     9     1   ar
    40    15     2    1
    41     8     4   ar
    42    41    35   ar
    43    18    21    1
    44     5    16    1
    45    33    34    1
    46    10    17    1
@<TRIPOS>MOLECULE
*****
 42 46 0 0 0
SMALL
GASTEIGER

@<TRIPOS>ATOM
      1 C         -27.3922   51.1848  -10.7682 C.ar    1  UNL1        0.0942
      2 C         -28.3278   50.6935   -9.8270 C.ar    1  UNL1        0.1405
      3 C         -29.5138   50.1196  -10.2039 C.ar    1  UNL1        0.0325
      4 C         -29.8114   50.0176  -11.5541 C.ar    1  UNL1        0.0760
      5 N         -30.9036   49.5219  -12.1454 N.ar    1  UNL1       -0.3255
      6 C         -30.6570   49.7112  -13.4672 C.ar    1  UNL1        0.1984
      7 N         -29.4676   50.3170  -13.7281 N.ar    1  UNL1       -0.2132
      8 C         -28.9467   50.4923  -12.4992 C.ar    1  UNL1        0.1051
      9 C         -27.7222   51.0930  -12.1551 C.ar    1  UNL1        0.0480
     10 S         -26.6824   51.7888  -13.4446 S.3     1  UNL1       -0.1397
     11 C         -30.2917   49.6910   -9.0146 C.3     1  UNL1        0.0709
     12 C         -29.3505   50.1091   -7.8349 C.3     1  UNL1        0.1375
     13 C         -30.0231   51.1474   -6.9271 C.3     1  UNL1        0.0439
     14 C         -28.9082   48.8889   -7.0163 C.3     1  UNL1        0.0439
     15 O         -28.2022   50.7003   -8.4532 O.3     1  UNL1       -0.4824
     16 H         -31.7517   49.1195  -11.6882 H       1  UNL1        0.1686
     17 H         -27.3191   53.0406  -13.3557 H       1  UNL1        0.1072
     18 N         -24.8646   51.2600  -10.7193 N.am    1  UNL1       -0.2805
     19 C         -26.1321   51.7842  -10.2901 C.2     1  UNL1        0.2530
     20 O         -26.1823   52.7520   -9.4833 O.2     1  UNL1       -0.2697
     21 H         -24.8569   50.4978  -11.4329 H       1  UNL1        0.1552
     22 C         -24.0737   50.6260   -7.9855 C.3     1  UNL1        0.0323
     23 C         -23.2054   51.4551   -8.8927 C.ar    1  UNL1       -0.0084
     24 C         -21.9894   51.9677   -8.4091 C.ar    1  UNL1        0.0008
     25 C         -21.1504   52.7331   -9.2355 C.ar    1  UNL1        0.0712
     26 C         -21.5691   53.0328  -10.5404 C.ar    1  UNL1        0.0051
     27 C         -22.7791   52.5365  -11.0274 C.ar    1  UNL1        0.0143
     28 C         -23.6011   51.7334  -10.2199 C.ar    1  UNL1        0.0465
     29 C         -19.8692   53.3145   -8.6917 C.3     1  UNL1        0.4186
     30 F         -19.6062   54.5432   -9.2726 F       1  UNL1       -0.1659
     31 F         -18.8247   52.4523   -8.9687 F       1  UNL1       -0.1659
     32 F         -19.9543   53.4941   -7.3218 F       1  UNL1       -0.1659
     33 N         -31.5828   49.3657  -14.5053 N.pl3   1  UNL1       -0.2816
     34 H         -32.5425   49.7760  -14.4610 H       1  UNL1        0.1551
     35 C         -31.2855   48.4163  -15.5406 C.ar    1  UNL1        0.0889
     36 C         -30.9913   47.0770  -15.2199 C.ar    1  UNL1        0.1543
     37 F         -30.9695   46.6646  -13.9274 F       1  UNL1       -0.2028
     38 C         -30.6828   46.1628  -16.2317 C.ar    1  UNL1        0.0310
     39 C         -30.6520   46.5759  -17.5649 C.ar    1  UNL1        0.0033
     40 C         -30.9224   47.9067  -17.8912 C.ar    1  UNL1        0.0128
     41 C         -31.2318   48.8304  -16.8859 C.ar    1  UNL1        0.0733
     42 CL        -31.5839   50.4926  -17.3401 Cl      1  UNL1       -0.0809
@<TRIPOS>BOND
     1    22    23    1
     2    23    24   ar
     3    24    25   ar
     4    25    29    1
     5    29    30    1
     6    29    31    1
     7    29    32    1
     8    25    26   ar
     9    26    27   ar
    10    27    28   ar
    11    28    18    1
    12    18    19   am
    13    19    20    2
    14    19     1    1
    15     1     2   ar
    16     2     3   ar
    17     3     4   ar
    18     4     5   ar
    19     5     6   ar
    20     6    33    1
    21    33    35    1
    22    35    36   ar
    23    36    37    1
    24    36    38   ar
    25    38    39   ar
    26    39    40   ar
    27    40    41   ar
    28    41    42    1
    29     6     7   ar
    30     7     8   ar
    31     8     9   ar
    32     9    10    1
    33     3    11    1
    34    11    12    1
    35    12    13    1
    36    12    14    1
    37    12    15    1
    38    28    23   ar
    39     9     1   ar
    40    15     2    1
    41     8     4   ar
    42    41    35   ar
    43    18    21    1
    44     5    16    1
    45    33    34    1
    46    10    17    1
@<TRIPOS>MOLECULE
*****
 42 46 0 0 0
SMALL
GASTEIGER

@<TRIPOS>ATOM
      1 C         -26.9416   51.2546   -9.7699 C.ar    1  UNL1        0.0942
      2 C         -27.8443   50.9266   -8.7307 C.ar    1  UNL1        0.1405
      3 C         -29.0562   50.3341   -8.9725 C.ar    1  UNL1        0.0325
      4 C         -29.4142   50.0472  -10.2808 C.ar    1  UNL1        0.0760
      5 N         -30.5403   49.4991  -10.7497 N.ar    1  UNL1       -0.3255
      6 C         -30.3480   49.4909  -12.0939 C.ar    1  UNL1        0.1984
      7 N         -29.1600   50.0235  -12.4873 N.ar    1  UNL1       -0.2132
      8 C         -28.5828   50.3600  -11.3186 C.ar    1  UNL1        0.1051
      9 C         -27.3334   50.9733  -11.1147 C.ar    1  UNL1        0.0480
     10 S         -26.3380   51.4512  -12.5320 S.3     1  UNL1       -0.1397
     11 C         -29.7893   50.0998   -7.7034 C.3     1  UNL1        0.0709
     12 C         -28.7898   50.6591   -6.6353 C.3     1  UNL1        0.1375
     13 C         -29.4027   51.8331   -5.8603 C.3     1  UNL1        0.0439
     14 C         -28.3352   49.5582   -5.6680 C.3     1  UNL1        0.0439
     15 O         -27.6588   51.1270   -7.3784 O.3     1  UNL1       -0.4824
     16 H         -31.3750   49.1875  -10.2054 H       1  UNL1        0.1686
     17 H         -26.9467   52.7182  -12.5988 H       1  UNL1        0.1072
     18 N         -24.4258   51.3843   -9.9952 N.am    1  UNL1       -0.2805
     19 C         -25.6509   51.8849   -9.4347 C.2     1  UNL1        0.2530
     20 O         -25.6350   52.8583   -8.6332 O.2     1  UNL1       -0.2697
     21 H         -24.4783   50.6164  -10.7008 H       1  UNL1        0.1552
     22 C         -22.9779   53.0778  -11.8759 C.3     1  UNL1        0.0323
     23 C         -22.3981   52.6950  -10.5410 C.ar    1  UNL1       -0.0084
     24 C         -21.1105   53.1376  -10.1927 C.ar    1  UNL1        0.0008
     25 C         -20.5474   52.8089   -8.9487 C.ar    1  UNL1        0.0712
     26 C         -21.2648   51.9790   -8.0744 C.ar    1  UNL1        0.0051
     27 C         -22.5404   51.5265   -8.4144 C.ar    1  UNL1        0.0143
     28 C         -23.1266   51.8888   -9.6383 C.ar    1  UNL1        0.0465
     29 C         -19.1475   53.2529   -8.6045 C.3     1  UNL1        0.4186
     30 F         -19.0804   54.6330   -8.5212 F       1  UNL1       -0.1659
     31 F         -18.2777   52.8179   -9.5870 F       1  UNL1       -0.1659
     32 F         -18.7514   52.7272   -7.3867 F       1  UNL1       -0.1659
     33 N         -31.3245   49.0233  -13.0331 N.pl3   1  UNL1       -0.2816
     34 H         -32.3196   49.3048  -12.8847 H       1  UNL1        0.1551
     35 C         -31.0160   48.1169  -14.1030 C.ar    1  UNL1        0.0889
     36 C         -31.0288   48.5581  -15.4403 C.ar    1  UNL1        0.1543
     37 F         -31.3467   49.8424  -15.7413 F       1  UNL1       -0.2028
     38 C         -30.7471   47.6650  -16.4784 C.ar    1  UNL1        0.0310
     39 C         -30.4644   46.3274  -16.1957 C.ar    1  UNL1        0.0033
     40 C         -30.4694   45.8757  -14.8742 C.ar    1  UNL1        0.0128
     41 C         -30.7506   46.7613  -13.8272 C.ar    1  UNL1        0.0733
     42 CL        -30.7289   46.1570  -12.1758 Cl      1  UNL1       -0.0809
@<TRIPOS>BOND
     1    22    23    1
     2    23    24   ar
     3    24    25   ar
     4    25    29    1
     5    29    30    1
     6    29    31    1
     7    29    32    1
     8    25    26   ar
     9    26    27   ar
    10    27    28   ar
    11    28    18    1
    12    18    19   am
    13    19    20    2
    14    19     1    1
    15     1     2   ar
    16     2     3   ar
    17     3     4   ar
    18     4     5   ar
    19     5     6   ar
    20     6    33    1
    21    33    35    1
    22    35    36   ar
    23    36    37    1
    24    36    38   ar
    25    38    39   ar
    26    39    40   ar
    27    40    41   ar
    28    41    42    1
    29     6     7   ar
    30     7     8   ar
    31     8     9   ar
    32     9    10    1
    33     3    11    1
    34    11    12    1
    35    12    13    1
    36    12    14    1
    37    12    15    1
    38    28    23   ar
    39     9     1   ar
    40    15     2    1
    41     8     4   ar
    42    41    35   ar
    43    18    21    1
    44     5    16    1
    45    33    34    1
    46    10    17    1
@<TRIPOS>MOLECULE
*****
 42 46 0 0 0
SMALL
GASTEIGER

@<TRIPOS>ATOM
      1 C         -28.2752   47.7283   -7.7834 C.ar    1  UNL1        0.0942
      2 C         -29.1316   46.7476   -7.2291 C.ar    1  UNL1        0.1405
      3 C         -29.9889   46.0044   -7.9979 C.ar    1  UNL1        0.0325
      4 C         -30.0222   46.2206   -9.3669 C.ar    1  UNL1        0.0760
      5 N         -30.7844   45.6372  -10.2980 N.ar    1  UNL1       -0.3255
      6 C         -30.4110   46.2619  -11.4444 C.ar    1  UNL1        0.1984
      7 N         -29.4618   47.2202  -11.2698 N.ar    1  UNL1       -0.2132
      8 C         -29.2256   47.1677   -9.9455 C.ar    1  UNL1        0.1051
      9 C         -28.3363   47.9556   -9.1925 C.ar    1  UNL1        0.0480
     10 S         -27.3958   49.2534  -10.0043 S.3     1  UNL1       -0.1397
     11 C         -30.7576   45.0527   -7.1576 C.3     1  UNL1        0.0709
     12 C         -30.2023   45.3528   -5.7244 C.3     1  UNL1        0.1375
     13 C         -31.3117   45.8561   -4.7915 C.3     1  UNL1        0.0439
     14 C         -29.5165   44.1186   -5.1234 C.3     1  UNL1        0.0439
     15 O         -29.2309   46.3899   -5.9004 O.3     1  UNL1       -0.4824
     16 H         -31.5131   44.9024  -10.1598 H       1  UNL1        0.1686
     17 H         -28.4144   50.1999   -9.7875 H       1  UNL1        0.1072
     18 N         -27.8903   49.1803   -5.7486 N.am    1  UNL1       -0.2805
     19 C         -27.3731   48.4858   -6.8957 C.2     1  UNL1        0.2530
     20 O         -26.1428   48.5318   -7.1683 O.2     1  UNL1       -0.2697
     21 H         -28.9029   49.0738   -5.5168 H       1  UNL1        0.1552
     22 C         -27.4309   51.9639   -6.4844 C.3     1  UNL1        0.0323
     23 C         -26.8321   51.3601   -5.2429 C.ar    1  UNL1       -0.0084
     24 C         -26.0026   52.1437   -4.4224 C.ar    1  UNL1        0.0008
     25 C         -25.4402   51.6133   -3.2498 C.ar    1  UNL1        0.0712
     26 C         -25.6686   50.2657   -2.9342 C.ar    1  UNL1        0.0051
     27 C         -26.4833   49.4762   -3.7470 C.ar    1  UNL1        0.0143
     28 C         -27.0844   50.0140   -4.8969 C.ar    1  UNL1        0.0465
     29 C         -24.5162   52.4508   -2.4012 C.3     1  UNL1        0.4186
     30 F         -23.4100   51.7148   -2.0128 F       1  UNL1       -0.1659
     31 F         -25.1938   52.8750   -1.2734 F       1  UNL1       -0.1659
     32 F         -24.0730   53.5580   -3.1040 F       1  UNL1       -0.1659
     33 N         -30.9980   45.9915  -12.7237 N.pl3   1  UNL1       -0.2816
     34 H         -31.5267   45.0980  -12.8400 H       1  UNL1        0.1551
     35 C         -30.8141   46.8385  -13.8684 C.ar    1  UNL1        0.0889
     36 C         -30.3652   46.3018  -15.0906 C.ar    1  UNL1        0.1543
     37 F         -30.0853   44.9790  -15.2031 F       1  UNL1       -0.2028
     38 C         -30.1690   47.1359  -16.1953 C.ar    1  UNL1        0.0310
     39 C         -30.4046   48.5079  -16.0892 C.ar    1  UNL1        0.0033
     40 C         -30.8303   49.0525  -14.8757 C.ar    1  UNL1        0.0128
     41 C         -31.0294   48.2266  -13.7631 C.ar    1  UNL1        0.0733
     42 CL        -31.5835   48.9490  -12.2584 Cl      1  UNL1       -0.0809
@<TRIPOS>BOND
     1    22    23    1
     2    23    24   ar
     3    24    25   ar
     4    25    29    1
     5    29    30    1
     6    29    31    1
     7    29    32    1
     8    25    26   ar
     9    26    27   ar
    10    27    28   ar
    11    28    18    1
    12    18    19   am
    13    19    20    2
    14    19     1    1
    15     1     2   ar
    16     2     3   ar
    17     3     4   ar
    18     4     5   ar
    19     5     6   ar
    20     6    33    1
    21    33    35    1
    22    35    36   ar
    23    36    37    1
    24    36    38   ar
    25    38    39   ar
    26    39    40   ar
    27    40    41   ar
    28    41    42    1
    29     6     7   ar
    30     7     8   ar
    31     8     9   ar
    32     9    10    1
    33     3    11    1
    34    11    12    1
    35    12    13    1
    36    12    14    1
    37    12    15    1
    38    28    23   ar
    39     9     1   ar
    40    15     2    1
    41     8     4   ar
    42    41    35   ar
    43    18    21    1
    44     5    16    1
    45    33    34    1
    46    10    17    1
@<TRIPOS>MOLECULE
*****
 42 46 0 0 0
SMALL
GASTEIGER

@<TRIPOS>ATOM
      1 C         -20.6721   54.6225  -10.1482 C.ar    1  UNL1        0.0942
      2 C         -19.8599   53.4666  -10.2305 C.ar    1  UNL1        0.1405
      3 C         -20.3812   52.2193  -10.4559 C.ar    1  UNL1        0.0325
      4 C         -21.7525   52.0818  -10.6066 C.ar    1  UNL1        0.0760
      5 N         -22.4753   50.9751  -10.8092 N.ar    1  UNL1       -0.3255
      6 C         -23.7516   51.4373  -10.8454 C.ar    1  UNL1        0.1984
      7 N         -23.8605   52.7801  -10.6587 N.ar    1  UNL1       -0.2132
      8 C         -22.5785   53.1664  -10.5191 C.ar    1  UNL1        0.1051
      9 C         -22.0853   54.4625  -10.2833 C.ar    1  UNL1        0.0480
     10 S         -23.2370   55.8257  -10.0760 S.3     1  UNL1       -0.1397
     11 C         -19.3037   51.1995  -10.5000 C.3     1  UNL1        0.0709
     12 C         -18.0195   52.0637  -10.2625 C.3     1  UNL1        0.1375
     13 C         -17.2931   51.6405   -8.9789 C.3     1  UNL1        0.0439
     14 C         -17.0688   51.9901  -11.4647 C.3     1  UNL1        0.0439
     15 O         -18.4863   53.4094  -10.1155 O.3     1  UNL1       -0.4824
     16 H         -22.1322   49.9920  -10.8854 H       1  UNL1        0.1686
     17 H         -23.3254   55.6091   -8.6883 H       1  UNL1        0.1072
     18 N         -20.0436   56.5189   -8.5972 N.am    1  UNL1       -0.2805
     19 C         -20.0411   55.9343   -9.9102 C.2     1  UNL1        0.2530
     20 O         -19.5155   56.5455  -10.8799 O.2     1  UNL1       -0.2697
     21 H         -20.4335   55.9618   -7.8049 H       1  UNL1        0.1552
     22 C         -18.2686   56.9075   -6.3169 C.3     1  UNL1        0.0323
     23 C         -18.6864   58.0495   -7.2034 C.ar    1  UNL1       -0.0084
     24 C         -18.2367   59.3497   -6.9160 C.ar    1  UNL1        0.0008
     25 C         -18.5977   60.4341   -7.7325 C.ar    1  UNL1        0.0712
     26 C         -19.4661   60.2142   -8.8120 C.ar    1  UNL1        0.0051
     27 C         -19.9258   58.9285   -9.1006 C.ar    1  UNL1        0.0143
     28 C         -19.5322   57.8335   -8.3140 C.ar    1  UNL1        0.0465
     29 C         -18.1449   61.8312   -7.3883 C.3     1  UNL1        0.4186
     30 F         -18.8610   62.7681   -8.1132 F       1  UNL1       -0.1659
     31 F         -16.8015   61.9607   -7.6873 F       1  UNL1       -0.1659
     32 F         -18.3342   62.0907   -6.0418 F       1  UNL1       -0.1659
     33 N         -24.8982   50.5920  -11.0036 N.pl3   1  UNL1       -0.2816
     34 H         -24.8386   49.8117  -11.6957 H       1  UNL1        0.1551
     35 C         -26.1454   50.8241  -10.3311 C.ar    1  UNL1        0.0889
     36 C         -27.2898   51.2056  -11.0577 C.ar    1  UNL1        0.1543
     37 F         -27.2299   51.3743  -12.4027 F       1  UNL1       -0.2028
     38 C         -28.4957   51.4495  -10.3938 C.ar    1  UNL1        0.0310
     39 C         -28.5687   51.3289   -9.0048 C.ar    1  UNL1        0.0033
     40 C         -27.4341   50.9709   -8.2734 C.ar    1  UNL1        0.0128
     41 C         -26.2215   50.7249   -8.9280 C.ar    1  UNL1        0.0733
     42 CL        -24.8206   50.2588   -7.9723 Cl      1  UNL1       -0.0809
@<TRIPOS>BOND
     1    22    23    1
     2    23    24   ar
     3    24    25   ar
     4    25    29    1
     5    29    30    1
     6    29    31    1
     7    29    32    1
     8    25    26   ar
     9    26    27   ar
    10    27    28   ar
    11    28    18    1
    12    18    19   am
    13    19    20    2
    14    19     1    1
    15     1     2   ar
    16     2     3   ar
    17     3     4   ar
    18     4     5   ar
    19     5     6   ar
    20     6    33    1
    21    33    35    1
    22    35    36   ar
    23    36    37    1
    24    36    38   ar
    25    38    39   ar
    26    39    40   ar
    27    40    41   ar
    28    41    42    1
    29     6     7   ar
    30     7     8   ar
    31     8     9   ar
    32     9    10    1
    33     3    11    1
    34    11    12    1
    35    12    13    1
    36    12    14    1
    37    12    15    1
    38    28    23   ar
    39     9     1   ar
    40    15     2    1
    41     8     4   ar
    42    41    35   ar
    43    18    21    1
    44     5    16    1
    45    33    34    1
    46    10    17    1
@<TRIPOS>MOLECULE
*****
 42 46 0 0 0
SMALL
GASTEIGER

@<TRIPOS>ATOM
      1 C         -20.6872   54.6216  -10.1656 C.ar    1  UNL1        0.0942
      2 C         -19.8788   53.4633  -10.2505 C.ar    1  UNL1        0.1405
      3 C         -20.4041   52.2182  -10.4785 C.ar    1  UNL1        0.0325
      4 C         -21.7759   52.0854  -10.6291 C.ar    1  UNL1        0.0760
      5 N         -22.5023   50.9814  -10.8337 N.ar    1  UNL1       -0.3255
      6 C         -23.7771   51.4478  -10.8686 C.ar    1  UNL1        0.1984
      7 N         -23.8817   52.7905  -10.6791 N.ar    1  UNL1       -0.2132
      8 C         -22.5984   53.1724  -10.5390 C.ar    1  UNL1        0.1051
      9 C         -22.1010   54.4664  -10.3007 C.ar    1  UNL1        0.0480
     10 S         -23.2483   55.8328  -10.0901 S.3     1  UNL1       -0.1397
     11 C         -19.3300   51.1949  -10.5250 C.3     1  UNL1        0.0709
     12 C         -18.0430   52.0546  -10.2861 C.3     1  UNL1        0.1375
     13 C         -17.3175   51.6263   -9.0035 C.3     1  UNL1        0.0439
     14 C         -17.0928   51.9804  -11.4887 C.3     1  UNL1        0.0439
     15 O         -18.5054   53.4014  -10.1360 O.3     1  UNL1       -0.4824
     16 H         -22.1624   49.9973  -10.9121 H       1  UNL1        0.1686
     17 H         -23.3369   55.6137   -8.7029 H       1  UNL1        0.1072
     18 N         -20.0521   56.5127   -8.6108 N.am    1  UNL1       -0.2805
     19 C         -20.0520   55.9308   -9.9250 C.2     1  UNL1        0.2530
     20 O         -19.5248   56.5425  -10.8936 O.2     1  UNL1       -0.2697
     21 H         -20.4436   55.9551   -7.8195 H       1  UNL1        0.1552
     22 C         -18.2854   56.8931   -6.3227 C.3     1  UNL1        0.0323
     23 C         -18.6945   58.0371   -7.2106 C.ar    1  UNL1       -0.0084
     24 C         -18.2407   59.3353   -6.9209 C.ar    1  UNL1        0.0008
     25 C         -18.5935   60.4214   -7.7385 C.ar    1  UNL1        0.0712
     26 C         -19.4581   60.2056   -8.8219 C.ar    1  UNL1        0.0051
     27 C         -19.9220   58.9219   -9.1129 C.ar    1  UNL1        0.0143
     28 C         -19.5364   57.8250   -8.3250 C.ar    1  UNL1        0.0465
     29 C         -18.1364   61.8165   -7.3920 C.3     1  UNL1        0.4186
     30 F         -18.8511   62.7570   -8.1135 F       1  UNL1       -0.1659
     31 F         -16.7931   61.9431   -7.6930 F       1  UNL1       -0.1659
     32 F         -18.3226   62.0735   -6.0445 F       1  UNL1       -0.1659
     33 N         -24.9265   50.6065  -11.0283 N.pl3   1  UNL1       -0.2816
     34 H         -24.9271   49.9245  -11.8196 H       1  UNL1        0.1551
     35 C         -26.1053   50.7228  -10.2167 C.ar    1  UNL1        0.0889
     36 C         -26.0507   50.4604   -8.8343 C.ar    1  UNL1        0.1543
     37 F         -24.8875   50.0795   -8.2486 F       1  UNL1       -0.2028
     38 C         -27.2067   50.5559   -8.0539 C.ar    1  UNL1        0.0310
     39 C         -28.4247   50.8994   -8.6434 C.ar    1  UNL1        0.0033
     40 C         -28.4931   51.1417  -10.0172 C.ar    1  UNL1        0.0128
     41 C         -27.3417   51.0483  -10.8080 C.ar    1  UNL1        0.0733
     42 CL        -27.4666   51.3788  -12.5308 Cl      1  UNL1       -0.0809
@<TRIPOS>BOND
     1    22    23    1
     2    23    24   ar
     3    24    25   ar
     4    25    29    1
     5    29    30    1
     6    29    31    1
     7    29    32    1
     8    25    26   ar
     9    26    27   ar
    10    27    28   ar
    11    28    18    1
    12    18    19   am
    13    19    20    2
    14    19     1    1
    15     1     2   ar
    16     2     3   ar
    17     3     4   ar
    18     4     5   ar
    19     5     6   ar
    20     6    33    1
    21    33    35    1
    22    35    36   ar
    23    36    37    1
    24    36    38   ar
    25    38    39   ar
    26    39    40   ar
    27    40    41   ar
    28    41    42    1
    29     6     7   ar
    30     7     8   ar
    31     8     9   ar
    32     9    10    1
    33     3    11    1
    34    11    12    1
    35    12    13    1
    36    12    14    1
    37    12    15    1
    38    28    23   ar
    39     9     1   ar
    40    15     2    1
    41     8     4   ar
    42    41    35   ar
    43    18    21    1
    44     5    16    1
    45    33    34    1
    46    10    17    1
@<TRIPOS>MOLECULE
*****
 42 46 0 0 0
SMALL
GASTEIGER

@<TRIPOS>ATOM
      1 C         -28.5100   48.5910   -8.2989 C.ar    1  UNL1        0.0942
      2 C         -29.4064   47.5880   -7.8596 C.ar    1  UNL1        0.1405
      3 C         -30.3331   47.0175   -8.6927 C.ar    1  UNL1        0.0325
      4 C         -30.3987   47.4378  -10.0123 C.ar    1  UNL1        0.0760
      5 N         -31.2261   47.0440  -10.9862 N.ar    1  UNL1       -0.3255
      6 C         -30.8533   47.8113  -12.0426 C.ar    1  UNL1        0.1984
      7 N         -29.8414   48.6779  -11.7689 N.ar    1  UNL1       -0.2132
      8 C         -29.5649   48.4146  -10.4780 C.ar    1  UNL1        0.1051
      9 C         -28.6040   49.0298   -9.6552 C.ar    1  UNL1        0.0480
     10 S         -27.6128   50.3797  -10.3057 S.3     1  UNL1       -0.1397
     11 C         -31.1307   45.9954   -7.9703 C.3     1  UNL1        0.0709
     12 C         -30.5103   46.0459   -6.5332 C.3     1  UNL1        0.1375
     13 C         -31.5548   46.4654   -5.4903 C.3     1  UNL1        0.0439
     14 C         -29.8824   44.6992   -6.1503 C.3     1  UNL1        0.0439
     15 O         -29.4832   47.0416   -6.5952 O.3     1  UNL1       -0.4824
     16 H         -31.9938   46.3388  -10.9272 H       1  UNL1        0.1686
     17 H         -28.5632   51.3386   -9.9090 H       1  UNL1        0.1072
     18 N         -27.9697   49.7084   -6.0952 N.am    1  UNL1       -0.2805
     19 C         -27.5338   49.1553   -7.3480 C.2     1  UNL1        0.2530
     20 O         -26.3115   49.1633   -7.6583 O.2     1  UNL1       -0.2697
     21 H         -28.9800   49.6329   -5.8422 H       1  UNL1        0.1552
     22 C         -27.0634   48.2673   -3.7281 C.3     1  UNL1        0.0323
     23 C         -26.6486   49.6877   -4.0019 C.ar    1  UNL1       -0.0084
     24 C         -25.8239   50.3578   -3.0822 C.ar    1  UNL1        0.0008
     25 C         -25.4082   51.6789   -3.3162 C.ar    1  UNL1        0.0712
     26 C         -25.8760   52.3480   -4.4570 C.ar    1  UNL1        0.0051
     27 C         -26.7027   51.6947   -5.3720 C.ar    1  UNL1        0.0143
     28 C         -27.0853   50.3591   -5.1655 C.ar    1  UNL1        0.0465
     29 C         -24.5595   52.4022   -2.3004 C.3     1  UNL1        0.4186
     30 F         -24.0802   53.5909   -2.8234 F       1  UNL1       -0.1659
     31 F         -23.4895   51.6009   -1.9482 F       1  UNL1       -0.1659
     32 F         -25.2957   52.6957   -1.1655 F       1  UNL1       -0.1659
     33 N         -31.4983   47.7689  -13.3219 N.pl3   1  UNL1       -0.2816
     34 H         -32.4846   47.4269  -13.3611 H       1  UNL1        0.1551
     35 C         -30.8269   48.0811  -14.5521 C.ar    1  UNL1        0.0889
     36 C         -30.6923   49.4179  -14.9742 C.ar    1  UNL1        0.1543
     37 F         -31.2069   50.4316  -14.2335 F       1  UNL1       -0.2028
     38 C         -30.0551   49.7131  -16.1831 C.ar    1  UNL1        0.0310
     39 C         -29.5602   48.6830  -16.9851 C.ar    1  UNL1        0.0033
     40 C         -29.7070   47.3531  -16.5849 C.ar    1  UNL1        0.0128
     41 C         -30.3437   47.0463  -15.3766 C.ar    1  UNL1        0.0733
     42 CL        -30.4922   45.3599  -14.9000 Cl      1  UNL1       -0.0809
@<TRIPOS>BOND
     1    22    23    1
     2    23    24   ar
     3    24    25   ar
     4    25    29    1
     5    29    30    1
     6    29    31    1
     7    29    32    1
     8    25    26   ar
     9    26    27   ar
    10    27    28   ar
    11    28    18    1
    12    18    19   am
    13    19    20    2
    14    19     1    1
    15     1     2   ar
    16     2     3   ar
    17     3     4   ar
    18     4     5   ar
    19     5     6   ar
    20     6    33    1
    21    33    35    1
    22    35    36   ar
    23    36    37    1
    24    36    38   ar
    25    38    39   ar
    26    39    40   ar
    27    40    41   ar
    28    41    42    1
    29     6     7   ar
    30     7     8   ar
    31     8     9   ar
    32     9    10    1
    33     3    11    1
    34    11    12    1
    35    12    13    1
    36    12    14    1
    37    12    15    1
    38    28    23   ar
    39     9     1   ar
    40    15     2    1
    41     8     4   ar
    42    41    35   ar
    43    18    21    1
    44     5    16    1
    45    33    34    1
    46    10    17    1
