@<TRIPOS>MOLECULE
*****
 46 51 0 0 0
SMALL
GASTEIGER

@<TRIPOS>ATOM
      1 O         -65.2866  -40.8605  -21.7990 O.2     1  UNL1       -0.2701
      2 C         -64.1603  -40.7327  -22.3521 C.2     1  UNL1        0.2483
      3 N         -63.0487  -40.1909  -21.6114 N.am    1  UNL1       -0.2945
      4 H         -62.1806  -39.9444  -22.1370 H       1  UNL1        0.1501
      5 C         -64.0235  -41.0794  -23.7851 C.ar    1  UNL1        0.0808
      6 C         -63.0947  -42.0607  -24.1683 C.ar    1  UNL1        0.0080
      7 C         -62.9523  -42.4215  -25.5097 C.ar    1  UNL1        0.0148
      8 C         -63.7300  -41.8021  -26.5024 C.ar    1  UNL1        0.0502
      9 C         -64.6448  -40.8058  -26.1225 C.ar    1  UNL1        0.0443
     10 C         -64.7931  -40.4452  -24.7796 C.ar    1  UNL1        0.1457
     11 F         -65.6608  -39.4503  -24.4691 F       1  UNL1       -0.2040
     12 N         -63.5801  -42.1700  -27.8907 N.pl3   1  UNL1       -0.3040
     13 C         -63.8617  -41.1871  -28.9501 C.3     1  UNL1        0.1122
     14 C         -62.9270  -41.3935  -30.1506 C.3     1  UNL1        0.1122
     15 N         -62.7891  -42.8152  -30.5000 N.pl3   1  UNL1       -0.3040
     16 C         -63.5250  -43.8277  -29.7346 C.3     1  UNL1        0.1122
     17 C         -63.3239  -43.5784  -28.2395 C.3     1  UNL1        0.1122
     18 C         -61.8629  -43.2058  -31.5307 C.ar    1  UNL1        0.0488
     19 C         -62.1999  -43.0520  -32.8863 C.ar    1  UNL1        0.0146
     20 C         -61.2943  -43.4219  -33.8851 C.ar    1  UNL1        0.0021
     21 C         -60.0446  -43.9432  -33.5407 C.ar    1  UNL1        0.0115
     22 C         -59.6967  -44.0946  -32.1949 C.ar    1  UNL1        0.0589
     23 CL        -58.1240  -44.7402  -31.7628 Cl      1  UNL1       -0.0822
     24 C         -60.6013  -43.7261  -31.1928 C.ar    1  UNL1        0.0259
     25 C         -63.0987  -39.7676  -20.2020 C.3     1  UNL1        0.1535
     26 C         -64.4005  -39.0614  -19.8484 C.2     1  UNL1        0.2443
     27 O         -65.4011  -39.7445  -19.5014 O.2     1  UNL1       -0.2730
     28 N         -64.5267  -37.6279  -19.8634 N.am    1  UNL1       -0.2825
     29 H         -65.4815  -37.2305  -20.0142 H       1  UNL1        0.1549
     30 C         -63.4268  -36.7100  -19.7765 C.ar    1  UNL1        0.0535
     31 C         -62.5307  -36.5462  -20.8430 C.ar    1  UNL1        0.0353
     32 C         -61.4820  -35.6311  -20.7240 C.ar    1  UNL1        0.1002
     33 N         -61.3255  -34.9176  -19.5772 N.ar    1  UNL1       -0.2422
     34 C         -62.1668  -35.0740  -18.5207 C.ar    1  UNL1        0.1002
     35 C         -63.2250  -35.9824  -18.5968 C.ar    1  UNL1        0.0353
     36 C         -62.7292  -40.9345  -19.2525 C.3     1  UNL1        0.0569
     37 C         -62.6532  -42.2793  -19.9221 C.ar    1  UNL1       -0.0017
     38 C         -63.6354  -43.2667  -19.9295 C.ar    1  UNL1        0.0681
     39 N         -63.2379  -44.3237  -20.6737 N.ar    1  UNL1       -0.3523
     40 C         -62.0139  -44.0150  -21.1351 C.ar    1  UNL1        0.0563
     41 C         -61.2062  -44.7871  -21.9691 C.ar    1  UNL1        0.0170
     42 C         -59.9590  -44.2589  -22.3494 C.ar    1  UNL1        0.0015
     43 C         -59.5504  -42.9874  -21.8901 C.ar    1  UNL1        0.0001
     44 C         -60.3853  -42.2324  -21.0471 C.ar    1  UNL1        0.0012
     45 C         -61.6192  -42.7788  -20.6924 C.ar    1  UNL1        0.0131
     46 H         -63.7794  -45.1975  -20.8571 H       1  UNL1        0.1660
@<TRIPOS>BOND
     1     1     2    2
     2     2     3   am
     3     3    25    1
     4    25    36    1
     5    36    37    1
     6    37    38   ar
     7    38    39   ar
     8    39    40   ar
     9    40    41   ar
    10    41    42   ar
    11    42    43   ar
    12    43    44   ar
    13    44    45   ar
    14    25    26    1
    15    26    27    2
    16    26    28   am
    17    28    30    1
    18    30    31   ar
    19    31    32   ar
    20    32    33   ar
    21    33    34   ar
    22    34    35   ar
    23     2     5    1
    24     5     6   ar
    25     6     7   ar
    26     7     8   ar
    27     8    12    1
    28    12    13    1
    29    13    14    1
    30    14    15    1
    31    15    18    1
    32    18    19   ar
    33    19    20   ar
    34    20    21   ar
    35    21    22   ar
    36    22    23    1
    37    22    24   ar
    38    15    16    1
    39    16    17    1
    40     8     9   ar
    41     9    10   ar
    42    10    11    1
    43    45    37   ar
    44    35    30   ar
    45    10     5   ar
    46    45    40   ar
    47    17    12    1
    48    24    18   ar
    49     3     4    1
    50    39    46    1
    51    28    29    1
@<TRIPOS>MOLECULE
*****
 46 51 0 0 0
SMALL
GASTEIGER

@<TRIPOS>ATOM
      1 O         -63.3461  -39.4145  -21.8833 O.2     1  UNL1       -0.2701
      2 C         -63.6228  -40.6125  -22.1645 C.2     1  UNL1        0.2483
      3 N         -63.9183  -41.5522  -21.1121 N.am    1  UNL1       -0.2945
      4 H         -63.9805  -42.5648  -21.3597 H       1  UNL1        0.1501
      5 C         -63.5670  -41.0466  -23.5789 C.ar    1  UNL1        0.0808
      6 C         -62.7380  -42.1232  -23.9343 C.ar    1  UNL1        0.0080
      7 C         -62.6746  -42.5670  -25.2567 C.ar    1  UNL1        0.0148
      8 C         -63.4326  -41.9379  -26.2584 C.ar    1  UNL1        0.0502
      9 C         -64.2464  -40.8477  -25.9076 C.ar    1  UNL1        0.0443
     10 C         -64.3158  -40.4036  -24.5836 C.ar    1  UNL1        0.1457
     11 F         -65.0853  -39.3226  -24.3034 F       1  UNL1       -0.2040
     12 N         -63.3639  -42.3918  -27.6275 N.pl3   1  UNL1       -0.3040
     13 C         -63.9852  -41.5986  -28.7011 C.3     1  UNL1        0.1122
     14 C         -63.1736  -41.7053  -30.0001 C.3     1  UNL1        0.1122
     15 N         -62.7534  -43.0880  -30.2720 N.pl3   1  UNL1       -0.3040
     16 C         -63.1424  -44.1616  -29.3508 C.3     1  UNL1        0.1122
     17 C         -62.8324  -43.7354  -27.9155 C.3     1  UNL1        0.1122
     18 C         -61.8879  -43.3595  -31.3900 C.ar    1  UNL1        0.0488
     19 C         -62.3276  -43.1254  -32.7041 C.ar    1  UNL1        0.0146
     20 C         -61.4812  -43.3796  -33.7874 C.ar    1  UNL1        0.0021
     21 C         -60.1891  -43.8644  -33.5693 C.ar    1  UNL1        0.0115
     22 C         -59.7394  -44.0950  -32.2656 C.ar    1  UNL1        0.0589
     23 CL        -58.1139  -44.6945  -31.9917 Cl      1  UNL1       -0.0822
     24 C         -60.5844  -43.8424  -31.1792 C.ar    1  UNL1        0.0259
     25 C         -63.9455  -41.2305  -19.6754 C.3     1  UNL1        0.1535
     26 C         -65.1615  -41.8127  -18.9677 C.2     1  UNL1        0.2443
     27 O         -65.0881  -42.0949  -17.7417 O.2     1  UNL1       -0.2730
     28 N         -66.4149  -42.0262  -19.6417 N.am    1  UNL1       -0.2825
     29 H         -67.0475  -42.7647  -19.2588 H       1  UNL1        0.1549
     30 C         -66.8164  -41.3628  -20.8495 C.ar    1  UNL1        0.0535
     31 C         -67.1758  -40.0070  -20.8491 C.ar    1  UNL1        0.0353
     32 C         -67.5460  -39.3947  -22.0489 C.ar    1  UNL1        0.1002
     33 N         -67.5708  -40.1135  -23.2027 N.ar    1  UNL1       -0.2422
     34 C         -67.2487  -41.4341  -23.2262 C.ar    1  UNL1        0.1002
     35 C         -66.8780  -42.0855  -22.0476 C.ar    1  UNL1        0.0353
     36 C         -62.5933  -41.5679  -18.9994 C.3     1  UNL1        0.0569
     37 C         -61.5303  -42.0542  -19.9461 C.ar    1  UNL1       -0.0017
     38 C         -60.3025  -41.4505  -20.2065 C.ar    1  UNL1        0.0681
     39 N         -59.5838  -42.1962  -21.0765 N.ar    1  UNL1       -0.3523
     40 C         -60.3457  -43.2638  -21.3697 C.ar    1  UNL1        0.0563
     41 C         -60.0206  -44.3285  -22.2091 C.ar    1  UNL1        0.0170
     42 C         -60.9658  -45.3595  -22.3598 C.ar    1  UNL1        0.0015
     43 C         -62.2019  -45.3020  -21.6789 C.ar    1  UNL1        0.0001
     44 C         -62.5035  -44.2137  -20.8408 C.ar    1  UNL1        0.0012
     45 C         -61.5440  -43.2098  -20.7053 C.ar    1  UNL1        0.0131
     46 H         -58.6271  -41.9854  -21.4380 H       1  UNL1        0.1660
@<TRIPOS>BOND
     1     1     2    2
     2     2     3   am
     3     3    25    1
     4    25    36    1
     5    36    37    1
     6    37    38   ar
     7    38    39   ar
     8    39    40   ar
     9    40    41   ar
    10    41    42   ar
    11    42    43   ar
    12    43    44   ar
    13    44    45   ar
    14    25    26    1
    15    26    27    2
    16    26    28   am
    17    28    30    1
    18    30    31   ar
    19    31    32   ar
    20    32    33   ar
    21    33    34   ar
    22    34    35   ar
    23     2     5    1
    24     5     6   ar
    25     6     7   ar
    26     7     8   ar
    27     8    12    1
    28    12    13    1
    29    13    14    1
    30    14    15    1
    31    15    18    1
    32    18    19   ar
    33    19    20   ar
    34    20    21   ar
    35    21    22   ar
    36    22    23    1
    37    22    24   ar
    38    15    16    1
    39    16    17    1
    40     8     9   ar
    41     9    10   ar
    42    10    11    1
    43    45    37   ar
    44    35    30   ar
    45    10     5   ar
    46    45    40   ar
    47    17    12    1
    48    24    18   ar
    49     3     4    1
    50    39    46    1
    51    28    29    1
@<TRIPOS>MOLECULE
*****
 46 51 0 0 0
SMALL
GASTEIGER

@<TRIPOS>ATOM
      1 O         -61.5877  -43.8261  -27.2186 O.2     1  UNL1       -0.2701
      2 C         -62.7273  -43.3089  -27.0617 C.2     1  UNL1        0.2483
      3 N         -63.7124  -43.3991  -28.1101 N.am    1  UNL1       -0.2945
      4 H         -64.5803  -42.8253  -28.0204 H       1  UNL1        0.1501
      5 C         -63.0045  -42.5519  -25.8199 C.ar    1  UNL1        0.0808
      6 C         -62.3596  -42.9258  -24.6296 C.ar    1  UNL1        0.0080
      7 C         -62.5875  -42.2227  -23.4448 C.ar    1  UNL1        0.0148
      8 C         -63.4741  -41.1332  -23.4201 C.ar    1  UNL1        0.0502
      9 C         -64.1354  -40.7712  -24.6056 C.ar    1  UNL1        0.0443
     10 C         -63.9061  -41.4702  -25.7948 C.ar    1  UNL1        0.1457
     11 F         -64.5988  -41.1067  -26.9025 F       1  UNL1       -0.2040
     12 N         -63.7153  -40.4085  -22.1946 N.pl3   1  UNL1       -0.3040
     13 C         -62.6429  -40.2686  -21.1955 C.3     1  UNL1        0.1122
     14 C         -62.7362  -38.9141  -20.4785 C.3     1  UNL1        0.1122
     15 N         -64.1202  -38.5852  -20.1060 N.pl3   1  UNL1       -0.3040
     16 C         -65.2008  -39.5284  -20.4142 C.3     1  UNL1        0.1122
     17 C         -65.0855  -39.9728  -21.8727 C.3     1  UNL1        0.1122
     18 C         -64.4122  -37.3008  -19.5247 C.ar    1  UNL1        0.0488
     19 C         -63.4274  -36.6057  -18.8023 C.ar    1  UNL1        0.0146
     20 C         -63.7103  -35.3538  -18.2482 C.ar    1  UNL1        0.0021
     21 C         -64.9747  -34.7829  -18.4139 C.ar    1  UNL1        0.0115
     22 C         -65.9600  -35.4631  -19.1362 C.ar    1  UNL1        0.0589
     23 CL        -67.5443  -34.7420  -19.3521 Cl      1  UNL1       -0.0822
     24 C         -65.6803  -36.7169  -19.6913 C.ar    1  UNL1        0.0259
     25 C         -63.5137  -44.0820  -29.3995 C.3     1  UNL1        0.1535
     26 C         -64.4436  -45.2741  -29.5805 C.2     1  UNL1        0.2443
     27 O         -65.2251  -45.3053  -30.5686 O.2     1  UNL1       -0.2730
     28 N         -64.4437  -46.3938  -28.6766 N.am    1  UNL1       -0.2825
     29 H         -65.3243  -46.9516  -28.6016 H       1  UNL1        0.1549
     30 C         -63.3554  -46.7430  -27.8084 C.ar    1  UNL1        0.0535
     31 C         -62.0928  -47.0733  -28.3223 C.ar    1  UNL1        0.0353
     32 C         -61.0557  -47.3925  -27.4426 C.ar    1  UNL1        0.1002
     33 N         -61.2758  -47.3964  -26.1008 N.ar    1  UNL1       -0.2422
     34 C         -62.4959  -47.1019  -25.5783 C.ar    1  UNL1        0.1002
     35 C         -63.5609  -46.7824  -26.4236 C.ar    1  UNL1        0.0353
     36 C         -63.5333  -43.0749  -30.5764 C.3     1  UNL1        0.0569
     37 C         -62.4910  -43.3314  -31.6302 C.ar    1  UNL1       -0.0017
     38 C         -62.5874  -43.0438  -32.9895 C.ar    1  UNL1        0.0681
     39 N         -61.4376  -43.3668  -33.6241 N.ar    1  UNL1       -0.3523
     40 C         -60.6163  -43.8572  -32.6800 C.ar    1  UNL1        0.0563
     41 C         -59.3061  -44.3033  -32.8490 C.ar    1  UNL1        0.0170
     42 C         -58.6158  -44.7618  -31.7122 C.ar    1  UNL1        0.0015
     43 C         -59.2443  -44.7674  -30.4474 C.ar    1  UNL1        0.0001
     44 C         -60.5683  -44.3142  -30.3078 C.ar    1  UNL1        0.0012
     45 C         -61.2253  -43.8587  -31.4515 C.ar    1  UNL1        0.0131
     46 H         -61.2309  -43.2493  -34.6409 H       1  UNL1        0.1660
@<TRIPOS>BOND
     1     1     2    2
     2     2     3   am
     3     3    25    1
     4    25    36    1
     5    36    37    1
     6    37    38   ar
     7    38    39   ar
     8    39    40   ar
     9    40    41   ar
    10    41    42   ar
    11    42    43   ar
    12    43    44   ar
    13    44    45   ar
    14    25    26    1
    15    26    27    2
    16    26    28   am
    17    28    30    1
    18    30    31   ar
    19    31    32   ar
    20    32    33   ar
    21    33    34   ar
    22    34    35   ar
    23     2     5    1
    24     5     6   ar
    25     6     7   ar
    26     7     8   ar
    27     8    12    1
    28    12    13    1
    29    13    14    1
    30    14    15    1
    31    15    18    1
    32    18    19   ar
    33    19    20   ar
    34    20    21   ar
    35    21    22   ar
    36    22    23    1
    37    22    24   ar
    38    15    16    1
    39    16    17    1
    40     8     9   ar
    41     9    10   ar
    42    10    11    1
    43    45    37   ar
    44    35    30   ar
    45    10     5   ar
    46    45    40   ar
    47    17    12    1
    48    24    18   ar
    49     3     4    1
    50    39    46    1
    51    28    29    1
@<TRIPOS>MOLECULE
*****
 46 51 0 0 0
SMALL
GASTEIGER

@<TRIPOS>ATOM
      1 O         -63.4281  -39.6100  -21.9893 O.2     1  UNL1       -0.2701
      2 C         -64.2185  -40.4859  -22.4351 C.2     1  UNL1        0.2483
      3 N         -65.2003  -41.0834  -21.5650 N.am    1  UNL1       -0.2945
      4 H         -65.7257  -41.9156  -21.9142 H       1  UNL1        0.1501
      5 C         -64.0705  -40.9358  -23.8379 C.ar    1  UNL1        0.0808
      6 C         -63.1221  -41.9251  -24.1450 C.ar    1  UNL1        0.0080
      7 C         -62.9685  -42.3822  -25.4555 C.ar    1  UNL1        0.0148
      8 C         -63.7543  -41.8534  -26.4931 C.ar    1  UNL1        0.0502
      9 C         -64.6889  -40.8491  -26.1904 C.ar    1  UNL1        0.0443
     10 C         -64.8485  -40.3922  -24.8785 C.ar    1  UNL1        0.1457
     11 F         -65.7358  -39.3936  -24.6448 F       1  UNL1       -0.2040
     12 N         -63.5929  -42.3209  -27.8498 N.pl3   1  UNL1       -0.3040
     13 C         -64.1198  -41.5273  -28.9725 C.3     1  UNL1        0.1122
     14 C         -63.2169  -41.6592  -30.2073 C.3     1  UNL1        0.1122
     15 N         -62.8015  -43.0510  -30.4366 N.pl3   1  UNL1       -0.3040
     16 C         -63.2756  -44.1096  -29.5382 C.3     1  UNL1        0.1122
     17 C         -63.0647  -43.6756  -28.0873 C.3     1  UNL1        0.1122
     18 C         -61.8610  -43.3470  -31.4856 C.ar    1  UNL1        0.0488
     19 C         -62.2014  -43.1242  -32.8308 C.ar    1  UNL1        0.0146
     20 C         -61.2822  -43.4022  -33.8468 C.ar    1  UNL1        0.0021
     21 C         -60.0155  -43.8994  -33.5299 C.ar    1  UNL1        0.0115
     22 C         -59.6643  -44.1190  -32.1944 C.ar    1  UNL1        0.0589
     23 CL        -58.0707  -44.7343  -31.7963 Cl      1  UNL1       -0.0822
     24 C         -60.5824  -43.8426  -31.1752 C.ar    1  UNL1        0.0259
     25 C         -65.3893  -40.7430  -20.1450 C.3     1  UNL1        0.1535
     26 C         -65.2527  -41.9521  -19.2296 C.2     1  UNL1        0.2443
     27 O         -66.2875  -42.4737  -18.7344 O.2     1  UNL1       -0.2730
     28 N         -63.9785  -42.5496  -18.9293 N.am    1  UNL1       -0.2825
     29 H         -63.8934  -43.0751  -18.0299 H       1  UNL1        0.1549
     30 C         -62.7969  -42.3999  -19.7302 C.ar    1  UNL1        0.0535
     31 C         -62.5062  -43.2939  -20.7711 C.ar    1  UNL1        0.0353
     32 C         -61.3535  -43.1041  -21.5371 C.ar    1  UNL1        0.1002
     33 N         -60.5151  -42.0692  -21.2636 N.ar    1  UNL1       -0.2422
     34 C         -60.7623  -41.2019  -20.2462 C.ar    1  UNL1        0.1002
     35 C         -61.9011  -41.3595  -19.4532 C.ar    1  UNL1        0.0353
     36 C         -64.5122  -39.5331  -19.7367 C.3     1  UNL1        0.0569
     37 C         -65.2130  -38.2044  -19.8136 C.ar    1  UNL1       -0.0017
     38 C         -66.4361  -37.9379  -20.4242 C.ar    1  UNL1        0.0681
     39 N         -66.7779  -36.6406  -20.2525 N.ar    1  UNL1       -0.3523
     40 C         -65.7825  -36.0843  -19.5412 C.ar    1  UNL1        0.0563
     41 C         -65.6964  -34.7654  -19.0973 C.ar    1  UNL1        0.0170
     42 C         -64.5663  -34.3974  -18.3446 C.ar    1  UNL1        0.0015
     43 C         -63.5578  -35.3439  -18.0586 C.ar    1  UNL1        0.0001
     44 C         -63.6705  -36.6668  -18.5222 C.ar    1  UNL1        0.0012
     45 C         -64.8055  -37.0045  -19.2602 C.ar    1  UNL1        0.0131
     46 H         -67.6451  -36.1722  -20.5972 H       1  UNL1        0.1660
@<TRIPOS>BOND
     1     1     2    2
     2     2     3   am
     3     3    25    1
     4    25    36    1
     5    36    37    1
     6    37    38   ar
     7    38    39   ar
     8    39    40   ar
     9    40    41   ar
    10    41    42   ar
    11    42    43   ar
    12    43    44   ar
    13    44    45   ar
    14    25    26    1
    15    26    27    2
    16    26    28   am
    17    28    30    1
    18    30    31   ar
    19    31    32   ar
    20    32    33   ar
    21    33    34   ar
    22    34    35   ar
    23     2     5    1
    24     5     6   ar
    25     6     7   ar
    26     7     8   ar
    27     8    12    1
    28    12    13    1
    29    13    14    1
    30    14    15    1
    31    15    18    1
    32    18    19   ar
    33    19    20   ar
    34    20    21   ar
    35    21    22   ar
    36    22    23    1
    37    22    24   ar
    38    15    16    1
    39    16    17    1
    40     8     9   ar
    41     9    10   ar
    42    10    11    1
    43    45    37   ar
    44    35    30   ar
    45    10     5   ar
    46    45    40   ar
    47    17    12    1
    48    24    18   ar
    49     3     4    1
    50    39    46    1
    51    28    29    1
@<TRIPOS>MOLECULE
*****
 46 51 0 0 0
SMALL
GASTEIGER

@<TRIPOS>ATOM
      1 O         -61.0035  -40.0983  -20.9458 O.2     1  UNL1       -0.2701
      2 C         -62.0829  -40.4792  -21.4753 C.2     1  UNL1        0.2483
      3 N         -63.3328  -40.2959  -20.7808 N.am    1  UNL1       -0.2945
      4 H         -64.1827  -40.7652  -21.1653 H       1  UNL1        0.1501
      5 C         -62.0324  -41.1776  -22.7799 C.ar    1  UNL1        0.0808
      6 C         -60.8508  -41.8336  -23.1620 C.ar    1  UNL1        0.0080
      7 C         -60.7757  -42.5144  -24.3788 C.ar    1  UNL1        0.0148
      8 C         -61.8790  -42.5477  -25.2480 C.ar    1  UNL1        0.0502
      9 C         -63.0547  -41.8744  -24.8760 C.ar    1  UNL1        0.0443
     10 C         -63.1349  -41.1955  -23.6562 C.ar    1  UNL1        0.1457
     11 F         -64.2781  -40.5283  -23.3612 F       1  UNL1       -0.2040
     12 N         -61.8012  -43.2464  -26.5093 N.pl3   1  UNL1       -0.3040
     13 C         -63.0190  -43.4717  -27.3056 C.3     1  UNL1        0.1122
     14 C         -62.7078  -43.4190  -28.8082 C.3     1  UNL1        0.1122
     15 N         -61.4793  -44.1560  -29.1398 N.pl3   1  UNL1       -0.3040
     16 C         -60.7331  -44.8419  -28.0791 C.3     1  UNL1        0.1122
     17 C         -60.5340  -43.8880  -26.9008 C.3     1  UNL1        0.1122
     18 C         -60.9724  -44.1202  -30.4868 C.ar    1  UNL1        0.0488
     19 C         -59.6671  -44.5583  -30.7683 C.ar    1  UNL1        0.0146
     20 C         -59.1812  -44.5327  -32.0789 C.ar    1  UNL1        0.0021
     21 C         -59.9936  -44.0751  -33.1194 C.ar    1  UNL1        0.0115
     22 C         -61.2961  -43.6427  -32.8514 C.ar    1  UNL1        0.0589
     23 CL        -62.3191  -43.0773  -34.1592 Cl      1  UNL1       -0.0822
     24 C         -61.7851  -43.6663  -31.5405 C.ar    1  UNL1        0.0259
     25 C         -63.4799  -39.6631  -19.4594 C.3     1  UNL1        0.1535
     26 C         -64.7226  -38.7883  -19.3640 C.2     1  UNL1        0.2443
     27 O         -65.8092  -39.2963  -18.9776 O.2     1  UNL1       -0.2730
     28 N         -64.6988  -37.3823  -19.6697 N.am    1  UNL1       -0.2825
     29 H         -65.5952  -36.9414  -19.9769 H       1  UNL1        0.1549
     30 C         -63.5183  -36.5660  -19.6695 C.ar    1  UNL1        0.0535
     31 C         -62.6542  -36.5374  -20.7740 C.ar    1  UNL1        0.0353
     32 C         -61.5236  -35.7176  -20.7399 C.ar    1  UNL1        0.1002
     33 N         -61.2582  -34.9665  -19.6381 N.ar    1  UNL1       -0.2422
     34 C         -62.0674  -34.9932  -18.5459 C.ar    1  UNL1        0.1002
     35 C         -63.2051  -35.8033  -18.5373 C.ar    1  UNL1        0.0353
     36 C         -63.3457  -40.7048  -18.3207 C.3     1  UNL1        0.0569
     37 C         -64.2628  -41.8898  -18.4523 C.ar    1  UNL1       -0.0017
     38 C         -65.4617  -42.0990  -17.7750 C.ar    1  UNL1        0.0681
     39 N         -66.0406  -43.2513  -18.1828 N.ar    1  UNL1       -0.3523
     40 C         -65.2188  -43.7732  -19.1094 C.ar    1  UNL1        0.0563
     41 C         -65.4033  -44.9490  -19.8358 C.ar    1  UNL1        0.0170
     42 C         -64.4194  -45.3013  -20.7775 C.ar    1  UNL1        0.0015
     43 C         -63.2848  -44.4820  -20.9675 C.ar    1  UNL1        0.0001
     44 C         -63.1241  -43.3029  -20.2181 C.ar    1  UNL1        0.0012
     45 C         -64.1194  -42.9754  -19.2966 C.ar    1  UNL1        0.0131
     46 H         -66.9471  -43.6473  -17.8487 H       1  UNL1        0.1660
@<TRIPOS>BOND
     1     1     2    2
     2     2     3   am
     3     3    25    1
     4    25    36    1
     5    36    37    1
     6    37    38   ar
     7    38    39   ar
     8    39    40   ar
     9    40    41   ar
    10    41    42   ar
    11    42    43   ar
    12    43    44   ar
    13    44    45   ar
    14    25    26    1
    15    26    27    2
    16    26    28   am
    17    28    30    1
    18    30    31   ar
    19    31    32   ar
    20    32    33   ar
    21    33    34   ar
    22    34    35   ar
    23     2     5    1
    24     5     6   ar
    25     6     7   ar
    26     7     8   ar
    27     8    12    1
    28    12    13    1
    29    13    14    1
    30    14    15    1
    31    15    18    1
    32    18    19   ar
    33    19    20   ar
    34    20    21   ar
    35    21    22   ar
    36    22    23    1
    37    22    24   ar
    38    15    16    1
    39    16    17    1
    40     8     9   ar
    41     9    10   ar
    42    10    11    1
    43    45    37   ar
    44    35    30   ar
    45    10     5   ar
    46    45    40   ar
    47    17    12    1
    48    24    18   ar
    49     3     4    1
    50    39    46    1
    51    28    29    1
@<TRIPOS>MOLECULE
*****
 46 51 0 0 0
SMALL
GASTEIGER

@<TRIPOS>ATOM
      1 O         -65.1243  -41.1066  -21.8530 O.2     1  UNL1       -0.2701
      2 C         -64.0660  -40.8083  -22.4707 C.2     1  UNL1        0.2483
      3 N         -63.0364  -40.0431  -21.8131 N.am    1  UNL1       -0.2945
      4 H         -62.2518  -39.6725  -22.3941 H       1  UNL1        0.1501
      5 C         -63.9356  -41.1940  -23.8943 C.ar    1  UNL1        0.0808
      6 C         -63.0389  -42.2148  -24.2495 C.ar    1  UNL1        0.0080
      7 C         -62.9038  -42.6127  -25.5812 C.ar    1  UNL1        0.0148
      8 C         -63.6566  -41.9919  -26.5920 C.ar    1  UNL1        0.0502
      9 C         -64.5388  -40.9565  -26.2403 C.ar    1  UNL1        0.0443
     10 C         -64.6799  -40.5587  -24.9073 C.ar    1  UNL1        0.1457
     11 F         -65.5148  -39.5281  -24.6247 F       1  UNL1       -0.2040
     12 N         -63.5141  -42.3981  -27.9703 N.pl3   1  UNL1       -0.3040
     13 C         -63.9774  -41.5143  -29.0529 C.3     1  UNL1        0.1122
     14 C         -63.0740  -41.6416  -30.2879 C.3     1  UNL1        0.1122
     15 N         -62.7492  -43.0442  -30.5872 N.pl3   1  UNL1       -0.3040
     16 C         -63.3000  -44.1142  -29.7480 C.3     1  UNL1        0.1122
     17 C         -63.0741  -43.7708  -28.2753 C.3     1  UNL1        0.1122
     18 C         -61.8208  -43.3471  -31.6451 C.ar    1  UNL1        0.0488
     19 C         -62.1896  -43.1679  -32.9892 C.ar    1  UNL1        0.0146
     20 C         -61.2823  -43.4524  -34.0141 C.ar    1  UNL1        0.0021
     21 C         -59.9994  -43.9129  -33.7073 C.ar    1  UNL1        0.0115
     22 C         -59.6199  -44.0889  -32.3731 C.ar    1  UNL1        0.0589
     23 CL        -58.0061  -44.6579  -31.9879 Cl      1  UNL1       -0.0822
     24 C         -60.5261  -43.8058  -31.3449 C.ar    1  UNL1        0.0259
     25 C         -63.0963  -39.5679  -20.4207 C.3     1  UNL1        0.1535
     26 C         -64.4592  -38.9955  -20.0552 C.2     1  UNL1        0.2443
     27 O         -65.4267  -39.7784  -19.8575 O.2     1  UNL1       -0.2730
     28 N         -64.6820  -37.5831  -19.8932 N.am    1  UNL1       -0.2825
     29 H         -65.6530  -37.2284  -20.0467 H       1  UNL1        0.1549
     30 C         -63.6529  -36.6191  -19.6254 C.ar    1  UNL1        0.0535
     31 C         -62.6622  -36.3306  -20.5754 C.ar    1  UNL1        0.0353
     32 C         -61.6871  -35.3744  -20.2815 C.ar    1  UNL1        0.1002
     33 N         -61.6927  -34.7414  -19.0782 N.ar    1  UNL1       -0.2422
     34 C         -62.6284  -35.0189  -18.1318 C.ar    1  UNL1        0.1002
     35 C         -63.6177  -35.9721  -18.3837 C.ar    1  UNL1        0.0353
     36 C         -62.5737  -40.6449  -19.4375 C.3     1  UNL1        0.0569
     37 C         -63.6523  -41.4664  -18.7861 C.ar    1  UNL1       -0.0017
     38 C         -64.4471  -41.0963  -17.7039 C.ar    1  UNL1        0.0681
     39 N         -65.3438  -42.0686  -17.4212 N.ar    1  UNL1       -0.3523
     40 C         -65.1224  -43.0499  -18.3124 C.ar    1  UNL1        0.0563
     41 C         -65.8163  -44.2533  -18.4335 C.ar    1  UNL1        0.0170
     42 C         -65.4283  -45.1358  -19.4580 C.ar    1  UNL1        0.0015
     43 C         -64.3656  -44.8013  -20.3261 C.ar    1  UNL1        0.0001
     44 C         -63.6819  -43.5813  -20.1781 C.ar    1  UNL1        0.0012
     45 C         -64.0934  -42.7232  -19.1577 C.ar    1  UNL1        0.0131
     46 H         -66.0660  -42.0523  -16.6672 H       1  UNL1        0.1660
@<TRIPOS>BOND
     1     1     2    2
     2     2     3   am
     3     3    25    1
     4    25    36    1
     5    36    37    1
     6    37    38   ar
     7    38    39   ar
     8    39    40   ar
     9    40    41   ar
    10    41    42   ar
    11    42    43   ar
    12    43    44   ar
    13    44    45   ar
    14    25    26    1
    15    26    27    2
    16    26    28   am
    17    28    30    1
    18    30    31   ar
    19    31    32   ar
    20    32    33   ar
    21    33    34   ar
    22    34    35   ar
    23     2     5    1
    24     5     6   ar
    25     6     7   ar
    26     7     8   ar
    27     8    12    1
    28    12    13    1
    29    13    14    1
    30    14    15    1
    31    15    18    1
    32    18    19   ar
    33    19    20   ar
    34    20    21   ar
    35    21    22   ar
    36    22    23    1
    37    22    24   ar
    38    15    16    1
    39    16    17    1
    40     8     9   ar
    41     9    10   ar
    42    10    11    1
    43    45    37   ar
    44    35    30   ar
    45    10     5   ar
    46    45    40   ar
    47    17    12    1
    48    24    18   ar
    49     3     4    1
    50    39    46    1
    51    28    29    1
@<TRIPOS>MOLECULE
*****
 46 51 0 0 0
SMALL
GASTEIGER

@<TRIPOS>ATOM
      1 O         -60.7927  -43.5910  -26.6455 O.2     1  UNL1       -0.2701
      2 C         -61.9224  -43.7993  -26.1248 C.2     1  UNL1        0.2483
      3 N         -62.8140  -44.7756  -26.6990 N.am    1  UNL1       -0.2945
      4 H         -63.7978  -44.8087  -26.3503 H       1  UNL1        0.1501
      5 C         -62.3388  -42.9765  -24.9664 C.ar    1  UNL1        0.0808
      6 C         -63.2984  -41.9676  -25.1506 C.ar    1  UNL1        0.0080
      7 C         -63.7239  -41.1845  -24.0757 C.ar    1  UNL1        0.0148
      8 C         -63.1924  -41.3857  -22.7908 C.ar    1  UNL1        0.0502
      9 C         -62.2174  -42.3809  -22.6096 C.ar    1  UNL1        0.0443
     10 C         -61.7923  -43.1699  -23.6829 C.ar    1  UNL1        0.1457
     11 F         -60.8204  -44.0901  -23.4642 F       1  UNL1       -0.2040
     12 N         -63.6271  -40.5730  -21.6792 N.pl3   1  UNL1       -0.3040
     13 C         -62.7843  -40.4523  -20.4780 C.3     1  UNL1        0.1122
     14 C         -62.9133  -39.0539  -19.8572 C.3     1  UNL1        0.1122
     15 N         -64.3120  -38.6027  -19.8086 N.pl3   1  UNL1       -0.3040
     16 C         -65.3780  -39.4809  -20.3035 C.3     1  UNL1        0.1122
     17 C         -64.9925  -40.0194  -21.6816 C.3     1  UNL1        0.1122
     18 C         -64.6115  -37.2677  -19.3602 C.ar    1  UNL1        0.0488
     19 C         -63.6334  -36.5005  -18.7049 C.ar    1  UNL1        0.0146
     20 C         -63.9235  -35.2005  -18.2803 C.ar    1  UNL1        0.0021
     21 C         -65.1885  -34.6536  -18.5098 C.ar    1  UNL1        0.0115
     22 C         -66.1672  -35.4060  -19.1665 C.ar    1  UNL1        0.0589
     23 CL        -67.7522  -34.7157  -19.4629 Cl      1  UNL1       -0.0822
     24 C         -65.8802  -36.7079  -19.5919 C.ar    1  UNL1        0.0259
     25 C         -62.5135  -45.6030  -27.8794 C.3     1  UNL1        0.1535
     26 C         -63.4157  -46.8252  -27.9831 C.2     1  UNL1        0.2443
     27 O         -63.3507  -47.7196  -27.0978 O.2     1  UNL1       -0.2730
     28 N         -64.3730  -46.9867  -29.0454 N.am    1  UNL1       -0.2825
     29 H         -64.6528  -47.9618  -29.2968 H       1  UNL1        0.1549
     30 C         -64.9000  -45.9143  -29.8405 C.ar    1  UNL1        0.0535
     31 C         -65.5575  -44.8259  -29.2486 C.ar    1  UNL1        0.0353
     32 C         -66.0425  -43.7948  -30.0568 C.ar    1  UNL1        0.1002
     33 N         -65.8897  -43.8562  -31.4064 N.ar    1  UNL1       -0.2422
     34 C         -65.2761  -44.9106  -32.0066 C.ar    1  UNL1        0.1002
     35 C         -64.7816  -45.9646  -31.2351 C.ar    1  UNL1        0.0353
     36 C         -62.4554  -44.7434  -29.1668 C.3     1  UNL1        0.0569
     37 C         -61.1351  -44.7911  -29.8859 C.ar    1  UNL1       -0.0017
     38 C         -59.9438  -45.3353  -29.4122 C.ar    1  UNL1        0.0681
     39 N         -58.9751  -45.2433  -30.3516 N.ar    1  UNL1       -0.3523
     40 C         -59.5418  -44.6450  -31.4133 C.ar    1  UNL1        0.0563
     41 C         -58.9424  -44.3534  -32.6380 C.ar    1  UNL1        0.0170
     42 C         -59.7316  -43.7367  -33.6260 C.ar    1  UNL1        0.0015
     43 C         -61.0852  -43.4257  -33.3695 C.ar    1  UNL1        0.0001
     44 C         -61.6620  -43.7291  -32.1233 C.ar    1  UNL1        0.0012
     45 C         -60.8570  -44.3469  -31.1655 C.ar    1  UNL1        0.0131
     46 H         -57.9897  -45.5785  -30.2678 H       1  UNL1        0.1660
@<TRIPOS>BOND
     1     1     2    2
     2     2     3   am
     3     3    25    1
     4    25    36    1
     5    36    37    1
     6    37    38   ar
     7    38    39   ar
     8    39    40   ar
     9    40    41   ar
    10    41    42   ar
    11    42    43   ar
    12    43    44   ar
    13    44    45   ar
    14    25    26    1
    15    26    27    2
    16    26    28   am
    17    28    30    1
    18    30    31   ar
    19    31    32   ar
    20    32    33   ar
    21    33    34   ar
    22    34    35   ar
    23     2     5    1
    24     5     6   ar
    25     6     7   ar
    26     7     8   ar
    27     8    12    1
    28    12    13    1
    29    13    14    1
    30    14    15    1
    31    15    18    1
    32    18    19   ar
    33    19    20   ar
    34    20    21   ar
    35    21    22   ar
    36    22    23    1
    37    22    24   ar
    38    15    16    1
    39    16    17    1
    40     8     9   ar
    41     9    10   ar
    42    10    11    1
    43    45    37   ar
    44    35    30   ar
    45    10     5   ar
    46    45    40   ar
    47    17    12    1
    48    24    18   ar
    49     3     4    1
    50    39    46    1
    51    28    29    1
@<TRIPOS>MOLECULE
*****
 46 51 0 0 0
SMALL
GASTEIGER

@<TRIPOS>ATOM
      1 O         -60.8128  -45.0327  -27.7883 O.2     1  UNL1       -0.2701
      2 C         -61.9174  -44.9982  -27.1805 C.2     1  UNL1        0.2483
      3 N         -63.0176  -45.8118  -27.6339 N.am    1  UNL1       -0.2945
      4 H         -63.9600  -45.6412  -27.2176 H       1  UNL1        0.1501
      5 C         -62.0813  -44.0596  -26.0472 C.ar    1  UNL1        0.0808
      6 C         -63.0454  -43.0419  -26.1327 C.ar    1  UNL1        0.0080
      7 C         -63.2355  -42.1501  -25.0751 C.ar    1  UNL1        0.0148
      8 C         -62.4585  -42.2493  -23.9088 C.ar    1  UNL1        0.0502
      9 C         -61.4797  -43.2541  -23.8305 C.ar    1  UNL1        0.0443
     10 C         -61.2898  -44.1516  -24.8859 C.ar    1  UNL1        0.1457
     11 F         -60.3056  -45.0783  -24.7777 F       1  UNL1       -0.2040
     12 N         -62.6498  -41.3244  -22.8165 N.pl3   1  UNL1       -0.3040
     13 C         -61.7396  -41.3489  -21.6594 C.3     1  UNL1        0.1122
     14 C         -61.5323  -39.9357  -21.0962 C.3     1  UNL1        0.1122
     15 N         -62.7967  -39.1902  -21.0070 N.pl3   1  UNL1       -0.3040
     16 C         -64.0509  -39.8324  -21.4158 C.3     1  UNL1        0.1122
     17 C         -63.8624  -40.4881  -22.7842 C.3     1  UNL1        0.1122
     18 C         -62.7782  -37.8077  -20.6057 C.ar    1  UNL1        0.0488
     19 C         -61.8617  -36.9113  -21.1814 C.ar    1  UNL1        0.0146
     20 C         -61.8532  -35.5670  -20.7978 C.ar    1  UNL1        0.0021
     21 C         -62.7609  -35.1048  -19.8415 C.ar    1  UNL1        0.0115
     22 C         -63.6812  -35.9868  -19.2668 C.ar    1  UNL1        0.0589
     23 CL        -64.8269  -35.4042  -18.0732 Cl      1  UNL1       -0.0822
     24 C         -63.6916  -37.3332  -19.6480 C.ar    1  UNL1        0.0259
     25 C         -62.9698  -46.7339  -28.7809 C.3     1  UNL1        0.1535
     26 C         -63.7454  -48.0202  -28.5312 C.2     1  UNL1        0.2443
     27 O         -64.1966  -48.6713  -29.5113 O.2     1  UNL1       -0.2730
     28 N         -63.9588  -48.5454  -27.2085 N.am    1  UNL1       -0.2825
     29 H         -64.7940  -49.1564  -27.0623 H       1  UNL1        0.1549
     30 C         -63.1609  -48.2184  -26.0611 C.ar    1  UNL1        0.0535
     31 C         -61.8236  -48.6302  -25.9644 C.ar    1  UNL1        0.0353
     32 C         -61.0767  -48.2782  -24.8377 C.ar    1  UNL1        0.1002
     33 N         -61.6486  -47.5550  -23.8384 N.ar    1  UNL1       -0.2422
     34 C         -62.9490  -47.1628  -23.8974 C.ar    1  UNL1        0.1002
     35 C         -63.7320  -47.4985  -25.0041 C.ar    1  UNL1        0.0353
     36 C         -63.3444  -46.0102  -30.0983 C.3     1  UNL1        0.0569
     37 C         -64.2342  -44.8111  -29.9164 C.ar    1  UNL1       -0.0017
     38 C         -65.6021  -44.8166  -29.6544 C.ar    1  UNL1        0.0681
     39 N         -66.0599  -43.5529  -29.5034 N.ar    1  UNL1       -0.3523
     40 C         -64.9956  -42.7490  -29.6691 C.ar    1  UNL1        0.0563
     41 C         -64.9664  -41.3577  -29.5824 C.ar    1  UNL1        0.0170
     42 C         -63.7307  -40.7129  -29.7728 C.ar    1  UNL1        0.0015
     43 C         -62.5662  -41.4639  -30.0457 C.ar    1  UNL1        0.0001
     44 C         -62.6267  -42.8664  -30.1303 C.ar    1  UNL1        0.0012
     45 C         -63.8644  -43.4787  -29.9300 C.ar    1  UNL1        0.0131
     46 H         -67.0412  -43.2650  -29.2923 H       1  UNL1        0.1660
@<TRIPOS>BOND
     1     1     2    2
     2     2     3   am
     3     3    25    1
     4    25    36    1
     5    36    37    1
     6    37    38   ar
     7    38    39   ar
     8    39    40   ar
     9    40    41   ar
    10    41    42   ar
    11    42    43   ar
    12    43    44   ar
    13    44    45   ar
    14    25    26    1
    15    26    27    2
    16    26    28   am
    17    28    30    1
    18    30    31   ar
    19    31    32   ar
    20    32    33   ar
    21    33    34   ar
    22    34    35   ar
    23     2     5    1
    24     5     6   ar
    25     6     7   ar
    26     7     8   ar
    27     8    12    1
    28    12    13    1
    29    13    14    1
    30    14    15    1
    31    15    18    1
    32    18    19   ar
    33    19    20   ar
    34    20    21   ar
    35    21    22   ar
    36    22    23    1
    37    22    24   ar
    38    15    16    1
    39    16    17    1
    40     8     9   ar
    41     9    10   ar
    42    10    11    1
    43    45    37   ar
    44    35    30   ar
    45    10     5   ar
    46    45    40   ar
    47    17    12    1
    48    24    18   ar
    49     3     4    1
    50    39    46    1
    51    28    29    1
@<TRIPOS>MOLECULE
*****
 46 51 0 0 0
SMALL
GASTEIGER

@<TRIPOS>ATOM
      1 O         -63.5999  -43.0834  -27.6447 O.2     1  UNL1       -0.2701
      2 C         -62.9196  -43.4003  -26.6310 C.2     1  UNL1        0.2483
      3 N         -62.0904  -44.5791  -26.6567 N.am    1  UNL1       -0.2945
      4 H         -61.6715  -44.9057  -25.7576 H       1  UNL1        0.1501
      5 C         -63.0455  -42.5850  -25.4015 C.ar    1  UNL1        0.0808
      6 C         -63.9504  -41.5111  -25.3797 C.ar    1  UNL1        0.0080
      7 C         -64.1041  -40.7325  -24.2308 C.ar    1  UNL1        0.0148
      8 C         -63.3488  -41.0038  -23.0777 C.ar    1  UNL1        0.0502
      9 C         -62.4285  -42.0650  -23.1052 C.ar    1  UNL1        0.0443
     10 C         -62.2753  -42.8496  -24.2525 C.ar    1  UNL1        0.1457
     11 F         -61.3456  -43.8368  -24.2415 F       1  UNL1       -0.2040
     12 N         -63.5023  -40.1961  -21.8906 N.pl3   1  UNL1       -0.3040
     13 C         -62.3147  -39.6949  -21.1791 C.3     1  UNL1        0.1122
     14 C         -62.5853  -38.3122  -20.5690 C.3     1  UNL1        0.1122
     15 N         -63.9010  -38.2493  -19.9154 N.pl3   1  UNL1       -0.3040
     16 C         -64.7596  -39.4387  -19.8915 C.3     1  UNL1        0.1122
     17 C         -64.8413  -40.0335  -21.2977 C.3     1  UNL1        0.1122
     18 C         -64.3707  -36.9957  -19.3857 C.ar    1  UNL1        0.0488
     19 C         -63.5201  -36.1849  -18.6150 C.ar    1  UNL1        0.0146
     20 C         -63.9754  -34.9629  -18.1111 C.ar    1  UNL1        0.0021
     21 C         -65.2797  -34.5374  -18.3753 C.ar    1  UNL1        0.0115
     22 C         -66.1324  -35.3335  -19.1461 C.ar    1  UNL1        0.0589
     23 CL        -67.7668  -34.7947  -19.4856 Cl      1  UNL1       -0.0822
     24 C         -65.6800  -36.5576  -19.6513 C.ar    1  UNL1        0.0259
     25 C         -61.9411  -45.4819  -27.8104 C.3     1  UNL1        0.1535
     26 C         -60.4898  -45.6477  -28.2405 C.2     1  UNL1        0.2443
     27 O         -59.8109  -46.6012  -27.7737 O.2     1  UNL1       -0.2730
     28 N         -59.8647  -44.7691  -29.1935 N.am    1  UNL1       -0.2825
     29 H         -58.8257  -44.6677  -29.1450 H       1  UNL1        0.1549
     30 C         -60.5719  -43.9571  -30.1424 C.ar    1  UNL1        0.0535
     31 C         -61.2372  -42.7878  -29.7455 C.ar    1  UNL1        0.0353
     32 C         -61.9011  -42.0171  -30.7030 C.ar    1  UNL1        0.1002
     33 N         -61.9126  -42.4079  -32.0052 N.ar    1  UNL1       -0.2422
     34 C         -61.2947  -43.5485  -32.4122 C.ar    1  UNL1        0.1002
     35 C         -60.6241  -44.3502  -31.4857 C.ar    1  UNL1        0.0353
     36 C         -62.6931  -46.8163  -27.5794 C.3     1  UNL1        0.0569
     37 C         -63.5447  -47.2575  -28.7382 C.ar    1  UNL1       -0.0017
     38 C         -64.0260  -48.5417  -28.9813 C.ar    1  UNL1        0.0681
     39 N         -64.7988  -48.5549  -30.0912 N.ar    1  UNL1       -0.3523
     40 C         -64.8093  -47.2927  -30.5528 C.ar    1  UNL1        0.0563
     41 C         -65.4914  -46.8066  -31.6674 C.ar    1  UNL1        0.0170
     42 C         -65.3786  -45.4355  -31.9610 C.ar    1  UNL1        0.0015
     43 C         -64.5929  -44.5914  -31.1455 C.ar    1  UNL1        0.0001
     44 C         -63.9135  -45.1107  -30.0290 C.ar    1  UNL1        0.0012
     45 C         -64.0497  -46.4727  -29.7585 C.ar    1  UNL1        0.0131
     46 H         -65.2927  -49.3798  -30.4987 H       1  UNL1        0.1660
@<TRIPOS>BOND
     1     1     2    2
     2     2     3   am
     3     3    25    1
     4    25    36    1
     5    36    37    1
     6    37    38   ar
     7    38    39   ar
     8    39    40   ar
     9    40    41   ar
    10    41    42   ar
    11    42    43   ar
    12    43    44   ar
    13    44    45   ar
    14    25    26    1
    15    26    27    2
    16    26    28   am
    17    28    30    1
    18    30    31   ar
    19    31    32   ar
    20    32    33   ar
    21    33    34   ar
    22    34    35   ar
    23     2     5    1
    24     5     6   ar
    25     6     7   ar
    26     7     8   ar
    27     8    12    1
    28    12    13    1
    29    13    14    1
    30    14    15    1
    31    15    18    1
    32    18    19   ar
    33    19    20   ar
    34    20    21   ar
    35    21    22   ar
    36    22    23    1
    37    22    24   ar
    38    15    16    1
    39    16    17    1
    40     8     9   ar
    41     9    10   ar
    42    10    11    1
    43    45    37   ar
    44    35    30   ar
    45    10     5   ar
    46    45    40   ar
    47    17    12    1
    48    24    18   ar
    49     3     4    1
    50    39    46    1
    51    28    29    1
