@<TRIPOS>MOLECULE
*****
 55 61 0 0 0
SMALL
GASTEIGER

@<TRIPOS>ATOM
      1 C          59.5568   85.7472    9.1083 C.ar    1  UNL1        0.0481
      2 C          60.2136   84.7380    8.3882 C.ar    1  UNL1        0.0176
      3 C          59.5284   83.5801    8.0104 C.ar    1  UNL1        0.0382
      4 C          58.1812   83.4071    8.3478 C.ar    1  UNL1        0.1388
      5 C          57.5193   84.4220    9.0658 C.ar    1  UNL1        0.0382
      6 C          58.2052   85.5797    9.4449 C.ar    1  UNL1        0.0176
      7 N          61.9582   88.7558   10.8802 N.pl3   1  UNL1       -0.2968
      8 C          62.5254   87.6198   10.1356 C.3     1  UNL1        0.1126
      9 C          61.6090   87.2008    8.9886 C.3     1  UNL1        0.1123
     10 N          60.2658   86.9331    9.5078 N.pl3   1  UNL1       -0.3036
     11 C          59.6651   87.8324   10.5020 C.3     1  UNL1        0.1221
     12 C          60.5223   89.0945   10.7437 C.3     1  UNL1        0.1924
     13 C          64.6724   91.4402   12.7865 C.ar    1  UNL1        0.0699
     14 C          64.2326   91.6781   11.4735 C.ar    1  UNL1        0.0190
     15 C          63.3417   90.7985   10.8528 C.ar    1  UNL1        0.0160
     16 C          62.8821   89.6574   11.5277 C.ar    1  UNL1        0.0484
     17 C          63.3207   89.4173   12.8401 C.ar    1  UNL1        0.0160
     18 C          64.2105   90.2974   13.4619 C.ar    1  UNL1        0.0190
     19 N          67.0816   93.2677   14.7954 N.ar    1  UNL1       -0.2024
     20 N          66.8001   94.1765   13.8737 N.ar    1  UNL1       -0.1442
     21 C          65.8956   93.6126   13.0439 C.ar    1  UNL1        0.2073
     22 N          65.5950   92.3485   13.4188 N.ar    1  UNL1       -0.2398
     23 C          66.3500   92.1697   14.5208 C.ar    1  UNL1        0.3522
     24 O          66.3457   91.1249   15.2261 O.2     1  UNL1       -0.2444
     25 C          68.0156   93.4935   15.9048 C.3     1  UNL1        0.1099
     26 C          68.7091   94.8534   15.7441 C.3     1  UNL1        0.0265
     27 C          69.8591   92.1638   14.7333 C.3     1  UNL1        0.0021
     28 C          69.0201   92.3262   16.0009 C.3     1  UNL1        0.0245
     29 C          59.9999   89.8125   11.9615 C.2     1  UNL1        0.3337
     30 O          59.8667   89.1984   13.0546 O.2     1  UNL1       -0.2484
     31 O          59.6428   91.1543   11.8727 O.3     1  UNL1       -0.4790
     32 H          59.2857   91.6511   12.6800 H       1  UNL1        0.2951
     33 O          57.5454   82.2214    7.9445 O.3     1  UNL1       -0.4727
     34 C          58.1528   80.9294    7.8927 C.3     1  UNL1        0.2374
     35 C          58.6880   80.5166    9.2705 C.3     1  UNL1        0.1909
     36 C          57.6480   79.8534   10.1246 C.3     1  UNL1        0.1783
     37 O          57.9147   80.2561   11.4295 O.3     1  UNL1       -0.3266
     38 C          58.7913   81.3618   11.3416 C.3     1  UNL1        0.2314
     39 O          59.0846   81.6411    9.9851 O.3     1  UNL1       -0.3254
     40 C          60.1039   81.0873   12.0887 C.ar    1  UNL1        0.0410
     41 C          61.3160   81.4085   11.4392 C.ar    1  UNL1        0.0022
     42 C          62.5465   81.2139   12.0674 C.ar    1  UNL1        0.0113
     43 C          62.5974   80.7109   13.3653 C.ar    1  UNL1        0.0585
     44 CL         64.1458   80.4727   14.1546 Cl      1  UNL1       -0.0822
     45 C          61.4150   80.4122   14.0418 C.ar    1  UNL1        0.0226
     46 C          60.1701   80.6014   13.4271 C.ar    1  UNL1        0.0591
     47 CL         58.7540   80.2463   14.4158 Cl      1  UNL1       -0.0824
     48 C          58.0929   82.6055   11.9296 C.3     1  UNL1        0.1893
     49 N          59.0450   83.6690   12.2557 N.ar    1  UNL1       -0.2313
     50 N          60.3369   83.6047   11.9892 N.ar    1  UNL1       -0.1532
     51 C          60.8606   84.7550   12.4551 C.ar    1  UNL1        0.1604
     52 C          62.3002   85.1161   12.3191 C.3     1  UNL1        0.0756
     53 N          59.9324   85.5750   12.9956 N.ar    1  UNL1       -0.2146
     54 C          58.8040   84.8498   12.8612 C.ar    1  UNL1        0.1381
     55 C          57.4556   85.3455   13.2788 C.3     1  UNL1        0.0734
@<TRIPOS>BOND
     1    27    28    1
     2    28    25    1
     3    25    26    1
     4    25    19    1
     5    19    20   ar
     6    20    21   ar
     7    21    22   ar
     8    22    13    1
     9    13    14   ar
    10    14    15   ar
    11    15    16   ar
    12    16     7    1
    13     7     8    1
    14     8     9    1
    15     9    10    1
    16    10     1    1
    17     1     2   ar
    18     2     3   ar
    19     3     4   ar
    20     4    33    1
    21    33    34    1
    22    34    35    1
    23    35    36    1
    24    36    37    1
    25    37    38    1
    26    38    48    1
    27    48    49    1
    28    49    50   ar
    29    50    51   ar
    30    51    52    1
    31    51    53   ar
    32    53    54   ar
    33    54    55    1
    34    38    40    1
    35    40    41   ar
    36    41    42   ar
    37    42    43   ar
    38    43    44    1
    39    43    45   ar
    40    45    46   ar
    41    46    47    1
    42    38    39    1
    43     4     5   ar
    44     5     6   ar
    45    10    11    1
    46    11    12    1
    47    12    29    1
    48    29    30    2
    49    29    31    1
    50    16    17   ar
    51    17    18   ar
    52    22    23   ar
    53    23    24    2
    54    23    19   ar
    55    18    13   ar
    56    12     7    1
    57     6     1   ar
    58    39    35    1
    59    54    49   ar
    60    46    40   ar
    61    31    32    1
@<TRIPOS>MOLECULE
*****
 55 61 0 0 0
SMALL
GASTEIGER

@<TRIPOS>ATOM
      1 C          59.7400   83.1362   13.1301 C.ar    1  UNL1        0.0481
      2 C          60.3541   81.8812   13.0029 C.ar    1  UNL1        0.0176
      3 C          59.7210   80.8536   12.2986 C.ar    1  UNL1        0.0382
      4 C          58.4654   81.0578   11.7151 C.ar    1  UNL1        0.1388
      5 C          57.8505   82.3190   11.8376 C.ar    1  UNL1        0.0382
      6 C          58.4833   83.3467   12.5431 C.ar    1  UNL1        0.0176
      7 N          61.9480   86.4597   14.5576 N.pl3   1  UNL1       -0.2968
      8 C          60.7457   86.6024   13.7204 C.3     1  UNL1        0.1126
      9 C          59.7369   85.4944   14.0123 C.3     1  UNL1        0.1123
     10 N          60.3864   84.1897   13.8657 N.pl3   1  UNL1       -0.3036
     11 C          61.7376   83.9728   14.3999 C.3     1  UNL1        0.1221
     12 C          62.2375   85.1734   15.2334 C.3     1  UNL1        0.1924
     13 C          64.0868   90.0229   15.5254 C.ar    1  UNL1        0.0699
     14 C          64.3036   89.3666   14.3021 C.ar    1  UNL1        0.0190
     15 C          63.5999   88.2013   13.9870 C.ar    1  UNL1        0.0160
     16 C          62.6741   87.6621   14.8932 C.ar    1  UNL1        0.0484
     17 C          62.4560   88.3162   16.1167 C.ar    1  UNL1        0.0160
     18 C          63.1584   89.4825   16.4318 C.ar    1  UNL1        0.0190
     19 N          66.2649   92.9124   15.8183 N.ar    1  UNL1       -0.2024
     20 N          65.5147   93.0677   16.8988 N.ar    1  UNL1       -0.1442
     21 C          64.6421   92.0366   16.9104 C.ar    1  UNL1        0.2073
     22 N          64.8195   91.2212   15.8462 N.ar    1  UNL1       -0.2398
     23 C          65.8464   91.7962   15.1894 C.ar    1  UNL1        0.3522
     24 O          66.3729   91.3314   14.1427 O.2     1  UNL1       -0.2444
     25 C          67.3573   93.8194   15.4467 C.3     1  UNL1        0.1099
     26 C          67.2588   94.1845   13.9590 C.3     1  UNL1        0.0265
     27 C          69.3558   92.4430   14.6405 C.3     1  UNL1        0.0021
     28 C          68.7185   93.1910   15.8115 C.3     1  UNL1        0.0245
     29 C          63.7111   85.0019   15.4995 C.2     1  UNL1        0.3337
     30 O          64.4590   84.4804   14.6286 O.2     1  UNL1       -0.2484
     31 O          64.2442   85.4018   16.7208 O.3     1  UNL1       -0.4790
     32 H          65.2313   85.2899   16.9182 H       1  UNL1        0.2951
     33 O          57.8758   79.9874   11.0228 O.3     1  UNL1       -0.4727
     34 C          57.5997   79.9560    9.6216 C.3     1  UNL1        0.2374
     35 C          57.9672   81.2898    8.9576 C.3     1  UNL1        0.1909
     36 C          57.9966   81.2065    7.4599 C.3     1  UNL1        0.1783
     37 O          59.0250   82.0505    7.0524 O.3     1  UNL1       -0.3266
     38 C          59.8021   82.3267    8.2007 C.3     1  UNL1        0.2314
     39 O          59.2525   81.6690    9.3275 O.3     1  UNL1       -0.3254
     40 C          59.8565   83.8348    8.4816 C.ar    1  UNL1        0.0410
     41 C          59.2827   84.3066    9.6827 C.ar    1  UNL1        0.0022
     42 C          59.3201   85.6600   10.0190 C.ar    1  UNL1        0.0113
     43 C          59.9463   86.5736    9.1744 C.ar    1  UNL1        0.0585
     44 CL         59.9967   88.2740    9.6028 Cl      1  UNL1       -0.0822
     45 C          60.5469   86.1319    7.9957 C.ar    1  UNL1        0.0226
     46 C          60.5195   84.7765    7.6417 C.ar    1  UNL1        0.0591
     47 CL         61.3719   84.3437    6.1601 Cl      1  UNL1       -0.0824
     48 C          61.2261   81.7716    7.9899 C.3     1  UNL1        0.1893
     49 N          62.0465   81.8878    9.1971 N.ar    1  UNL1       -0.2313
     50 N          62.5448   83.0281    9.6392 N.ar    1  UNL1       -0.1532
     51 C          63.2438   82.7130   10.7467 C.ar    1  UNL1        0.1604
     52 C          63.9402   83.7229   11.5931 C.3     1  UNL1        0.0756
     53 N          63.1890   81.3965   11.0467 N.ar    1  UNL1       -0.2146
     54 C          62.4354   80.9098   10.0407 C.ar    1  UNL1        0.1381
     55 C          62.0386   79.4711    9.9346 C.3     1  UNL1        0.0734
@<TRIPOS>BOND
     1    27    28    1
     2    28    25    1
     3    25    26    1
     4    25    19    1
     5    19    20   ar
     6    20    21   ar
     7    21    22   ar
     8    22    13    1
     9    13    14   ar
    10    14    15   ar
    11    15    16   ar
    12    16     7    1
    13     7     8    1
    14     8     9    1
    15     9    10    1
    16    10     1    1
    17     1     2   ar
    18     2     3   ar
    19     3     4   ar
    20     4    33    1
    21    33    34    1
    22    34    35    1
    23    35    36    1
    24    36    37    1
    25    37    38    1
    26    38    48    1
    27    48    49    1
    28    49    50   ar
    29    50    51   ar
    30    51    52    1
    31    51    53   ar
    32    53    54   ar
    33    54    55    1
    34    38    40    1
    35    40    41   ar
    36    41    42   ar
    37    42    43   ar
    38    43    44    1
    39    43    45   ar
    40    45    46   ar
    41    46    47    1
    42    38    39    1
    43     4     5   ar
    44     5     6   ar
    45    10    11    1
    46    11    12    1
    47    12    29    1
    48    29    30    2
    49    29    31    1
    50    16    17   ar
    51    17    18   ar
    52    22    23   ar
    53    23    24    2
    54    23    19   ar
    55    18    13   ar
    56    12     7    1
    57     6     1   ar
    58    39    35    1
    59    54    49   ar
    60    46    40   ar
    61    31    32    1
@<TRIPOS>MOLECULE
*****
 55 61 0 0 0
SMALL
GASTEIGER

@<TRIPOS>ATOM
      1 C          58.9125   86.1062   10.3368 C.ar    1  UNL1        0.0481
      2 C          57.9642   85.2655   10.9388 C.ar    1  UNL1        0.0176
      3 C          57.3385   84.2610   10.1955 C.ar    1  UNL1        0.0382
      4 C          57.6432   84.0816    8.8414 C.ar    1  UNL1        0.1388
      5 C          58.5991   84.9214    8.2376 C.ar    1  UNL1        0.0382
      6 C          59.2241   85.9271    8.9807 C.ar    1  UNL1        0.0176
      7 N          61.4033   88.6316   12.6557 N.pl3   1  UNL1       -0.2968
      8 C          61.7114   88.2705   11.2624 C.3     1  UNL1        0.1126
      9 C          60.4351   88.1087   10.4404 C.3     1  UNL1        0.1123
     10 N          59.5470   87.1480   11.0990 N.pl3   1  UNL1       -0.3036
     11 C          59.3608   87.1920   12.5555 C.3     1  UNL1        0.1221
     12 C          60.0395   88.4231   13.1957 C.3     1  UNL1        0.1924
     13 C          64.3117   90.9177   14.7823 C.ar    1  UNL1        0.0699
     14 C          63.8645   89.6832   15.2827 C.ar    1  UNL1        0.0190
     15 C          62.9138   88.9357   14.5827 C.ar    1  UNL1        0.0160
     16 C          62.3823   89.4126   13.3748 C.ar    1  UNL1        0.0484
     17 C          62.8275   90.6465   12.8729 C.ar    1  UNL1        0.0160
     18 C          63.7793   91.3939   13.5717 C.ar    1  UNL1        0.0190
     19 N          67.1799   92.6364   16.1960 N.ar    1  UNL1       -0.2024
     20 N          66.2354   93.0063   17.0479 N.ar    1  UNL1       -0.1442
     21 C          65.0915   92.4235   16.6278 C.ar    1  UNL1        0.2073
     22 N          65.2884   91.6858   15.5116 N.ar    1  UNL1       -0.2398
     23 C          66.6065   91.8369   15.2749 C.ar    1  UNL1        0.3522
     24 O          67.2312   91.2743   14.3356 O.2     1  UNL1       -0.2444
     25 C          68.5857   93.0424   16.3102 C.3     1  UNL1        0.1099
     26 C          68.7782   94.4509   15.7313 C.3     1  UNL1        0.0265
     27 C          69.9663   92.4312   14.2464 C.3     1  UNL1        0.0021
     28 C          69.4982   91.9969   15.6355 C.3     1  UNL1        0.0245
     29 C          60.0525   88.2489   14.6927 C.2     1  UNL1        0.3337
     30 O          59.9560   89.2513   15.4514 O.2     1  UNL1       -0.2484
     31 O          60.1931   86.9772   15.2395 O.3     1  UNL1       -0.4790
     32 H          60.2084   86.8423   16.2433 H       1  UNL1        0.2951
     33 O          56.9801   83.0584    8.1442 O.3     1  UNL1       -0.4727
     34 C          57.6111   82.0362    7.3710 C.3     1  UNL1        0.2374
     35 C          59.0710   81.8414    7.8020 C.3     1  UNL1        0.1909
     36 C          59.6368   80.5228    7.3639 C.3     1  UNL1        0.1783
     37 O          60.4987   80.1225    8.3802 O.3     1  UNL1       -0.3266
     38 C          60.1993   80.9245    9.5053 C.3     1  UNL1        0.2314
     39 O          59.1624   81.8351    9.1892 O.3     1  UNL1       -0.3254
     40 C          61.4327   81.7141    9.9652 C.ar    1  UNL1        0.0410
     41 C          61.2444   83.0454   10.3971 C.ar    1  UNL1        0.0022
     42 C          62.3140   83.8146   10.8564 C.ar    1  UNL1        0.0113
     43 C          63.5944   83.2692   10.9129 C.ar    1  UNL1        0.0585
     44 CL         64.9362   84.2371   11.4961 Cl      1  UNL1       -0.0822
     45 C          63.8048   81.9477   10.5200 C.ar    1  UNL1        0.0226
     46 C          62.7428   81.1600   10.0564 C.ar    1  UNL1        0.0591
     47 CL         63.1338   79.4884    9.6541 Cl      1  UNL1       -0.0824
     48 C          59.6889   80.0201   10.6463 C.3     1  UNL1        0.1893
     49 N          60.2470   80.4038   11.9444 N.ar    1  UNL1       -0.2313
     50 N          61.4248   80.0005   12.3853 N.ar    1  UNL1       -0.1532
     51 C          61.5612   80.5490   13.6080 C.ar    1  UNL1        0.1604
     52 C          62.7793   80.3836   14.4508 C.3     1  UNL1        0.0756
     53 N          60.5085   81.3198   13.9595 N.ar    1  UNL1       -0.2146
     54 C          59.6975   81.1930   12.8901 C.ar    1  UNL1        0.1381
     55 C          58.3872   81.9042   12.7652 C.3     1  UNL1        0.0734
@<TRIPOS>BOND
     1    27    28    1
     2    28    25    1
     3    25    26    1
     4    25    19    1
     5    19    20   ar
     6    20    21   ar
     7    21    22   ar
     8    22    13    1
     9    13    14   ar
    10    14    15   ar
    11    15    16   ar
    12    16     7    1
    13     7     8    1
    14     8     9    1
    15     9    10    1
    16    10     1    1
    17     1     2   ar
    18     2     3   ar
    19     3     4   ar
    20     4    33    1
    21    33    34    1
    22    34    35    1
    23    35    36    1
    24    36    37    1
    25    37    38    1
    26    38    48    1
    27    48    49    1
    28    49    50   ar
    29    50    51   ar
    30    51    52    1
    31    51    53   ar
    32    53    54   ar
    33    54    55    1
    34    38    40    1
    35    40    41   ar
    36    41    42   ar
    37    42    43   ar
    38    43    44    1
    39    43    45   ar
    40    45    46   ar
    41    46    47    1
    42    38    39    1
    43     4     5   ar
    44     5     6   ar
    45    10    11    1
    46    11    12    1
    47    12    29    1
    48    29    30    2
    49    29    31    1
    50    16    17   ar
    51    17    18   ar
    52    22    23   ar
    53    23    24    2
    54    23    19   ar
    55    18    13   ar
    56    12     7    1
    57     6     1   ar
    58    39    35    1
    59    54    49   ar
    60    46    40   ar
    61    31    32    1
@<TRIPOS>MOLECULE
*****
 55 61 0 0 0
SMALL
GASTEIGER

@<TRIPOS>ATOM
      1 C          58.9540   86.1118   10.3254 C.ar    1  UNL1        0.0481
      2 C          57.8829   85.3852   10.8668 C.ar    1  UNL1        0.0176
      3 C          57.2628   84.3798   10.1200 C.ar    1  UNL1        0.0382
      4 C          57.6957   84.0863    8.8219 C.ar    1  UNL1        0.1388
      5 C          58.7745   84.8114    8.2795 C.ar    1  UNL1        0.0382
      6 C          59.3940   85.8180    9.0261 C.ar    1  UNL1        0.0176
      7 N          61.4315   88.6422   12.6530 N.pl3   1  UNL1       -0.2968
      8 C          61.7455   88.2814   11.2609 C.3     1  UNL1        0.1126
      9 C          60.4725   88.1172   10.4343 C.3     1  UNL1        0.1123
     10 N          59.5838   87.1549   11.0898 N.pl3   1  UNL1       -0.3036
     11 C          59.3921   87.1988   12.5455 C.3     1  UNL1        0.1221
     12 C          60.0661   88.4313   13.1881 C.3     1  UNL1        0.1924
     13 C          64.3271   90.9335   14.7914 C.ar    1  UNL1        0.0699
     14 C          63.8241   89.7355   15.3261 C.ar    1  UNL1        0.0190
     15 C          62.8777   88.9860   14.6222 C.ar    1  UNL1        0.0160
     16 C          62.4065   89.4251   13.3756 C.ar    1  UNL1        0.0484
     17 C          62.9076   90.6225   12.8394 C.ar    1  UNL1        0.0160
     18 C          63.8551   91.3717   13.5421 C.ar    1  UNL1        0.0190
     19 N          67.1861   92.6563   16.2189 N.ar    1  UNL1       -0.2024
     20 N          66.2356   93.0304   17.0622 N.ar    1  UNL1       -0.1442
     21 C          65.0944   92.4466   16.6362 C.ar    1  UNL1        0.2073
     22 N          65.2989   91.7040   15.5247 N.ar    1  UNL1       -0.2398
     23 C          66.6189   91.8533   15.2970 C.ar    1  UNL1        0.3522
     24 O          67.2501   91.2863   14.3648 O.2     1  UNL1       -0.2444
     25 C          68.5912   93.0618   16.3417 C.3     1  UNL1        0.1099
     26 C          68.7828   94.4805   15.7878 C.3     1  UNL1        0.0265
     27 C          70.0341   92.5193   14.3015 C.3     1  UNL1        0.0021
     28 C          69.5057   92.0294   15.6498 C.3     1  UNL1        0.0245
     29 C          60.0739   88.2572   14.6851 C.2     1  UNL1        0.3337
     30 O          59.9194   89.2532   15.4428 O.2     1  UNL1       -0.2484
     31 O          60.2740   86.9942   15.2333 O.3     1  UNL1       -0.4790
     32 H          60.2867   86.8598   16.2371 H       1  UNL1        0.2951
     33 O          57.0321   83.0683    8.1177 O.3     1  UNL1       -0.4727
     34 C          57.6548   81.9299    7.5201 C.3     1  UNL1        0.2374
     35 C          58.4123   81.1029    8.5678 C.3     1  UNL1        0.1909
     36 C          57.8944   81.3115    9.9603 C.3     1  UNL1        0.1783
     37 O          59.0061   81.2402   10.7938 O.3     1  UNL1       -0.3266
     38 C          60.1440   81.3620    9.9637 C.3     1  UNL1        0.2314
     39 O          59.7456   81.4939    8.6116 O.3     1  UNL1       -0.3254
     40 C          61.0585   80.1362   10.0961 C.ar    1  UNL1        0.0410
     41 C          62.0974   79.9791    9.1525 C.ar    1  UNL1        0.0022
     42 C          62.9855   78.9057    9.2270 C.ar    1  UNL1        0.0113
     43 C          62.8702   77.9725   10.2546 C.ar    1  UNL1        0.0585
     44 CL         63.9919   76.6270   10.3488 Cl      1  UNL1       -0.0822
     45 C          61.8717   78.1185   11.2173 C.ar    1  UNL1        0.0226
     46 C          60.9710   79.1903   11.1588 C.ar    1  UNL1        0.0591
     47 CL         59.8001   79.2930   12.4731 Cl      1  UNL1       -0.0824
     48 C          60.9117   82.6442   10.3471 C.3     1  UNL1        0.1893
     49 N          61.9469   82.3868   11.3500 N.ar    1  UNL1       -0.2313
     50 N          61.7010   81.8870   12.5474 N.ar    1  UNL1       -0.1532
     51 C          62.8962   81.8209   13.1650 C.ar    1  UNL1        0.1604
     52 C          63.0822   81.2681   14.5366 C.3     1  UNL1        0.0756
     53 N          63.9156   82.2436   12.3852 N.ar    1  UNL1       -0.2146
     54 C          63.2750   82.6024   11.2547 C.ar    1  UNL1        0.1381
     55 C          63.9811   83.1098   10.0372 C.3     1  UNL1        0.0734
@<TRIPOS>BOND
     1    27    28    1
     2    28    25    1
     3    25    26    1
     4    25    19    1
     5    19    20   ar
     6    20    21   ar
     7    21    22   ar
     8    22    13    1
     9    13    14   ar
    10    14    15   ar
    11    15    16   ar
    12    16     7    1
    13     7     8    1
    14     8     9    1
    15     9    10    1
    16    10     1    1
    17     1     2   ar
    18     2     3   ar
    19     3     4   ar
    20     4    33    1
    21    33    34    1
    22    34    35    1
    23    35    36    1
    24    36    37    1
    25    37    38    1
    26    38    48    1
    27    48    49    1
    28    49    50   ar
    29    50    51   ar
    30    51    52    1
    31    51    53   ar
    32    53    54   ar
    33    54    55    1
    34    38    40    1
    35    40    41   ar
    36    41    42   ar
    37    42    43   ar
    38    43    44    1
    39    43    45   ar
    40    45    46   ar
    41    46    47    1
    42    38    39    1
    43     4     5   ar
    44     5     6   ar
    45    10    11    1
    46    11    12    1
    47    12    29    1
    48    29    30    2
    49    29    31    1
    50    16    17   ar
    51    17    18   ar
    52    22    23   ar
    53    23    24    2
    54    23    19   ar
    55    18    13   ar
    56    12     7    1
    57     6     1   ar
    58    39    35    1
    59    54    49   ar
    60    46    40   ar
    61    31    32    1
