@<TRIPOS>MOLECULE
*****
 47 52 0 0 0
SMALL
GASTEIGER

@<TRIPOS>ATOM
      1 C          59.2801   87.1065    9.4978 C.ar    1  UNL1        0.1318
      2 C          59.8922   88.2567   10.0241 C.ar    1  UNL1        0.0356
      3 C          60.2029   89.3220    9.1775 C.ar    1  UNL1        0.0191
      4 C          59.9110   89.2422    7.8070 C.ar    1  UNL1        0.0702
      5 C          59.2722   88.0921    7.3268 C.ar    1  UNL1        0.1149
      6 N          58.9798   87.0665    8.1693 N.ar    1  UNL1       -0.2279
      7 C          57.8935   83.8269   12.0623 C.3     1  UNL1        0.0471
      8 C          58.8776   84.9062   12.5642 C.3     1  UNL1        0.0252
      9 C          58.7321   86.2126   11.7793 C.3     1  UNL1        0.0923
     10 N          58.9345   85.9870   10.3400 N.pl3   1  UNL1       -0.2932
     11 C          58.7952   84.6305    9.7856 C.3     1  UNL1        0.0923
     12 C          57.6927   83.8608   10.5216 C.3     1  UNL1        0.0252
     13 C          58.3508   82.4340   12.5402 C.3     1  UNL1        0.2054
     14 O          59.7507   82.4225   12.8270 O.3     1  UNL1       -0.4757
     15 C          60.7370   80.5462   11.6492 C.ar    1  UNL1        0.0413
     16 C          61.7348   80.0199   10.8170 C.ar    1  UNL1        0.0014
     17 C          62.7483   80.8376   10.3183 C.ar    1  UNL1        0.0064
     18 C          62.7933   82.1999   10.6508 C.ar    1  UNL1        0.0785
     19 C          61.7888   82.7336   11.4765 C.ar    1  UNL1        0.0431
     20 C          60.7612   81.9145   11.9895 C.ar    1  UNL1        0.1371
     21 C          63.8797   83.0559   10.1153 C.2     1  UNL1        0.3381
     22 O          65.0692   82.8576   10.4802 O.2     1  UNL1       -0.2451
     23 O          63.6219   84.0966    9.2236 O.3     1  UNL1       -0.4771
     24 H          62.6833   84.3802    8.9736 H       1  UNL1        0.2954
     25 C          59.6798   79.6172   12.1984 C.3     1  UNL1        0.1717
     26 C          57.9457   79.5499   10.6612 C.3     1  UNL1        0.1746
     27 O          59.0784   78.8706   11.1581 O.3     1  UNL1       -0.3462
     28 N          60.1927   90.3291    6.9086 N.am    1  UNL1       -0.2766
     29 C          59.3865   90.6480    5.7647 C.2     1  UNL1        0.2839
     30 O          58.1676   90.3277    5.7441 O.2     1  UNL1       -0.2665
     31 H          60.9614   90.9894    7.1616 H       1  UNL1        0.1553
     32 C          59.9350   91.4215    4.6368 C.ar    1  UNL1        0.1946
     33 O          59.2395   92.3586    4.0168 O.2     1  UNL1       -0.4492
     34 C          59.9968   92.8660    3.0750 C.ar    1  UNL1        0.1452
     35 C          59.6718   93.8839    2.1853 C.ar    1  UNL1        0.0375
     36 C          60.6450   94.2797    1.2510 C.ar    1  UNL1        0.0031
     37 C          61.9217   93.6555    1.2201 C.ar    1  UNL1        0.0002
     38 C          62.2107   92.6215    2.1428 C.ar    1  UNL1        0.0028
     39 C          61.2208   92.2548    3.0549 C.ar    1  UNL1        0.0337
     40 C          61.2017   91.2995    4.0515 C.ar    1  UNL1        0.0202
     41 C          62.3058   90.3492    4.4047 C.3     1  UNL1        0.0345
     42 C          62.9426   94.0825    0.2299 C.ar    1  UNL1        0.0000
     43 C          62.6334   94.1270   -1.1431 C.ar    1  UNL1        0.0000
     44 C          63.5967   94.5295   -2.0734 C.ar    1  UNL1        0.0000
     45 C          64.8763   94.8901   -1.6460 C.ar    1  UNL1        0.0000
     46 C          65.1958   94.8495   -0.2871 C.ar    1  UNL1        0.0000
     47 C          64.2362   94.4488    0.6479 C.ar    1  UNL1        0.0000
@<TRIPOS>BOND
     1    26    27    1
     2    27    25    1
     3    25    15    1
     4    15    16   ar
     5    16    17   ar
     6    17    18   ar
     7    18    21    1
     8    21    22    2
     9    21    23    1
    10    18    19   ar
    11    19    20   ar
    12    20    14    1
    13    14    13    1
    14    13     7    1
    15     7     8    1
    16     8     9    1
    17     9    10    1
    18    10     1    1
    19     1     2   ar
    20     2     3   ar
    21     3     4   ar
    22     4    28    1
    23    28    29   am
    24    29    30    2
    25    29    32    1
    26    32    33   ar
    27    33    34   ar
    28    34    35   ar
    29    35    36   ar
    30    36    37   ar
    31    37    42    1
    32    42    43   ar
    33    43    44   ar
    34    44    45   ar
    35    45    46   ar
    36    46    47   ar
    37    37    38   ar
    38    38    39   ar
    39    39    40   ar
    40    40    41    1
    41     4     5   ar
    42     5     6   ar
    43    10    11    1
    44    11    12    1
    45    20    15   ar
    46    12     7    1
    47     6     1   ar
    48    40    32   ar
    49    39    34   ar
    50    47    42   ar
    51    23    24    1
    52    28    31    1
@<TRIPOS>MOLECULE
*****
 47 52 0 0 0
SMALL
GASTEIGER

@<TRIPOS>ATOM
      1 C          59.4293   86.8498    9.4221 C.ar    1  UNL1        0.1318
      2 C          59.1350   86.7446    8.0520 C.ar    1  UNL1        0.0356
      3 C          59.3904   87.8251    7.2063 C.ar    1  UNL1        0.0191
      4 C          59.9325   89.0124    7.7226 C.ar    1  UNL1        0.0702
      5 C          60.2411   89.0665    9.0876 C.ar    1  UNL1        0.1149
      6 N          59.9831   88.0024    9.8927 N.ar    1  UNL1       -0.2279
      7 C          58.3491   83.5900   12.1538 C.3     1  UNL1        0.0471
      8 C          59.1365   84.8327   12.6239 C.3     1  UNL1        0.0252
      9 C          58.8617   86.0466   11.7323 C.3     1  UNL1        0.0923
     10 N          59.1890   85.7533   10.3286 N.pl3   1  UNL1       -0.2932
     11 C          59.2785   84.3557    9.8751 C.3     1  UNL1        0.0923
     12 C          58.2484   83.4874   10.6063 C.3     1  UNL1        0.0252
     13 C          58.9645   82.3146   12.7640 C.3     1  UNL1        0.2054
     14 O          59.9334   81.7397   11.8850 O.3     1  UNL1       -0.4757
     15 C          62.0000   81.8399   10.6201 C.ar    1  UNL1        0.0413
     16 C          63.3577   82.1775   10.5314 C.ar    1  UNL1        0.0014
     17 C          64.0170   82.7599   11.6134 C.ar    1  UNL1        0.0064
     18 C          63.3352   83.0073   12.8142 C.ar    1  UNL1        0.0785
     19 C          61.9712   82.6799   12.9037 C.ar    1  UNL1        0.0431
     20 C          61.2955   82.0869   11.8166 C.ar    1  UNL1        0.1371
     21 C          64.0514   83.6241   13.9573 C.2     1  UNL1        0.3381
     22 O          63.4193   83.9144   15.0078 O.2     1  UNL1       -0.2451
     23 O          65.4146   83.9123   13.8997 O.3     1  UNL1       -0.4771
     24 H          65.9587   83.8067   13.0532 H       1  UNL1        0.2954
     25 C          61.3344   81.1757    9.4377 C.3     1  UNL1        0.1717
     26 C          62.2456   79.1502   10.1024 C.3     1  UNL1        0.1746
     27 O          61.0630   79.8151    9.7136 O.3     1  UNL1       -0.3462
     28 N          60.2329   90.1370    6.8784 N.am    1  UNL1       -0.2766
     29 C          59.3859   90.5793    5.8073 C.2     1  UNL1        0.2839
     30 O          58.1496   90.3359    5.8403 O.2     1  UNL1       -0.2665
     31 H          61.0558   90.7310    7.1252 H       1  UNL1        0.1553
     32 C          59.9190   91.3906    4.6987 C.ar    1  UNL1        0.1946
     33 O          59.2776   92.4418    4.2191 O.2     1  UNL1       -0.4492
     34 C          60.0049   92.9526    3.2557 C.ar    1  UNL1        0.1452
     35 C          59.7173   94.0711    2.4813 C.ar    1  UNL1        0.0375
     36 C          60.6474   94.4495    1.4973 C.ar    1  UNL1        0.0031
     37 C          61.8446   93.7084    1.3029 C.ar    1  UNL1        0.0002
     38 C          62.0975   92.5746    2.1120 C.ar    1  UNL1        0.0028
     39 C          61.1522   92.2285    3.0779 C.ar    1  UNL1        0.0337
     40 C          61.1140   91.1966    3.9942 C.ar    1  UNL1        0.0202
     41 C          62.1372   90.1156    4.1711 C.3     1  UNL1        0.0345
     42 C          62.8207   94.1179    0.2614 C.ar    1  UNL1        0.0000
     43 C          62.4529   94.1336   -1.0977 C.ar    1  UNL1        0.0000
     44 C          63.3741   94.5197   -2.0763 C.ar    1  UNL1        0.0000
     45 C          64.6695   94.8925   -1.7115 C.ar    1  UNL1        0.0000
     46 C          65.0469   94.8804   -0.3669 C.ar    1  UNL1        0.0000
     47 C          64.1296   94.4962    0.6162 C.ar    1  UNL1        0.0000
@<TRIPOS>BOND
     1    26    27    1
     2    27    25    1
     3    25    15    1
     4    15    16   ar
     5    16    17   ar
     6    17    18   ar
     7    18    21    1
     8    21    22    2
     9    21    23    1
    10    18    19   ar
    11    19    20   ar
    12    20    14    1
    13    14    13    1
    14    13     7    1
    15     7     8    1
    16     8     9    1
    17     9    10    1
    18    10     1    1
    19     1     2   ar
    20     2     3   ar
    21     3     4   ar
    22     4    28    1
    23    28    29   am
    24    29    30    2
    25    29    32    1
    26    32    33   ar
    27    33    34   ar
    28    34    35   ar
    29    35    36   ar
    30    36    37   ar
    31    37    42    1
    32    42    43   ar
    33    43    44   ar
    34    44    45   ar
    35    45    46   ar
    36    46    47   ar
    37    37    38   ar
    38    38    39   ar
    39    39    40   ar
    40    40    41    1
    41     4     5   ar
    42     5     6   ar
    43    10    11    1
    44    11    12    1
    45    20    15   ar
    46    12     7    1
    47     6     1   ar
    48    40    32   ar
    49    39    34   ar
    50    47    42   ar
    51    23    24    1
    52    28    31    1
@<TRIPOS>MOLECULE
*****
 47 52 0 0 0
SMALL
GASTEIGER

@<TRIPOS>ATOM
      1 C          59.4375   87.1394    9.6610 C.ar    1  UNL1        0.1318
      2 C          60.0037   88.3241   10.1617 C.ar    1  UNL1        0.0356
      3 C          60.2794   89.3792    9.2906 C.ar    1  UNL1        0.0191
      4 C          59.9982   89.2552    7.9211 C.ar    1  UNL1        0.0702
      5 C          59.4050   88.0708    7.4665 C.ar    1  UNL1        0.1149
      6 N          59.1462   87.0560    8.3326 N.ar    1  UNL1       -0.2279
      7 C          58.2994   83.9873   12.4937 C.3     1  UNL1        0.0471
      8 C          59.7486   84.5090   12.3795 C.3     1  UNL1        0.0252
      9 C          59.7930   85.9405   11.8383 C.3     1  UNL1        0.0923
     10 N          59.1289   86.0288   10.5289 N.pl3   1  UNL1       -0.2932
     11 C          58.1759   84.9839   10.1201 C.3     1  UNL1        0.0923
     12 C          57.3884   84.4725   11.3318 C.3     1  UNL1        0.0252
     13 C          58.3004   82.4493   12.6041 C.3     1  UNL1        0.2054
     14 O          59.6062   81.9177   12.3712 O.3     1  UNL1       -0.4757
     15 C          61.1900   80.5365   11.1610 C.ar    1  UNL1        0.0413
     16 C          61.6853   80.0256    9.9532 C.ar    1  UNL1        0.0014
     17 C          61.0950   80.3744    8.7390 C.ar    1  UNL1        0.0064
     18 C          60.0015   81.2527    8.7046 C.ar    1  UNL1        0.0785
     19 C          59.4953   81.7589    9.9142 C.ar    1  UNL1        0.0431
     20 C          60.0874   81.4155   11.1477 C.ar    1  UNL1        0.1371
     21 C          59.3867   81.6169    7.4049 C.2     1  UNL1        0.3381
     22 O          58.7875   80.7388    6.7288 O.2     1  UNL1       -0.2451
     23 O          59.4664   82.9116    6.8926 O.3     1  UNL1       -0.4771
     24 H          60.0224   83.6366    7.3276 H       1  UNL1        0.2954
     25 C          61.8833   80.1631   12.4503 C.3     1  UNL1        0.1717
     26 C          63.1833   80.9934   14.1810 C.3     1  UNL1        0.1746
     27 O          62.8069   81.1645   12.8317 O.3     1  UNL1       -0.3462
     28 N          60.2444   90.3297    6.9977 N.am    1  UNL1       -0.2766
     29 C          59.4151   90.6096    5.8600 C.2     1  UNL1        0.2839
     30 O          58.2029   90.2644    5.8640 O.2     1  UNL1       -0.2665
     31 H          61.0031   91.0101    7.2262 H       1  UNL1        0.1553
     32 C          59.9311   91.3715    4.7091 C.ar    1  UNL1        0.1946
     33 O          59.1887   92.2403    4.0455 O.2     1  UNL1       -0.4492
     34 C          59.9266   92.7566    3.0933 C.ar    1  UNL1        0.1452
     35 C          59.5528   93.7183    2.1612 C.ar    1  UNL1        0.0375
     36 C          60.5129   94.1366    1.2232 C.ar    1  UNL1        0.0031
     37 C          61.8252   93.5906    1.2306 C.ar    1  UNL1        0.0002
     38 C          62.1636   92.6119    2.1959 C.ar    1  UNL1        0.0028
     39 C          61.1855   92.2206    3.1105 C.ar    1  UNL1        0.0337
     40 C          61.2106   91.3046    4.1432 C.ar    1  UNL1        0.0202
     41 C          62.3652   90.4373    4.5452 C.3     1  UNL1        0.0345
     42 C          62.8317   94.0409    0.2360 C.ar    1  UNL1        0.0000
     43 C          62.5246   94.0525   -1.1381 C.ar    1  UNL1        0.0000
     44 C          63.4743   94.4770   -2.0725 C.ar    1  UNL1        0.0000
     45 C          64.7382   94.8926   -1.6481 C.ar    1  UNL1        0.0000
     46 C          65.0554   94.8850   -0.2881 C.ar    1  UNL1        0.0000
     47 C          64.1093   94.4625    0.6510 C.ar    1  UNL1        0.0000
@<TRIPOS>BOND
     1    26    27    1
     2    27    25    1
     3    25    15    1
     4    15    16   ar
     5    16    17   ar
     6    17    18   ar
     7    18    21    1
     8    21    22    2
     9    21    23    1
    10    18    19   ar
    11    19    20   ar
    12    20    14    1
    13    14    13    1
    14    13     7    1
    15     7     8    1
    16     8     9    1
    17     9    10    1
    18    10     1    1
    19     1     2   ar
    20     2     3   ar
    21     3     4   ar
    22     4    28    1
    23    28    29   am
    24    29    30    2
    25    29    32    1
    26    32    33   ar
    27    33    34   ar
    28    34    35   ar
    29    35    36   ar
    30    36    37   ar
    31    37    42    1
    32    42    43   ar
    33    43    44   ar
    34    44    45   ar
    35    45    46   ar
    36    46    47   ar
    37    37    38   ar
    38    38    39   ar
    39    39    40   ar
    40    40    41    1
    41     4     5   ar
    42     5     6   ar
    43    10    11    1
    44    11    12    1
    45    20    15   ar
    46    12     7    1
    47     6     1   ar
    48    40    32   ar
    49    39    34   ar
    50    47    42   ar
    51    23    24    1
    52    28    31    1
@<TRIPOS>MOLECULE
*****
 47 52 0 0 0
SMALL
GASTEIGER

@<TRIPOS>ATOM
      1 C          59.5197   85.6674   10.1188 C.ar    1  UNL1        0.1318
      2 C          58.7989   85.8014    8.9200 C.ar    1  UNL1        0.0356
      3 C          59.1161   86.8335    8.0356 C.ar    1  UNL1        0.0191
      4 C          60.1453   87.7363    8.3450 C.ar    1  UNL1        0.0702
      5 C          60.8608   87.5500    9.5344 C.ar    1  UNL1        0.1149
      6 N          60.5340   86.5385   10.3812 N.ar    1  UNL1       -0.2279
      7 C          58.2897   82.5101   12.9070 C.3     1  UNL1        0.0471
      8 C          58.9899   83.8022   13.3817 C.3     1  UNL1        0.0252
      9 C          58.7624   84.9597   12.4057 C.3     1  UNL1        0.0923
     10 N          59.2295   84.6092   11.0558 N.pl3   1  UNL1       -0.2932
     11 C          59.4052   83.1950   10.6869 C.3     1  UNL1        0.0923
     12 C          58.3385   82.3274   11.3644 C.3     1  UNL1        0.0252
     13 C          58.8845   81.2897   13.6379 C.3     1  UNL1        0.2054
     14 O          60.2818   81.4658   13.8802 O.3     1  UNL1       -0.4757
     15 C          62.4390   82.1615   13.0182 C.ar    1  UNL1        0.0413
     16 C          63.4736   82.0349   12.0807 C.ar    1  UNL1        0.0014
     17 C          63.3987   81.0832   11.0643 C.ar    1  UNL1        0.0064
     18 C          62.2803   80.2432   10.9555 C.ar    1  UNL1        0.0785
     19 C          61.2456   80.3599   11.8997 C.ar    1  UNL1        0.0431
     20 C          61.3095   81.3218   12.9296 C.ar    1  UNL1        0.1371
     21 C          62.2138   79.2383    9.8667 C.2     1  UNL1        0.3381
     22 O          61.5699   79.4974    8.8152 O.2     1  UNL1       -0.2451
     23 O          62.8340   77.9942    9.9776 O.3     1  UNL1       -0.4771
     24 H          63.2738   77.6787   10.8325 H       1  UNL1        0.2954
     25 C          62.5430   83.2314   14.0798 C.3     1  UNL1        0.1717
     26 C          64.0504   84.6363   15.1423 C.3     1  UNL1        0.1746
     27 O          63.8834   83.3888   14.5039 O.3     1  UNL1       -0.3462
     28 N          60.5177   88.7961    7.4472 N.am    1  UNL1       -0.2766
     29 C          59.5867   89.7412    6.8991 C.2     1  UNL1        0.2839
     30 O          58.5187   90.0031    7.5151 O.2     1  UNL1       -0.2665
     31 H          61.5345   88.9554    7.2695 H       1  UNL1        0.1553
     32 C          59.8908   90.4813    5.6617 C.ar    1  UNL1        0.1946
     33 O          61.1289   90.7088    5.2594 O.2     1  UNL1       -0.4492
     34 C          61.0704   91.3748    4.1321 C.ar    1  UNL1        0.1452
     35 C          62.1354   91.8152    3.3540 C.ar    1  UNL1        0.0375
     36 C          61.8428   92.5134    2.1693 C.ar    1  UNL1        0.0031
     37 C          60.4975   92.7598    1.7820 C.ar    1  UNL1        0.0002
     38 C          59.4430   92.2956    2.6044 C.ar    1  UNL1        0.0028
     39 C          59.7708   91.6070    3.7727 C.ar    1  UNL1        0.0337
     40 C          58.9824   91.0493    4.7594 C.ar    1  UNL1        0.0202
     41 C          57.4852   91.0673    4.8287 C.3     1  UNL1        0.0345
     42 C          60.2001   93.4971    0.5278 C.ar    1  UNL1        0.0000
     43 C          58.8775   93.6040    0.0568 C.ar    1  UNL1        0.0000
     44 C          58.6003   94.2988   -1.1246 C.ar    1  UNL1        0.0000
     45 C          59.6367   94.8925   -1.8483 C.ar    1  UNL1        0.0000
     46 C          60.9529   94.7931   -1.3921 C.ar    1  UNL1        0.0000
     47 C          61.2359   94.1003   -0.2108 C.ar    1  UNL1        0.0000
@<TRIPOS>BOND
     1    26    27    1
     2    27    25    1
     3    25    15    1
     4    15    16   ar
     5    16    17   ar
     6    17    18   ar
     7    18    21    1
     8    21    22    2
     9    21    23    1
    10    18    19   ar
    11    19    20   ar
    12    20    14    1
    13    14    13    1
    14    13     7    1
    15     7     8    1
    16     8     9    1
    17     9    10    1
    18    10     1    1
    19     1     2   ar
    20     2     3   ar
    21     3     4   ar
    22     4    28    1
    23    28    29   am
    24    29    30    2
    25    29    32    1
    26    32    33   ar
    27    33    34   ar
    28    34    35   ar
    29    35    36   ar
    30    36    37   ar
    31    37    42    1
    32    42    43   ar
    33    43    44   ar
    34    44    45   ar
    35    45    46   ar
    36    46    47   ar
    37    37    38   ar
    38    38    39   ar
    39    39    40   ar
    40    40    41    1
    41     4     5   ar
    42     5     6   ar
    43    10    11    1
    44    11    12    1
    45    20    15   ar
    46    12     7    1
    47     6     1   ar
    48    40    32   ar
    49    39    34   ar
    50    47    42   ar
    51    23    24    1
    52    28    31    1
