@<TRIPOS>MOLECULE
*****
 47 52 0 0 0
SMALL
GASTEIGER

@<TRIPOS>ATOM
      1 C         -61.9701  -50.0001  -23.4702 C.ar    1  UNL1        0.1318
      2 C         -61.8567  -51.3171  -22.9971 C.ar    1  UNL1        0.0356
      3 C         -62.8417  -52.2522  -23.3185 C.ar    1  UNL1        0.0191
      4 C         -63.9347  -51.8789  -24.1165 C.ar    1  UNL1        0.0702
      5 C         -64.0256  -50.5480  -24.5434 C.ar    1  UNL1        0.1149
      6 N         -63.0539  -49.6548  -24.2190 N.ar    1  UNL1       -0.2279
      7 C         -60.1070  -46.8365  -23.9775 C.3     1  UNL1        0.0810
      8 C         -60.1842  -48.3566  -24.2158 C.3     1  UNL1        0.0995
      9 N         -60.9736  -49.0065  -23.1596 N.pl3   1  UNL1       -0.2928
     10 C         -60.5944  -48.7585  -21.7632 C.3     1  UNL1        0.0923
     11 C         -60.5398  -47.2546  -21.4838 C.3     1  UNL1        0.0257
     12 C         -59.6568  -46.5318  -22.5221 C.3     1  UNL1        0.0540
     13 C         -61.4813  -45.1224  -25.4264 C.3     1  UNL1        0.0723
     14 C         -61.4209  -46.1652  -24.3490 C.2     1  UNL1        0.1525
     15 O         -62.4546  -46.4766  -23.7764 O.2     1  UNL1       -0.2960
     16 C         -59.5993  -45.0143  -22.2449 C.3     1  UNL1        0.2058
     17 O         -60.7666  -44.5734  -21.5492 O.3     1  UNL1       -0.4754
     18 C         -61.1834  -43.2386  -21.4162 C.ar    1  UNL1        0.1388
     19 C         -60.6427  -42.3637  -20.4554 C.ar    1  UNL1        0.0369
     20 C         -61.1011  -41.0482  -20.3676 C.ar    1  UNL1        0.0033
     21 C         -62.0923  -40.5870  -21.2367 C.ar    1  UNL1        0.0066
     22 C         -62.6340  -41.4403  -22.2138 C.ar    1  UNL1        0.0785
     23 C         -62.1743  -42.7683  -22.2869 C.ar    1  UNL1        0.0433
     24 C         -63.6900  -40.9696  -23.1435 C.2     1  UNL1        0.3381
     25 O         -63.9549  -41.6380  -24.1781 O.2     1  UNL1       -0.2451
     26 O         -64.3976  -39.7899  -22.9153 O.3     1  UNL1       -0.4771
     27 H         -64.1685  -39.1528  -22.1637 H       1  UNL1        0.2954
     28 N         -64.9817  -52.8072  -24.4478 N.am    1  UNL1       -0.2766
     29 C         -65.5900  -53.6958  -23.4987 C.2     1  UNL1        0.2839
     30 O         -64.9500  -54.0580  -22.4750 O.2     1  UNL1       -0.2665
     31 H         -65.2389  -52.9195  -25.4540 H       1  UNL1        0.1553
     32 C         -66.9278  -54.2658  -23.7365 C.ar    1  UNL1        0.1946
     33 O         -67.2094  -54.9870  -24.8075 O.2     1  UNL1       -0.4492
     34 C         -68.4701  -55.3382  -24.7367 C.ar    1  UNL1        0.1452
     35 C         -69.1890  -56.0973  -25.6535 C.ar    1  UNL1        0.0375
     36 C         -70.5432  -56.3561  -25.3783 C.ar    1  UNL1        0.0031
     37 C         -71.1556  -55.8547  -24.1977 C.ar    1  UNL1        0.0002
     38 C         -70.3871  -55.0866  -23.2904 C.ar    1  UNL1        0.0028
     39 C         -69.0464  -54.8503  -23.5956 C.ar    1  UNL1        0.0337
     40 C         -68.0594  -54.1633  -22.9175 C.ar    1  UNL1        0.0202
     41 C         -68.1947  -53.4709  -21.5949 C.3     1  UNL1        0.0345
     42 C         -72.5872  -56.1332  -23.9181 C.ar    1  UNL1        0.0000
     43 C         -73.5043  -56.2952  -24.9741 C.ar    1  UNL1        0.0000
     44 C         -74.8518  -56.5573  -24.7080 C.ar    1  UNL1        0.0000
     45 C         -75.2989  -56.6593  -23.3888 C.ar    1  UNL1        0.0000
     46 C         -74.3993  -56.4998  -22.3326 C.ar    1  UNL1        0.0000
     47 C         -73.0505  -56.2386  -22.5928 C.ar    1  UNL1        0.0000
@<TRIPOS>BOND
     1    13    14    1
     2    14    15    2
     3    14     7    1
     4     7     8    1
     5     8     9    1
     6     9     1    1
     7     1     2   ar
     8     2     3   ar
     9     3     4   ar
    10     4    28    1
    11    28    29   am
    12    29    30    2
    13    29    32    1
    14    32    33   ar
    15    33    34   ar
    16    34    35   ar
    17    35    36   ar
    18    36    37   ar
    19    37    42    1
    20    42    43   ar
    21    43    44   ar
    22    44    45   ar
    23    45    46   ar
    24    46    47   ar
    25    37    38   ar
    26    38    39   ar
    27    39    40   ar
    28    40    41    1
    29     4     5   ar
    30     5     6   ar
    31     9    10    1
    32    10    11    1
    33    11    12    1
    34    12    16    1
    35    16    17    1
    36    17    18    1
    37    18    19   ar
    38    19    20   ar
    39    20    21   ar
    40    21    22   ar
    41    22    24    1
    42    24    25    2
    43    24    26    1
    44    22    23   ar
    45    12     7    1
    46    23    18   ar
    47     6     1   ar
    48    40    32   ar
    49    39    34   ar
    50    47    42   ar
    51    28    31    1
    52    26    27    1
@<TRIPOS>MOLECULE
*****
 47 52 0 0 0
SMALL
GASTEIGER

@<TRIPOS>ATOM
      1 C         -67.2679  -55.3146  -22.6185 C.ar    1  UNL1        0.1318
      2 C         -66.0321  -55.6899  -22.0679 C.ar    1  UNL1        0.0356
      3 C         -64.9355  -54.8351  -22.1890 C.ar    1  UNL1        0.0191
      4 C         -65.0705  -53.6045  -22.8508 C.ar    1  UNL1        0.0702
      5 C         -66.3127  -53.2810  -23.4115 C.ar    1  UNL1        0.1149
      6 N         -67.3670  -54.1286  -23.2803 N.ar    1  UNL1       -0.2279
      7 C         -69.8775  -57.2312  -20.8146 C.3     1  UNL1        0.0810
      8 C         -68.4990  -57.2344  -21.5026 C.3     1  UNL1        0.0995
      9 N         -68.4228  -56.1701  -22.5138 N.pl3   1  UNL1       -0.2928
     10 C         -69.4711  -56.1172  -23.5401 C.3     1  UNL1        0.0923
     11 C         -70.8555  -56.0803  -22.8881 C.3     1  UNL1        0.0257
     12 C         -71.0172  -57.2284  -21.8703 C.3     1  UNL1        0.0540
     13 C         -70.1332  -56.3427  -18.3505 C.3     1  UNL1        0.0723
     14 C         -69.9812  -56.0837  -19.8208 C.2     1  UNL1        0.1525
     15 O         -69.9318  -54.9263  -20.2098 O.2     1  UNL1       -0.2960
     16 C         -72.4118  -57.1948  -21.2093 C.3     1  UNL1        0.2058
     17 O         -72.8191  -55.8533  -20.9343 O.3     1  UNL1       -0.4754
     18 C         -73.4882  -55.4234  -19.7765 C.ar    1  UNL1        0.1388
     19 C         -74.3850  -56.2430  -19.0661 C.ar    1  UNL1        0.0369
     20 C         -75.0245  -55.7580  -17.9241 C.ar    1  UNL1        0.0033
     21 C         -74.7737  -54.4606  -17.4722 C.ar    1  UNL1        0.0066
     22 C         -73.8693  -53.6314  -18.1584 C.ar    1  UNL1        0.0785
     23 C         -73.2385  -54.1247  -19.3156 C.ar    1  UNL1        0.0433
     24 C         -73.5926  -52.2493  -17.6959 C.2     1  UNL1        0.3381
     25 O         -73.5698  -51.3044  -18.5289 O.2     1  UNL1       -0.2451
     26 O         -73.3392  -51.9597  -16.3556 O.3     1  UNL1       -0.4771
     27 H         -73.2400  -52.6789  -15.6512 H       1  UNL1        0.2954
     28 N         -63.9579  -52.7088  -23.0174 N.am    1  UNL1       -0.2766
     29 C         -63.8115  -51.8173  -24.1327 C.2     1  UNL1        0.2839
     30 O         -64.3620  -52.0897  -25.2334 O.2     1  UNL1       -0.2665
     31 H         -63.1591  -52.7876  -22.3490 H       1  UNL1        0.1553
     32 C         -62.9565  -50.6204  -24.0452 C.ar    1  UNL1        0.1946
     33 O         -63.2290  -49.5066  -24.7020 O.2     1  UNL1       -0.4492
     34 C         -62.2868  -48.6373  -24.4297 C.ar    1  UNL1        0.1452
     35 C         -62.1715  -47.3372  -24.9095 C.ar    1  UNL1        0.0375
     36 C         -61.0705  -46.5726  -24.4857 C.ar    1  UNL1        0.0031
     37 C         -60.1060  -47.1157  -23.5940 C.ar    1  UNL1        0.0002
     38 C         -60.2617  -48.4436  -23.1290 C.ar    1  UNL1        0.0028
     39 C         -61.3666  -49.1725  -23.5699 C.ar    1  UNL1        0.0337
     40 C         -61.7884  -50.4569  -23.2897 C.ar    1  UNL1        0.0202
     41 C         -61.1250  -51.4393  -22.3722 C.3     1  UNL1        0.0345
     42 C         -58.9463  -46.2991  -23.1542 C.ar    1  UNL1        0.0000
     43 C         -57.7733  -46.9181  -22.6814 C.ar    1  UNL1        0.0000
     44 C         -56.6828  -46.1468  -22.2677 C.ar    1  UNL1        0.0000
     45 C         -56.7502  -44.7528  -22.3197 C.ar    1  UNL1        0.0000
     46 C         -57.9082  -44.1269  -22.7860 C.ar    1  UNL1        0.0000
     47 C         -59.0014  -44.8931  -23.2019 C.ar    1  UNL1        0.0000
@<TRIPOS>BOND
     1    13    14    1
     2    14    15    2
     3    14     7    1
     4     7     8    1
     5     8     9    1
     6     9     1    1
     7     1     2   ar
     8     2     3   ar
     9     3     4   ar
    10     4    28    1
    11    28    29   am
    12    29    30    2
    13    29    32    1
    14    32    33   ar
    15    33    34   ar
    16    34    35   ar
    17    35    36   ar
    18    36    37   ar
    19    37    42    1
    20    42    43   ar
    21    43    44   ar
    22    44    45   ar
    23    45    46   ar
    24    46    47   ar
    25    37    38   ar
    26    38    39   ar
    27    39    40   ar
    28    40    41    1
    29     4     5   ar
    30     5     6   ar
    31     9    10    1
    32    10    11    1
    33    11    12    1
    34    12    16    1
    35    16    17    1
    36    17    18    1
    37    18    19   ar
    38    19    20   ar
    39    20    21   ar
    40    21    22   ar
    41    22    24    1
    42    24    25    2
    43    24    26    1
    44    22    23   ar
    45    12     7    1
    46    23    18   ar
    47     6     1   ar
    48    40    32   ar
    49    39    34   ar
    50    47    42   ar
    51    28    31    1
    52    26    27    1
@<TRIPOS>MOLECULE
*****
 47 52 0 0 0
SMALL
GASTEIGER

@<TRIPOS>ATOM
      1 C         -65.1339  -53.8006  -23.2492 C.ar    1  UNL1        0.1318
      2 C         -63.8257  -53.5169  -22.8256 C.ar    1  UNL1        0.0356
      3 C         -63.1946  -52.3538  -23.2692 C.ar    1  UNL1        0.0191
      4 C         -63.8675  -51.4700  -24.1275 C.ar    1  UNL1        0.0702
      5 C         -65.1603  -51.8046  -24.5500 C.ar    1  UNL1        0.1149
      6 N         -65.7555  -52.9422  -24.1043 N.ar    1  UNL1       -0.2279
      7 C         -66.8154  -55.9964  -20.7818 C.3     1  UNL1        0.0810
      8 C         -65.5160  -55.6180  -21.5179 C.3     1  UNL1        0.0995
      9 N         -65.8185  -54.9912  -22.8128 N.pl3   1  UNL1       -0.2928
     10 C         -66.7020  -55.7109  -23.7382 C.3     1  UNL1        0.0923
     11 C         -68.0182  -56.0742  -23.0463 C.3     1  UNL1        0.0257
     12 C         -67.7576  -56.8070  -21.7139 C.3     1  UNL1        0.0540
     13 C         -67.7524  -54.6586  -18.7181 C.3     1  UNL1        0.0723
     14 C         -67.4787  -54.7615  -20.1900 C.2     1  UNL1        0.1525
     15 O         -67.7909  -53.8253  -20.9108 O.2     1  UNL1       -0.2960
     16 C         -69.0824  -57.1746  -21.0118 C.3     1  UNL1        0.2058
     17 O         -70.1936  -56.5344  -21.6412 O.3     1  UNL1       -0.4754
     18 C         -71.3670  -56.1120  -20.9948 C.ar    1  UNL1        0.1388
     19 C         -72.6084  -56.7500  -21.1757 C.ar    1  UNL1        0.0369
     20 C         -73.7418  -56.2811  -20.5095 C.ar    1  UNL1        0.0033
     21 C         -73.6523  -55.1822  -19.6523 C.ar    1  UNL1        0.0066
     22 C         -72.4185  -54.5408  -19.4455 C.ar    1  UNL1        0.0785
     23 C         -71.2837  -55.0130  -20.1308 C.ar    1  UNL1        0.0433
     24 C         -72.3042  -53.3699  -18.5417 C.2     1  UNL1        0.3381
     25 O         -72.1873  -53.5481  -17.3000 O.2     1  UNL1       -0.2451
     26 O         -72.3373  -52.0624  -19.0251 O.3     1  UNL1       -0.4771
     27 H         -72.5314  -51.8433  -19.9935 H       1  UNL1        0.2954
     28 N         -63.2414  -50.2750  -24.6254 N.am    1  UNL1       -0.2766
     29 C         -63.5757  -49.6625  -25.8798 C.2     1  UNL1        0.2839
     30 O         -64.0622  -50.3588  -26.8110 O.2     1  UNL1       -0.2665
     31 H         -62.4242  -49.8924  -24.0993 H       1  UNL1        0.1553
     32 C         -63.2841  -48.2410  -26.1361 C.ar    1  UNL1        0.1946
     33 O         -62.9130  -47.4109  -25.1772 O.2     1  UNL1       -0.4492
     34 C         -62.7396  -46.2276  -25.7133 C.ar    1  UNL1        0.1452
     35 C         -62.3549  -45.0562  -25.0704 C.ar    1  UNL1        0.0375
     36 C         -62.2302  -43.8890  -25.8441 C.ar    1  UNL1        0.0031
     37 C         -62.4909  -43.9096  -27.2412 C.ar    1  UNL1        0.0002
     38 C         -62.8795  -45.1238  -27.8563 C.ar    1  UNL1        0.0028
     39 C         -62.9925  -46.2622  -27.0576 C.ar    1  UNL1        0.0337
     40 C         -63.3319  -47.5654  -27.3621 C.ar    1  UNL1        0.0202
     41 C         -63.6699  -48.1118  -28.7164 C.3     1  UNL1        0.0345
     42 C         -62.3573  -42.6702  -28.0483 C.ar    1  UNL1        0.0000
     43 C         -63.4067  -42.2443  -28.8848 C.ar    1  UNL1        0.0000
     44 C         -63.2781  -41.0770  -29.6439 C.ar    1  UNL1        0.0000
     45 C         -62.1039  -40.3237  -29.5780 C.ar    1  UNL1        0.0000
     46 C         -61.0556  -40.7360  -28.7526 C.ar    1  UNL1        0.0000
     47 C         -61.1789  -41.9019  -27.9906 C.ar    1  UNL1        0.0000
@<TRIPOS>BOND
     1    13    14    1
     2    14    15    2
     3    14     7    1
     4     7     8    1
     5     8     9    1
     6     9     1    1
     7     1     2   ar
     8     2     3   ar
     9     3     4   ar
    10     4    28    1
    11    28    29   am
    12    29    30    2
    13    29    32    1
    14    32    33   ar
    15    33    34   ar
    16    34    35   ar
    17    35    36   ar
    18    36    37   ar
    19    37    42    1
    20    42    43   ar
    21    43    44   ar
    22    44    45   ar
    23    45    46   ar
    24    46    47   ar
    25    37    38   ar
    26    38    39   ar
    27    39    40   ar
    28    40    41    1
    29     4     5   ar
    30     5     6   ar
    31     9    10    1
    32    10    11    1
    33    11    12    1
    34    12    16    1
    35    16    17    1
    36    17    18    1
    37    18    19   ar
    38    19    20   ar
    39    20    21   ar
    40    21    22   ar
    41    22    24    1
    42    24    25    2
    43    24    26    1
    44    22    23   ar
    45    12     7    1
    46    23    18   ar
    47     6     1   ar
    48    40    32   ar
    49    39    34   ar
    50    47    42   ar
    51    28    31    1
    52    26    27    1
@<TRIPOS>MOLECULE
*****
 47 52 0 0 0
SMALL
GASTEIGER

@<TRIPOS>ATOM
      1 C         -61.8241  -42.3787  -24.1044 C.ar    1  UNL1        0.1318
      2 C         -61.2809  -42.1286  -22.8342 C.ar    1  UNL1        0.0356
      3 C         -61.9945  -41.3521  -21.9200 C.ar    1  UNL1        0.0191
      4 C         -63.2511  -40.8313  -22.2669 C.ar    1  UNL1        0.0702
      5 C         -63.7441  -41.0794  -23.5543 C.ar    1  UNL1        0.1149
      6 N         -63.0320  -41.8392  -24.4277 N.ar    1  UNL1       -0.2279
      7 C         -61.0852  -45.4626  -26.0230 C.3     1  UNL1        0.0810
      8 C         -60.7630  -44.5765  -24.8046 C.3     1  UNL1        0.0995
      9 N         -61.1176  -43.1757  -25.0751 N.pl3   1  UNL1       -0.2928
     10 C         -60.5712  -42.5467  -26.2837 C.3     1  UNL1        0.0923
     11 C         -60.9022  -43.3871  -27.5195 C.3     1  UNL1        0.0257
     12 C         -60.4773  -44.8565  -27.3178 C.3     1  UNL1        0.0540
     13 C         -63.1513  -47.0916  -25.9613 C.3     1  UNL1        0.0723
     14 C         -62.5824  -45.7128  -26.1265 C.2     1  UNL1        0.1525
     15 O         -63.3485  -44.7844  -26.3377 O.2     1  UNL1       -0.2960
     16 C         -60.8101  -45.7084  -28.5615 C.3     1  UNL1        0.2058
     17 O         -59.7625  -45.6366  -29.5301 O.3     1  UNL1       -0.4754
     18 C         -59.8404  -44.9837  -30.7714 C.ar    1  UNL1        0.1388
     19 C         -58.7637  -44.9366  -31.6765 C.ar    1  UNL1        0.0369
     20 C         -58.8994  -44.2676  -32.8940 C.ar    1  UNL1        0.0033
     21 C         -60.1057  -43.6480  -33.2280 C.ar    1  UNL1        0.0066
     22 C         -61.1983  -43.6972  -32.3448 C.ar    1  UNL1        0.0785
     23 C         -61.0483  -44.3634  -31.1144 C.ar    1  UNL1        0.0433
     24 C         -62.4864  -43.0420  -32.6803 C.2     1  UNL1        0.3381
     25 O         -63.2353  -42.6263  -31.7564 O.2     1  UNL1       -0.2451
     26 O         -62.9079  -42.8822  -33.9999 O.3     1  UNL1       -0.4771
     27 H         -62.4092  -43.2815  -34.7842 H       1  UNL1        0.2954
     28 N         -64.0045  -40.0065  -21.3615 N.am    1  UNL1       -0.2766
     29 C         -63.4618  -38.8633  -20.6841 C.2     1  UNL1        0.2839
     30 O         -62.2232  -38.7925  -20.4612 O.2     1  UNL1       -0.2665
     31 H         -64.9660  -40.3178  -21.0972 H       1  UNL1        0.1553
     32 C         -64.3372  -37.7980  -20.1645 C.ar    1  UNL1        0.1946
     33 O         -63.8648  -36.7453  -19.5204 O.2     1  UNL1       -0.4492
     34 C         -64.8814  -35.9916  -19.1798 C.ar    1  UNL1        0.1452
     35 C         -64.8462  -34.7892  -18.4820 C.ar    1  UNL1        0.0375
     36 C         -66.0666  -34.1424  -18.2199 C.ar    1  UNL1        0.0031
     37 C         -67.2974  -34.7038  -18.6561 C.ar    1  UNL1        0.0002
     38 C         -67.2881  -35.9295  -19.3641 C.ar    1  UNL1        0.0028
     39 C         -66.0587  -36.5429  -19.6067 C.ar    1  UNL1        0.0337
     40 C         -65.7315  -37.7107  -20.2664 C.ar    1  UNL1        0.0202
     41 C         -66.6794  -38.6579  -20.9381 C.3     1  UNL1        0.0345
     42 C         -68.5805  -34.0123  -18.3723 C.ar    1  UNL1        0.0000
     43 C         -69.7868  -34.4890  -18.9200 C.ar    1  UNL1        0.0000
     44 C         -70.9936  -33.8358  -18.6513 C.ar    1  UNL1        0.0000
     45 C         -71.0107  -32.7019  -17.8362 C.ar    1  UNL1        0.0000
     46 C         -69.8208  -32.2188  -17.2875 C.ar    1  UNL1        0.0000
     47 C         -68.6112  -32.8684  -17.5520 C.ar    1  UNL1        0.0000
@<TRIPOS>BOND
     1    13    14    1
     2    14    15    2
     3    14     7    1
     4     7     8    1
     5     8     9    1
     6     9     1    1
     7     1     2   ar
     8     2     3   ar
     9     3     4   ar
    10     4    28    1
    11    28    29   am
    12    29    30    2
    13    29    32    1
    14    32    33   ar
    15    33    34   ar
    16    34    35   ar
    17    35    36   ar
    18    36    37   ar
    19    37    42    1
    20    42    43   ar
    21    43    44   ar
    22    44    45   ar
    23    45    46   ar
    24    46    47   ar
    25    37    38   ar
    26    38    39   ar
    27    39    40   ar
    28    40    41    1
    29     4     5   ar
    30     5     6   ar
    31     9    10    1
    32    10    11    1
    33    11    12    1
    34    12    16    1
    35    16    17    1
    36    17    18    1
    37    18    19   ar
    38    19    20   ar
    39    20    21   ar
    40    21    22   ar
    41    22    24    1
    42    24    25    2
    43    24    26    1
    44    22    23   ar
    45    12     7    1
    46    23    18   ar
    47     6     1   ar
    48    40    32   ar
    49    39    34   ar
    50    47    42   ar
    51    28    31    1
    52    26    27    1
@<TRIPOS>MOLECULE
*****
 47 52 0 0 0
SMALL
GASTEIGER

@<TRIPOS>ATOM
      1 C         -61.0998  -42.4149  -22.1057 C.ar    1  UNL1        0.1318
      2 C         -60.6430  -42.1266  -20.8098 C.ar    1  UNL1        0.0356
      3 C         -61.2711  -41.1282  -20.0638 C.ar    1  UNL1        0.0191
      4 C         -62.3578  -40.4226  -20.6040 C.ar    1  UNL1        0.0702
      5 C         -62.7635  -40.7205  -21.9111 C.ar    1  UNL1        0.1149
      6 N         -62.1376  -41.6976  -22.6186 N.ar    1  UNL1       -0.2279
      7 C         -59.5451  -45.7240  -22.7142 C.3     1  UNL1        0.0810
      8 C         -59.3478  -44.2294  -22.3966 C.3     1  UNL1        0.0995
      9 N         -60.4772  -43.4385  -22.9065 N.pl3   1  UNL1       -0.2928
     10 C         -60.8386  -43.5846  -24.3218 C.3     1  UNL1        0.0923
     11 C         -61.0737  -45.0579  -24.6637 C.3     1  UNL1        0.0257
     12 C         -59.8784  -45.9256  -24.2181 C.3     1  UNL1        0.0540
     13 C         -60.3280  -47.6539  -21.1052 C.3     1  UNL1        0.0723
     14 C         -60.5807  -46.3402  -21.7853 C.2     1  UNL1        0.1525
     15 O         -61.6367  -45.7635  -21.5716 O.2     1  UNL1       -0.2960
     16 C         -60.1113  -47.4129  -24.5600 C.3     1  UNL1        0.2058
     17 O         -61.4726  -47.6509  -24.9223 O.3     1  UNL1       -0.4754
     18 C         -62.2154  -48.7987  -24.6001 C.ar    1  UNL1        0.1388
     19 C         -63.5475  -48.9853  -25.0141 C.ar    1  UNL1        0.0369
     20 C         -64.2367  -50.1458  -24.6583 C.ar    1  UNL1        0.0033
     21 C         -63.6086  -51.1341  -23.8973 C.ar    1  UNL1        0.0066
     22 C         -62.2735  -50.9742  -23.4873 C.ar    1  UNL1        0.0785
     23 C         -61.5906  -49.7955  -23.8403 C.ar    1  UNL1        0.0433
     24 C         -61.5906  -52.0112  -22.6754 C.2     1  UNL1        0.3381
     25 O         -60.3789  -51.8631  -22.3636 O.2     1  UNL1       -0.2451
     26 O         -62.2489  -53.1657  -22.2534 O.3     1  UNL1       -0.4771
     27 H         -63.1869  -53.3991  -22.5519 H       1  UNL1        0.2954
     28 N         -63.0142  -39.3706  -19.8759 N.am    1  UNL1       -0.2766
     29 C         -62.9850  -37.9902  -20.2682 C.2     1  UNL1        0.2839
     30 O         -62.0278  -37.5526  -20.9618 O.2     1  UNL1       -0.2665
     31 H         -63.4439  -39.6054  -18.9531 H       1  UNL1        0.1553
     32 C         -64.0154  -37.0439  -19.8057 C.ar    1  UNL1        0.1946
     33 O         -63.7150  -35.9296  -19.1620 O.2     1  UNL1       -0.4492
     34 C         -64.8362  -35.3132  -18.8783 C.ar    1  UNL1        0.1452
     35 C         -64.9908  -34.1079  -18.2022 C.ar    1  UNL1        0.0375
     36 C         -66.2963  -33.6254  -18.0035 C.ar    1  UNL1        0.0031
     37 C         -67.4217  -34.3508  -18.4805 C.ar    1  UNL1        0.0002
     38 C         -67.2196  -35.5734  -19.1646 C.ar    1  UNL1        0.0028
     39 C         -65.9105  -36.0213  -19.3440 C.ar    1  UNL1        0.0337
     40 C         -65.4031  -37.1437  -19.9676 C.ar    1  UNL1        0.0202
     41 C         -66.1872  -38.2169  -20.6608 C.3     1  UNL1        0.0345
     42 C         -68.7962  -33.8321  -18.2636 C.ar    1  UNL1        0.0000
     43 C         -69.0184  -32.7218  -17.4267 C.ar    1  UNL1        0.0000
     44 C         -70.3136  -32.2355  -17.2241 C.ar    1  UNL1        0.0000
     45 C         -71.3994  -32.8502  -17.8516 C.ar    1  UNL1        0.0000
     46 C         -71.1922  -33.9527  -18.6835 C.ar    1  UNL1        0.0000
     47 C         -69.8990  -34.4427  -18.8905 C.ar    1  UNL1        0.0000
@<TRIPOS>BOND
     1    13    14    1
     2    14    15    2
     3    14     7    1
     4     7     8    1
     5     8     9    1
     6     9     1    1
     7     1     2   ar
     8     2     3   ar
     9     3     4   ar
    10     4    28    1
    11    28    29   am
    12    29    30    2
    13    29    32    1
    14    32    33   ar
    15    33    34   ar
    16    34    35   ar
    17    35    36   ar
    18    36    37   ar
    19    37    42    1
    20    42    43   ar
    21    43    44   ar
    22    44    45   ar
    23    45    46   ar
    24    46    47   ar
    25    37    38   ar
    26    38    39   ar
    27    39    40   ar
    28    40    41    1
    29     4     5   ar
    30     5     6   ar
    31     9    10    1
    32    10    11    1
    33    11    12    1
    34    12    16    1
    35    16    17    1
    36    17    18    1
    37    18    19   ar
    38    19    20   ar
    39    20    21   ar
    40    21    22   ar
    41    22    24    1
    42    24    25    2
    43    24    26    1
    44    22    23   ar
    45    12     7    1
    46    23    18   ar
    47     6     1   ar
    48    40    32   ar
    49    39    34   ar
    50    47    42   ar
    51    28    31    1
    52    26    27    1
@<TRIPOS>MOLECULE
*****
 47 52 0 0 0
SMALL
GASTEIGER

@<TRIPOS>ATOM
      1 C         -62.1532  -43.9332  -23.4702 C.ar    1  UNL1        0.1318
      2 C         -62.0804  -44.1279  -22.0817 C.ar    1  UNL1        0.0356
      3 C         -62.5950  -43.1567  -21.2216 C.ar    1  UNL1        0.0191
      4 C         -63.1885  -41.9962  -21.7429 C.ar    1  UNL1        0.0702
      5 C         -63.2145  -41.8268  -23.1331 C.ar    1  UNL1        0.1149
      6 N         -62.7081  -42.7865  -23.9514 N.ar    1  UNL1       -0.2279
      7 C         -62.2657  -46.1449  -26.4422 C.3     1  UNL1        0.0810
      8 C         -62.4811  -45.9882  -24.9248 C.3     1  UNL1        0.0995
      9 N         -61.6331  -44.9131  -24.3900 N.pl3   1  UNL1       -0.2928
     10 C         -60.1925  -44.9683  -24.6668 C.3     1  UNL1        0.0923
     11 C         -59.9422  -45.0917  -26.1718 C.3     1  UNL1        0.0257
     12 C         -60.7519  -46.2598  -26.7721 C.3     1  UNL1        0.0540
     13 C         -63.9837  -45.3236  -28.2588 C.3     1  UNL1        0.0723
     14 C         -62.9594  -45.0250  -27.2036 C.2     1  UNL1        0.1525
     15 O         -62.6961  -43.8575  -26.9564 O.2     1  UNL1       -0.2960
     16 C         -60.5034  -46.3877  -28.2904 C.3     1  UNL1        0.2058
     17 O         -59.9320  -45.1909  -28.8213 O.3     1  UNL1       -0.4754
     18 C         -59.9813  -44.7884  -30.1661 C.ar    1  UNL1        0.1388
     19 C         -58.9164  -44.9950  -31.0628 C.ar    1  UNL1        0.0369
     20 C         -59.0219  -44.5681  -32.3876 C.ar    1  UNL1        0.0033
     21 C         -60.1865  -43.9413  -32.8362 C.ar    1  UNL1        0.0066
     22 C         -61.2677  -43.7398  -31.9606 C.ar    1  UNL1        0.0785
     23 C         -61.1476  -44.1626  -30.6238 C.ar    1  UNL1        0.0433
     24 C         -62.5114  -43.0727  -32.4178 C.2     1  UNL1        0.3381
     25 O         -63.2667  -42.5154  -31.5774 O.2     1  UNL1       -0.2451
     26 O         -62.8845  -43.0546  -33.7612 O.3     1  UNL1       -0.4771
     27 H         -62.3825  -43.5676  -34.4740 H       1  UNL1        0.2954
     28 N         -63.7070  -40.9622  -20.8887 N.am    1  UNL1       -0.2766
     29 C         -63.1595  -39.6373  -20.8171 C.2     1  UNL1        0.2839
     30 O         -61.9500  -39.4387  -21.1112 O.2     1  UNL1       -0.2665
     31 H         -64.4523  -41.2186  -20.2032 H       1  UNL1        0.1553
     32 C         -63.9638  -38.5054  -20.3240 C.ar    1  UNL1        0.1946
     33 O         -63.4237  -37.4702  -19.7051 O.2     1  UNL1       -0.4492
     34 C         -64.3891  -36.6444  -19.3834 C.ar    1  UNL1        0.1452
     35 C         -64.2757  -35.4304  -18.7147 C.ar    1  UNL1        0.0375
     36 C         -65.4514  -34.6998  -18.4691 C.ar    1  UNL1        0.0031
     37 C         -66.7163  -35.1908  -18.8925 C.ar    1  UNL1        0.0002
     38 C         -66.7870  -36.4313  -19.5708 C.ar    1  UNL1        0.0028
     39 C         -65.6000  -37.1285  -19.7978 C.ar    1  UNL1        0.0337
     40 C         -65.3495  -38.3306  -20.4289 C.ar    1  UNL1        0.0202
     41 C         -66.3573  -39.2304  -21.0783 C.3     1  UNL1        0.0345
     42 C         -67.9518  -34.4111  -18.6264 C.ar    1  UNL1        0.0000
     43 C         -67.9305  -33.3165  -17.7410 C.ar    1  UNL1        0.0000
     44 C         -69.0953  -32.5841  -17.4920 C.ar    1  UNL1        0.0000
     45 C         -70.2919  -32.9351  -18.1210 C.ar    1  UNL1        0.0000
     46 C         -70.3263  -34.0192  -19.0007 C.ar    1  UNL1        0.0000
     47 C         -69.1643  -34.7546  -19.2542 C.ar    1  UNL1        0.0000
@<TRIPOS>BOND
     1    13    14    1
     2    14    15    2
     3    14     7    1
     4     7     8    1
     5     8     9    1
     6     9     1    1
     7     1     2   ar
     8     2     3   ar
     9     3     4   ar
    10     4    28    1
    11    28    29   am
    12    29    30    2
    13    29    32    1
    14    32    33   ar
    15    33    34   ar
    16    34    35   ar
    17    35    36   ar
    18    36    37   ar
    19    37    42    1
    20    42    43   ar
    21    43    44   ar
    22    44    45   ar
    23    45    46   ar
    24    46    47   ar
    25    37    38   ar
    26    38    39   ar
    27    39    40   ar
    28    40    41    1
    29     4     5   ar
    30     5     6   ar
    31     9    10    1
    32    10    11    1
    33    11    12    1
    34    12    16    1
    35    16    17    1
    36    17    18    1
    37    18    19   ar
    38    19    20   ar
    39    20    21   ar
    40    21    22   ar
    41    22    24    1
    42    24    25    2
    43    24    26    1
    44    22    23   ar
    45    12     7    1
    46    23    18   ar
    47     6     1   ar
    48    40    32   ar
    49    39    34   ar
    50    47    42   ar
    51    28    31    1
    52    26    27    1
