@<TRIPOS>MOLECULE
*****
 47 52 0 0 0
SMALL
GASTEIGER

@<TRIPOS>ATOM
      1 C          11.7794   80.9745   25.2550 C.ar    1  UNL1        0.0702
      2 C          13.1538   80.7683   25.0672 C.ar    1  UNL1        0.0191
      3 C          13.9639   81.8103   24.6125 C.ar    1  UNL1        0.0356
      4 C          13.3937   83.0649   24.3275 C.ar    1  UNL1        0.1318
      5 N          12.0507   83.2268   24.4950 N.ar    1  UNL1       -0.2279
      6 C          11.2432   82.2267   24.9355 C.ar    1  UNL1        0.1149
      7 N          14.2015   84.1739   23.8652 N.pl3   1  UNL1       -0.2919
      8 C          13.8685   85.5573   24.2469 C.3     1  UNL1        0.0924
      9 C          14.6577   86.5835   23.4212 C.3     1  UNL1        0.0266
     10 C          14.6201   86.2194   21.9224 C.3     1  UNL1        0.0613
     11 C          15.1183   84.7584   21.6445 C.3     1  UNL1        0.0745
     12 N          14.1598   84.0575   20.7843 N.3     1  UNL1       -0.3207
     13 C          15.3264   83.9533   22.9437 C.3     1  UNL1        0.1077
     14 H          14.5533   83.1193   20.5404 H       1  UNL1        0.1189
     15 H          14.0864   84.5749   19.8790 H       1  UNL1        0.1189
     16 C          15.4281   87.2567   21.1152 C.3     1  UNL1        0.2067
     17 O          14.6711   88.4483   20.8974 O.3     1  UNL1       -0.4754
     18 C          13.7224   88.6395   19.8792 C.ar    1  UNL1        0.1388
     19 C          12.3491   88.8082   20.1387 C.ar    1  UNL1        0.0369
     20 C          11.4522   88.9895   19.0841 C.ar    1  UNL1        0.0033
     21 C          11.9105   89.0078   17.7653 C.ar    1  UNL1        0.0066
     22 C          13.2786   88.8459   17.4865 C.ar    1  UNL1        0.0785
     23 C          14.1755   88.6643   18.5541 C.ar    1  UNL1        0.0433
     24 C          13.7717   88.8648   16.0915 C.2     1  UNL1        0.3381
     25 O          15.0088   88.9103   15.8518 O.2     1  UNL1       -0.2451
     26 O          12.8726   88.8328   15.0285 O.3     1  UNL1       -0.4771
     27 H          13.1996   88.8454   14.0698 H       1  UNL1        0.2954
     28 C           9.8400   79.3727   24.9009 C.2     1  UNL1        0.2839
     29 O           9.5691   79.8603   23.7711 O.2     1  UNL1       -0.2665
     30 N          10.9066   79.9211   25.6952 N.am    1  UNL1       -0.2766
     31 H          11.1049   79.5005   26.6291 H       1  UNL1        0.1553
     32 C           8.1655   79.2046   27.6673 C.3     1  UNL1        0.0345
     33 C           8.2828   78.1818   26.5782 C.ar    1  UNL1        0.0202
     34 C           9.0235   78.2489   25.3915 C.ar    1  UNL1        0.1946
     35 O           8.9165   77.1115   24.7272 O.2     1  UNL1       -0.4492
     36 C           8.1253   76.3198   25.4092 C.ar    1  UNL1        0.1452
     37 C           7.7296   75.0287   25.0772 C.ar    1  UNL1        0.0375
     38 C           6.8684   74.3547   25.9610 C.ar    1  UNL1        0.0031
     39 C           6.4188   74.9772   27.1572 C.ar    1  UNL1        0.0002
     40 C           6.8476   76.2924   27.4579 C.ar    1  UNL1        0.0028
     41 C           7.7001   76.9307   26.5571 C.ar    1  UNL1        0.0337
     42 C           5.5092   74.2558   28.0832 C.ar    1  UNL1        0.0000
     43 C           5.2173   72.8931   27.8831 C.ar    1  UNL1        0.0000
     44 C           4.3597   72.2169   28.7561 C.ar    1  UNL1        0.0000
     45 C           3.7854   72.8902   29.8365 C.ar    1  UNL1        0.0000
     46 C           4.0672   74.2418   30.0460 C.ar    1  UNL1        0.0000
     47 C           4.9234   74.9235   29.1757 C.ar    1  UNL1        0.0000
@<TRIPOS>BOND
     1    32    33    1
     2    33    34   ar
     3    34    28    1
     4    28    29    2
     5    28    30   am
     6    30     1    1
     7     1     2   ar
     8     2     3   ar
     9     3     4   ar
    10     4     7    1
    11     7     8    1
    12     8     9    1
    13     9    10    1
    14    10    16    1
    15    16    17    1
    16    17    18    1
    17    18    19   ar
    18    19    20   ar
    19    20    21   ar
    20    21    22   ar
    21    22    24    1
    22    24    25    2
    23    24    26    1
    24    22    23   ar
    25    10    11    1
    26    11    12    1
    27    11    13    1
    28     4     5   ar
    29     5     6   ar
    30    34    35   ar
    31    35    36   ar
    32    36    37   ar
    33    37    38   ar
    34    38    39   ar
    35    39    42    1
    36    42    43   ar
    37    43    44   ar
    38    44    45   ar
    39    45    46   ar
    40    46    47   ar
    41    39    40   ar
    42    40    41   ar
    43    41    33   ar
    44     6     1   ar
    45    41    36   ar
    46    13     7    1
    47    47    42   ar
    48    23    18   ar
    49    30    31    1
    50    26    27    1
    51    12    14    1
    52    12    15    1
@<TRIPOS>MOLECULE
*****
 47 52 0 0 0
SMALL
GASTEIGER

@<TRIPOS>ATOM
      1 C          11.6590   80.8904   25.2763 C.ar    1  UNL1        0.0702
      2 C          13.0270   80.6893   25.0413 C.ar    1  UNL1        0.0191
      3 C          13.8254   81.7453   24.5984 C.ar    1  UNL1        0.0356
      4 C          13.2495   83.0093   24.3729 C.ar    1  UNL1        0.1318
      5 N          11.9123   83.1668   24.5853 N.ar    1  UNL1       -0.2279
      6 C          11.1161   82.1531   25.0153 C.ar    1  UNL1        0.1149
      7 N          14.0455   84.1326   23.9248 N.pl3   1  UNL1       -0.2919
      8 C          13.6549   85.5128   24.2609 C.3     1  UNL1        0.0924
      9 C          14.4518   86.5454   23.4507 C.3     1  UNL1        0.0266
     10 C          14.4951   86.1503   21.9600 C.3     1  UNL1        0.0613
     11 C          15.0480   84.6996   21.7368 C.3     1  UNL1        0.0745
     12 N          14.1516   83.9531   20.8484 N.3     1  UNL1       -0.3207
     13 C          15.2183   83.9274   23.0612 C.3     1  UNL1        0.1077
     14 H          14.5832   83.0225   20.6432 H       1  UNL1        0.1189
     15 H          14.1057   84.4498   19.9298 H       1  UNL1        0.1189
     16 C          15.3096   87.1950   21.1690 C.3     1  UNL1        0.2067
     17 O          14.4949   87.8688   20.2084 O.3     1  UNL1       -0.4754
     18 C          14.4471   87.5842   18.8336 C.ar    1  UNL1        0.1388
     19 C          14.1234   88.5535   17.8653 C.ar    1  UNL1        0.0369
     20 C          14.0869   88.2098   16.5125 C.ar    1  UNL1        0.0033
     21 C          14.3737   86.9040   16.1098 C.ar    1  UNL1        0.0066
     22 C          14.7038   85.9235   17.0614 C.ar    1  UNL1        0.0785
     23 C          14.7389   86.2777   18.4217 C.ar    1  UNL1        0.0433
     24 C          15.0096   84.5378   16.6420 C.2     1  UNL1        0.3381
     25 O          16.1396   84.0325   16.8818 O.2     1  UNL1       -0.2451
     26 O          14.0506   83.7777   15.9773 O.3     1  UNL1       -0.4771
     27 H          14.2497   82.8281   15.6858 H       1  UNL1        0.2954
     28 C           9.7117   79.2981   24.9223 C.2     1  UNL1        0.2839
     29 O           9.4131   79.8190   23.8146 O.2     1  UNL1       -0.2665
     30 N          10.7976   79.8234   25.7062 N.am    1  UNL1       -0.2766
     31 H          11.0188   79.3753   26.6219 H       1  UNL1        0.1553
     32 C           8.0544   79.0705   27.6948 C.3     1  UNL1        0.0345
     33 C           8.1744   78.0666   26.5885 C.ar    1  UNL1        0.0202
     34 C           8.9078   78.1594   25.3990 C.ar    1  UNL1        0.1946
     35 O           8.8068   77.0321   24.7170 O.2     1  UNL1       -0.4492
     36 C           8.0264   76.2225   25.3903 C.ar    1  UNL1        0.1452
     37 C           7.6400   74.9335   25.0396 C.ar    1  UNL1        0.0375
     38 C           6.7896   74.2379   25.9170 C.ar    1  UNL1        0.0031
     39 C           6.3414   74.8369   27.1256 C.ar    1  UNL1        0.0002
     40 C           6.7605   76.1508   27.4452 C.ar    1  UNL1        0.0028
     41 C           7.6024   76.8110   26.5503 C.ar    1  UNL1        0.0337
     42 C           5.4433   74.0927   28.0447 C.ar    1  UNL1        0.0000
     43 C           5.2022   72.7188   27.8534 C.ar    1  UNL1        0.0000
     44 C           4.3552   72.0210   28.7199 C.ar    1  UNL1        0.0000
     45 C           3.7412   72.6837   29.7849 C.ar    1  UNL1        0.0000
     46 C           3.9725   74.0463   29.9855 C.ar    1  UNL1        0.0000
     47 C           4.8178   74.7495   29.1217 C.ar    1  UNL1        0.0000
@<TRIPOS>BOND
     1    32    33    1
     2    33    34   ar
     3    34    28    1
     4    28    29    2
     5    28    30   am
     6    30     1    1
     7     1     2   ar
     8     2     3   ar
     9     3     4   ar
    10     4     7    1
    11     7     8    1
    12     8     9    1
    13     9    10    1
    14    10    16    1
    15    16    17    1
    16    17    18    1
    17    18    19   ar
    18    19    20   ar
    19    20    21   ar
    20    21    22   ar
    21    22    24    1
    22    24    25    2
    23    24    26    1
    24    22    23   ar
    25    10    11    1
    26    11    12    1
    27    11    13    1
    28     4     5   ar
    29     5     6   ar
    30    34    35   ar
    31    35    36   ar
    32    36    37   ar
    33    37    38   ar
    34    38    39   ar
    35    39    42    1
    36    42    43   ar
    37    43    44   ar
    38    44    45   ar
    39    45    46   ar
    40    46    47   ar
    41    39    40   ar
    42    40    41   ar
    43    41    33   ar
    44     6     1   ar
    45    41    36   ar
    46    13     7    1
    47    47    42   ar
    48    23    18   ar
    49    30    31    1
    50    26    27    1
    51    12    14    1
    52    12    15    1
@<TRIPOS>MOLECULE
*****
 47 52 0 0 0
SMALL
GASTEIGER

@<TRIPOS>ATOM
      1 C          11.9116   81.5354   25.5211 C.ar    1  UNL1        0.0702
      2 C          13.0014   82.0831   26.2134 C.ar    1  UNL1        0.0191
      3 C          13.7789   83.0803   25.6219 C.ar    1  UNL1        0.0356
      4 C          13.4752   83.5232   24.3212 C.ar    1  UNL1        0.1318
      5 N          12.4258   82.9533   23.6640 N.ar    1  UNL1       -0.2279
      6 C          11.6563   81.9811   24.2197 C.ar    1  UNL1        0.1149
      7 N          14.2500   84.5632   23.6776 N.pl3   1  UNL1       -0.2919
      8 C          13.9941   85.9837   23.9730 C.3     1  UNL1        0.0924
      9 C          14.7072   86.9114   22.9788 C.3     1  UNL1        0.0266
     10 C          14.4908   86.4251   21.5307 C.3     1  UNL1        0.0613
     11 C          14.9208   84.9307   21.3263 C.3     1  UNL1        0.0745
     12 N          13.8549   84.1918   20.6422 N.3     1  UNL1       -0.3207
     13 C          15.2573   84.2304   22.6589 C.3     1  UNL1        0.1077
     14 H          14.1967   83.2244   20.4379 H       1  UNL1        0.1189
     15 H          13.6906   84.6341   19.7094 H       1  UNL1        0.1189
     16 C          15.2249   87.3649   20.5517 C.3     1  UNL1        0.2067
     17 O          14.3296   87.8979   19.5746 O.3     1  UNL1       -0.4754
     18 C          14.4327   87.7156   18.1856 C.ar    1  UNL1        0.1388
     19 C          14.3718   88.7832   17.2700 C.ar    1  UNL1        0.0369
     20 C          14.4753   88.5394   15.8991 C.ar    1  UNL1        0.0033
     21 C          14.6428   87.2363   15.4263 C.ar    1  UNL1        0.0066
     22 C          14.7107   86.1579   16.3253 C.ar    1  UNL1        0.0785
     23 C          14.6062   86.4117   17.7043 C.ar    1  UNL1        0.0433
     24 C          14.8887   84.7743   15.8316 C.2     1  UNL1        0.3381
     25 O          15.7964   84.0388   16.3059 O.2     1  UNL1       -0.2451
     26 O          14.0541   84.2710   14.8369 O.3     1  UNL1       -0.4771
     27 H          14.1674   83.3252   14.4919 H       1  UNL1        0.2954
     28 C          11.3743   79.0852   25.9212 C.2     1  UNL1        0.2839
     29 O          12.3260   78.6985   25.1917 O.2     1  UNL1       -0.2665
     30 N          11.1033   80.4887   26.0834 N.am    1  UNL1       -0.2766
     31 H          10.3054   80.7795   26.6893 H       1  UNL1        0.1553
     32 C           8.2144   78.5327   25.4797 C.3     1  UNL1        0.0345
     33 C           9.1764   77.8125   26.3751 C.ar    1  UNL1        0.0202
     34 C          10.5386   78.0659   26.5792 C.ar    1  UNL1        0.1946
     35 O          11.0170   77.2483   27.5006 O.2     1  UNL1       -0.4492
     36 C          10.0421   76.4619   27.8866 C.ar    1  UNL1        0.1452
     37 C          10.0997   75.4456   28.8339 C.ar    1  UNL1        0.0375
     38 C           8.9239   74.7203   29.0959 C.ar    1  UNL1        0.0031
     39 C           7.7147   75.0206   28.4118 C.ar    1  UNL1        0.0002
     40 C           7.6996   76.0650   27.4562 C.ar    1  UNL1        0.0028
     41 C           8.8850   76.7614   27.2209 C.ar    1  UNL1        0.0337
     42 C           6.4789   74.2480   28.6965 C.ar    1  UNL1        0.0000
     43 C           6.0601   73.2218   27.8282 C.ar    1  UNL1        0.0000
     44 C           4.8955   72.4968   28.0985 C.ar    1  UNL1        0.0000
     45 C           4.1375   72.7858   29.2352 C.ar    1  UNL1        0.0000
     46 C           4.5423   73.8012   30.1044 C.ar    1  UNL1        0.0000
     47 C           5.7056   74.5301   29.8388 C.ar    1  UNL1        0.0000
@<TRIPOS>BOND
     1    32    33    1
     2    33    34   ar
     3    34    28    1
     4    28    29    2
     5    28    30   am
     6    30     1    1
     7     1     2   ar
     8     2     3   ar
     9     3     4   ar
    10     4     7    1
    11     7     8    1
    12     8     9    1
    13     9    10    1
    14    10    16    1
    15    16    17    1
    16    17    18    1
    17    18    19   ar
    18    19    20   ar
    19    20    21   ar
    20    21    22   ar
    21    22    24    1
    22    24    25    2
    23    24    26    1
    24    22    23   ar
    25    10    11    1
    26    11    12    1
    27    11    13    1
    28     4     5   ar
    29     5     6   ar
    30    34    35   ar
    31    35    36   ar
    32    36    37   ar
    33    37    38   ar
    34    38    39   ar
    35    39    42    1
    36    42    43   ar
    37    43    44   ar
    38    44    45   ar
    39    45    46   ar
    40    46    47   ar
    41    39    40   ar
    42    40    41   ar
    43    41    33   ar
    44     6     1   ar
    45    41    36   ar
    46    13     7    1
    47    47    42   ar
    48    23    18   ar
    49    30    31    1
    50    26    27    1
    51    12    14    1
    52    12    15    1
@<TRIPOS>MOLECULE
*****
 47 52 0 0 0
SMALL
GASTEIGER

@<TRIPOS>ATOM
      1 C          12.5132   82.5650   25.5643 C.ar    1  UNL1        0.0702
      2 C          13.3250   83.4595   26.2769 C.ar    1  UNL1        0.0191
      3 C          14.1457   84.3587   25.5938 C.ar    1  UNL1        0.0356
      4 C          14.1680   84.3538   24.1867 C.ar    1  UNL1        0.1318
      5 N          13.3873   83.4549   23.5229 N.ar    1  UNL1       -0.2279
      6 C          12.5818   82.5703   24.1670 C.ar    1  UNL1        0.1149
      7 N          14.9965   85.2780   23.4414 N.pl3   1  UNL1       -0.2919
      8 C          15.4398   86.5462   24.0460 C.3     1  UNL1        0.0924
      9 C          16.0456   87.4956   23.0022 C.3     1  UNL1        0.0266
     10 C          15.1493   87.5681   21.7486 C.3     1  UNL1        0.0613
     11 C          14.8575   86.1550   21.1338 C.3     1  UNL1        0.0745
     12 N          13.4195   86.0010   20.8924 N.3     1  UNL1       -0.3207
     13 C          15.3517   85.0086   22.0398 C.3     1  UNL1        0.1077
     14 H          13.2584   85.0907   20.4026 H       1  UNL1        0.1189
     15 H          13.1152   86.7398   20.2184 H       1  UNL1        0.1189
     16 C          15.7831   88.5177   20.7108 C.3     1  UNL1        0.2067
     17 O          14.8489   89.5056   20.2731 O.3     1  UNL1       -0.4754
     18 C          13.9231   89.3494   19.2282 C.ar    1  UNL1        0.1388
     19 C          12.5308   89.3556   19.4359 C.ar    1  UNL1        0.0369
     20 C          11.6592   89.1905   18.3577 C.ar    1  UNL1        0.0033
     21 C          12.1613   89.0211   17.0659 C.ar    1  UNL1        0.0066
     22 C          13.5483   89.0169   16.8379 C.ar    1  UNL1        0.0785
     23 C          14.4195   89.1842   17.9288 C.ar    1  UNL1        0.0433
     24 C          14.0877   88.8385   15.4716 C.2     1  UNL1        0.3381
     25 O          15.3323   88.7753   15.2795 O.2     1  UNL1       -0.2451
     26 O          13.2245   88.7387   14.3834 O.3     1  UNL1       -0.4771
     27 H          13.5834   88.6164   13.4440 H       1  UNL1        0.2954
     28 C          10.5525   80.9508   25.6123 C.2     1  UNL1        0.2839
     29 O          10.1992   81.2558   24.4420 O.2     1  UNL1       -0.2665
     30 N          11.6750   81.6055   26.2293 N.am    1  UNL1       -0.2766
     31 H          11.9415   81.3364   27.2013 H       1  UNL1        0.1553
     32 C           9.0078   78.3935   24.3632 C.3     1  UNL1        0.0345
     33 C           9.1219   78.8117   25.7979 C.ar    1  UNL1        0.0202
     34 C           9.7741   79.9292   26.3339 C.ar    1  UNL1        0.1946
     35 O           9.5856   79.9783   27.6410 O.2     1  UNL1       -0.4492
     36 C           8.8660   78.9377   27.9835 C.ar    1  UNL1        0.1452
     37 C           8.4383   78.5879   29.2596 C.ar    1  UNL1        0.0375
     38 C           7.6691   77.4194   29.4004 C.ar    1  UNL1        0.0031
     39 C           7.3400   76.6227   28.2701 C.ar    1  UNL1        0.0002
     40 C           7.7942   77.0164   26.9885 C.ar    1  UNL1        0.0028
     41 C           8.5564   78.1801   26.8871 C.ar    1  UNL1        0.0337
     42 C           6.5270   75.3904   28.4309 C.ar    1  UNL1        0.0000
     43 C           5.7664   75.1816   29.5971 C.ar    1  UNL1        0.0000
     44 C           5.0028   74.0197   29.7459 C.ar    1  UNL1        0.0000
     45 C           4.9886   73.0557   28.7356 C.ar    1  UNL1        0.0000
     46 C           5.7387   73.2512   27.5739 C.ar    1  UNL1        0.0000
     47 C           6.5049   74.4107   27.4199 C.ar    1  UNL1        0.0000
@<TRIPOS>BOND
     1    32    33    1
     2    33    34   ar
     3    34    28    1
     4    28    29    2
     5    28    30   am
     6    30     1    1
     7     1     2   ar
     8     2     3   ar
     9     3     4   ar
    10     4     7    1
    11     7     8    1
    12     8     9    1
    13     9    10    1
    14    10    16    1
    15    16    17    1
    16    17    18    1
    17    18    19   ar
    18    19    20   ar
    19    20    21   ar
    20    21    22   ar
    21    22    24    1
    22    24    25    2
    23    24    26    1
    24    22    23   ar
    25    10    11    1
    26    11    12    1
    27    11    13    1
    28     4     5   ar
    29     5     6   ar
    30    34    35   ar
    31    35    36   ar
    32    36    37   ar
    33    37    38   ar
    34    38    39   ar
    35    39    42    1
    36    42    43   ar
    37    43    44   ar
    38    44    45   ar
    39    45    46   ar
    40    46    47   ar
    41    39    40   ar
    42    40    41   ar
    43    41    33   ar
    44     6     1   ar
    45    41    36   ar
    46    13     7    1
    47    47    42   ar
    48    23    18   ar
    49    30    31    1
    50    26    27    1
    51    12    14    1
    52    12    15    1
@<TRIPOS>MOLECULE
*****
 47 52 0 0 0
SMALL
GASTEIGER

@<TRIPOS>ATOM
      1 C          10.6022   81.1973   25.3087 C.ar    1  UNL1        0.0702
      2 C          10.0286   80.3656   24.3359 C.ar    1  UNL1        0.0191
      3 C           9.3213   79.2242   24.7173 C.ar    1  UNL1        0.0356
      4 C           9.1992   78.9017   26.0817 C.ar    1  UNL1        0.1318
      5 N           9.7898   79.7154   27.0021 N.ar    1  UNL1       -0.2279
      6 C          10.4835   80.8305   26.6536 C.ar    1  UNL1        0.1149
      7 N           8.4641   77.7334   26.5185 N.pl3   1  UNL1       -0.2919
      8 C           9.1685   76.4841   26.8553 C.3     1  UNL1        0.0924
      9 C           8.1984   75.3030   27.0025 C.3     1  UNL1        0.0266
     10 C           7.1969   75.2731   25.8293 C.3     1  UNL1        0.0613
     11 C           6.4252   76.6282   25.6610 C.3     1  UNL1        0.0745
     12 N           6.4740   77.0618   24.2612 N.3     1  UNL1       -0.3207
     13 C           6.9940   77.7423   26.5636 C.3     1  UNL1        0.1077
     14 H           5.8811   77.9172   24.1553 H       1  UNL1        0.1189
     15 H           6.0177   76.3295   23.6710 H       1  UNL1        0.1189
     16 C           6.2265   74.0865   26.0047 C.3     1  UNL1        0.2067
     17 O           6.4037   73.1148   24.9728 O.3     1  UNL1       -0.4754
     18 C           6.8248   73.3839   23.6599 C.ar    1  UNL1        0.1388
     19 C           8.1806   73.5242   23.3079 C.ar    1  UNL1        0.0369
     20 C           8.5384   73.7967   21.9861 C.ar    1  UNL1        0.0033
     21 C           7.5552   73.9292   21.0035 C.ar    1  UNL1        0.0066
     22 C           6.1965   73.7877   21.3347 C.ar    1  UNL1        0.0785
     23 C           5.8444   73.5128   22.6679 C.ar    1  UNL1        0.0433
     24 C           5.1491   73.9262   20.2987 C.2     1  UNL1        0.3381
     25 O           5.3345   74.6713   19.2985 O.2     1  UNL1       -0.2451
     26 O           3.9467   73.2341   20.4190 O.3     1  UNL1       -0.4771
     27 H           3.2231   73.3219   19.7155 H       1  UNL1        0.2954
     28 C          12.7671   82.3534   24.6538 C.2     1  UNL1        0.2839
     29 O          13.4336   81.2893   24.7584 O.2     1  UNL1       -0.2665
     30 N          11.3609   82.3660   24.9569 N.am    1  UNL1       -0.2766
     31 H          10.8355   83.2627   24.8665 H       1  UNL1        0.1553
     32 C          15.6417   82.5851   23.1813 C.3     1  UNL1        0.0345
     33 C          14.7030   83.6818   23.5840 C.ar    1  UNL1        0.0202
     34 C          13.4690   83.5803   24.2385 C.ar    1  UNL1        0.1946
     35 O          12.9820   84.7860   24.4738 O.2     1  UNL1       -0.4492
     36 C          13.8239   85.6630   23.9840 C.ar    1  UNL1        0.1452
     37 C          13.7073   87.0486   24.0007 C.ar    1  UNL1        0.0375
     38 C          14.7368   87.8045   23.4127 C.ar    1  UNL1        0.0031
     39 C          15.8617   87.1680   22.8210 C.ar    1  UNL1        0.0002
     40 C          15.9416   85.7547   22.8276 C.ar    1  UNL1        0.0028
     41 C          14.9010   85.0376   23.4179 C.ar    1  UNL1        0.0337
     42 C          16.9431   87.9765   22.2028 C.ar    1  UNL1        0.0000
     43 C          16.7731   88.5414   20.9244 C.ar    1  UNL1        0.0000
     44 C          17.7936   89.3013   20.3445 C.ar    1  UNL1        0.0000
     45 C          18.9919   89.5066   21.0316 C.ar    1  UNL1        0.0000
     46 C          19.1728   88.9518   22.3004 C.ar    1  UNL1        0.0000
     47 C          18.1561   88.1902   22.8849 C.ar    1  UNL1        0.0000
@<TRIPOS>BOND
     1    32    33    1
     2    33    34   ar
     3    34    28    1
     4    28    29    2
     5    28    30   am
     6    30     1    1
     7     1     2   ar
     8     2     3   ar
     9     3     4   ar
    10     4     7    1
    11     7     8    1
    12     8     9    1
    13     9    10    1
    14    10    16    1
    15    16    17    1
    16    17    18    1
    17    18    19   ar
    18    19    20   ar
    19    20    21   ar
    20    21    22   ar
    21    22    24    1
    22    24    25    2
    23    24    26    1
    24    22    23   ar
    25    10    11    1
    26    11    12    1
    27    11    13    1
    28     4     5   ar
    29     5     6   ar
    30    34    35   ar
    31    35    36   ar
    32    36    37   ar
    33    37    38   ar
    34    38    39   ar
    35    39    42    1
    36    42    43   ar
    37    43    44   ar
    38    44    45   ar
    39    45    46   ar
    40    46    47   ar
    41    39    40   ar
    42    40    41   ar
    43    41    33   ar
    44     6     1   ar
    45    41    36   ar
    46    13     7    1
    47    47    42   ar
    48    23    18   ar
    49    30    31    1
    50    26    27    1
    51    12    14    1
    52    12    15    1
@<TRIPOS>MOLECULE
*****
 47 52 0 0 0
SMALL
GASTEIGER

@<TRIPOS>ATOM
      1 C          10.1984   79.8129   23.9068 C.ar    1  UNL1        0.0702
      2 C           9.7608   79.5636   22.5979 C.ar    1  UNL1        0.0191
      3 C           9.1665   78.3417   22.2776 C.ar    1  UNL1        0.0356
      4 C           9.0224   77.3539   23.2694 C.ar    1  UNL1        0.1318
      5 N           9.4811   77.6161   24.5260 N.ar    1  UNL1       -0.2279
      6 C          10.0633   78.7975   24.8598 C.ar    1  UNL1        0.1149
      7 N           8.4010   76.0786   22.9802 N.pl3   1  UNL1       -0.2919
      8 C           8.5830   75.4337   21.6682 C.3     1  UNL1        0.0924
      9 C           7.6139   74.2593   21.4696 C.3     1  UNL1        0.0266
     10 C           6.1829   74.6594   21.8850 C.3     1  UNL1        0.0613
     11 C           6.1138   75.2151   23.3501 C.3     1  UNL1        0.0745
     12 N           5.3689   76.4778   23.3722 N.3     1  UNL1       -0.3207
     13 C           7.5136   75.4341   23.9602 C.3     1  UNL1        0.1077
     14 H           5.2592   76.7839   24.3666 H       1  UNL1        0.1189
     15 H           4.3993   76.2971   23.0258 H       1  UNL1        0.1189
     16 C           5.2305   73.4617   21.6878 C.3     1  UNL1        0.2067
     17 O           4.1828   73.7778   20.7698 O.3     1  UNL1       -0.4754
     18 C           3.6926   75.0665   20.5009 C.ar    1  UNL1        0.1388
     19 C           2.6861   75.6759   21.2739 C.ar    1  UNL1        0.0369
     20 C           2.2353   76.9582   20.9549 C.ar    1  UNL1        0.0033
     21 C           2.7809   77.6467   19.8695 C.ar    1  UNL1        0.0066
     22 C           3.7901   77.0568   19.0890 C.ar    1  UNL1        0.0785
     23 C           4.2390   75.7653   19.4170 C.ar    1  UNL1        0.0433
     24 C           4.3735   77.7806   17.9377 C.2     1  UNL1        0.3381
     25 O           4.6931   78.9958   18.0426 O.2     1  UNL1       -0.2451
     26 O           4.5750   77.1254   16.7255 O.3     1  UNL1       -0.4771
     27 H           4.9736   77.6116   15.9311 H       1  UNL1        0.2954
     28 C          12.2583   81.1932   24.4580 C.2     1  UNL1        0.2839
     29 O          13.0201   80.1928   24.3780 O.2     1  UNL1       -0.2665
     30 N          10.8395   81.0464   24.2712 N.am    1  UNL1       -0.2766
     31 H          10.2325   81.8913   24.3484 H       1  UNL1        0.1553
     32 C          13.1172   82.3344   27.3641 C.3     1  UNL1        0.0345
     33 C          13.2454   82.9912   26.0232 C.ar    1  UNL1        0.0202
     34 C          12.8551   82.5036   24.7696 C.ar    1  UNL1        0.1946
     35 O          13.0792   83.4160   23.8403 O.2     1  UNL1       -0.4492
     36 C          13.6170   84.4600   24.4223 C.ar    1  UNL1        0.1452
     37 C          14.0216   85.6478   23.8230 C.ar    1  UNL1        0.0375
     38 C          14.5785   86.6445   24.6436 C.ar    1  UNL1        0.0031
     39 C          14.7210   86.4410   26.0432 C.ar    1  UNL1        0.0002
     40 C          14.2941   85.2173   26.6128 C.ar    1  UNL1        0.0028
     41 C          13.7484   84.2509   25.7680 C.ar    1  UNL1        0.0337
     42 C          15.3107   87.5007   26.9001 C.ar    1  UNL1        0.0000
     43 C          16.4254   88.2396   26.4600 C.ar    1  UNL1        0.0000
     44 C          16.9791   89.2361   27.2696 C.ar    1  UNL1        0.0000
     45 C          16.4281   89.5070   28.5240 C.ar    1  UNL1        0.0000
     46 C          15.3222   88.7813   28.9719 C.ar    1  UNL1        0.0000
     47 C          14.7649   87.7829   28.1669 C.ar    1  UNL1        0.0000
@<TRIPOS>BOND
     1    32    33    1
     2    33    34   ar
     3    34    28    1
     4    28    29    2
     5    28    30   am
     6    30     1    1
     7     1     2   ar
     8     2     3   ar
     9     3     4   ar
    10     4     7    1
    11     7     8    1
    12     8     9    1
    13     9    10    1
    14    10    16    1
    15    16    17    1
    16    17    18    1
    17    18    19   ar
    18    19    20   ar
    19    20    21   ar
    20    21    22   ar
    21    22    24    1
    22    24    25    2
    23    24    26    1
    24    22    23   ar
    25    10    11    1
    26    11    12    1
    27    11    13    1
    28     4     5   ar
    29     5     6   ar
    30    34    35   ar
    31    35    36   ar
    32    36    37   ar
    33    37    38   ar
    34    38    39   ar
    35    39    42    1
    36    42    43   ar
    37    43    44   ar
    38    44    45   ar
    39    45    46   ar
    40    46    47   ar
    41    39    40   ar
    42    40    41   ar
    43    41    33   ar
    44     6     1   ar
    45    41    36   ar
    46    13     7    1
    47    47    42   ar
    48    23    18   ar
    49    30    31    1
    50    26    27    1
    51    12    14    1
    52    12    15    1
@<TRIPOS>MOLECULE
*****
 47 52 0 0 0
SMALL
GASTEIGER

@<TRIPOS>ATOM
      1 C          10.5750   80.9889   24.5443 C.ar    1  UNL1        0.0702
      2 C          10.2184   80.1214   23.5016 C.ar    1  UNL1        0.0191
      3 C           9.4932   78.9597   23.7726 C.ar    1  UNL1        0.0356
      4 C           9.1346   78.6536   25.0985 C.ar    1  UNL1        0.1318
      5 N           9.5183   79.5030   26.0932 N.ar    1  UNL1       -0.2279
      6 C          10.2250   80.6383   25.8527 C.ar    1  UNL1        0.1149
      7 N           8.3729   77.4649   25.4194 N.pl3   1  UNL1       -0.2919
      8 C           6.9550   77.5622   25.8073 C.3     1  UNL1        0.0924
      9 C           6.4289   76.2406   26.3854 C.3     1  UNL1        0.0266
     10 C           7.4214   75.6654   27.4170 C.3     1  UNL1        0.0613
     11 C           8.8675   75.4977   26.8334 C.3     1  UNL1        0.0745
     12 N           9.8489   76.0870   27.7497 N.3     1  UNL1       -0.3207
     13 C           9.0151   76.1418   25.4396 C.3     1  UNL1        0.1077
     14 H          10.8089   75.8865   27.3854 H       1  UNL1        0.1189
     15 H           9.7873   75.5891   28.6668 H       1  UNL1        0.1189
     16 C           6.8776   74.3337   27.9749 C.3     1  UNL1        0.2067
     17 O           6.6342   74.4208   29.3798 O.3     1  UNL1       -0.4754
     18 C           6.6101   75.6061   30.1334 C.ar    1  UNL1        0.1388
     19 C           5.4969   75.9995   30.9001 C.ar    1  UNL1        0.0369
     20 C           5.5298   77.1922   31.6253 C.ar    1  UNL1        0.0033
     21 C           6.6672   78.0016   31.5981 C.ar    1  UNL1        0.0066
     22 C           7.7904   77.6232   30.8424 C.ar    1  UNL1        0.0785
     23 C           7.7496   76.4205   30.1152 C.ar    1  UNL1        0.0433
     24 C           8.9995   78.4757   30.8092 C.2     1  UNL1        0.3381
     25 O           9.3649   79.1061   31.8382 O.2     1  UNL1       -0.2451
     26 O           9.7461   78.5899   29.6393 O.3     1  UNL1       -0.4771
     27 H          10.5754   79.1708   29.6058 H       1  UNL1        0.2954
     28 C          12.7412   82.3130   24.6289 C.2     1  UNL1        0.2839
     29 O          13.3549   81.3806   25.2133 O.2     1  UNL1       -0.2665
     30 N          11.3444   82.1802   24.3112 N.am    1  UNL1       -0.2766
     31 H          10.8608   82.9705   23.8319 H       1  UNL1        0.1553
     32 C          15.5937   82.5603   23.1164 C.3     1  UNL1        0.0345
     33 C          14.7078   83.6533   23.6327 C.ar    1  UNL1        0.0202
     34 C          13.4837   83.5432   24.3041 C.ar    1  UNL1        0.1946
     35 O          13.0503   84.7420   24.6527 O.2     1  UNL1       -0.4492
     36 C          13.9172   85.6250   24.2207 C.ar    1  UNL1        0.1452
     37 C          13.8569   87.0074   24.3585 C.ar    1  UNL1        0.0375
     38 C          14.9044   87.7711   23.8140 C.ar    1  UNL1        0.0031
     39 C          15.9910   87.1454   23.1445 C.ar    1  UNL1        0.0002
     40 C          16.0140   85.7347   23.0284 C.ar    1  UNL1        0.0028
     41 C          14.9571   85.0098   23.5788 C.ar    1  UNL1        0.0337
     42 C          17.0919   87.9620   22.5733 C.ar    1  UNL1        0.0000
     43 C          17.0942   88.3057   21.2080 C.ar    1  UNL1        0.0000
     44 C          18.1328   89.0739   20.6728 C.ar    1  UNL1        0.0000
     45 C          19.1778   89.5076   21.4913 C.ar    1  UNL1        0.0000
     46 C          19.1869   89.1736   22.8473 C.ar    1  UNL1        0.0000
     47 C          18.1514   88.4049   23.3879 C.ar    1  UNL1        0.0000
@<TRIPOS>BOND
     1    32    33    1
     2    33    34   ar
     3    34    28    1
     4    28    29    2
     5    28    30   am
     6    30     1    1
     7     1     2   ar
     8     2     3   ar
     9     3     4   ar
    10     4     7    1
    11     7     8    1
    12     8     9    1
    13     9    10    1
    14    10    16    1
    15    16    17    1
    16    17    18    1
    17    18    19   ar
    18    19    20   ar
    19    20    21   ar
    20    21    22   ar
    21    22    24    1
    22    24    25    2
    23    24    26    1
    24    22    23   ar
    25    10    11    1
    26    11    12    1
    27    11    13    1
    28     4     5   ar
    29     5     6   ar
    30    34    35   ar
    31    35    36   ar
    32    36    37   ar
    33    37    38   ar
    34    38    39   ar
    35    39    42    1
    36    42    43   ar
    37    43    44   ar
    38    44    45   ar
    39    45    46   ar
    40    46    47   ar
    41    39    40   ar
    42    40    41   ar
    43    41    33   ar
    44     6     1   ar
    45    41    36   ar
    46    13     7    1
    47    47    42   ar
    48    23    18   ar
    49    30    31    1
    50    26    27    1
    51    12    14    1
    52    12    15    1
@<TRIPOS>MOLECULE
*****
 47 52 0 0 0
SMALL
GASTEIGER

@<TRIPOS>ATOM
      1 C          10.5688   81.0337   24.7429 C.ar    1  UNL1        0.0702
      2 C          10.2532   80.5978   26.0380 C.ar    1  UNL1        0.0191
      3 C           9.4702   79.4570   26.2231 C.ar    1  UNL1        0.0356
      4 C           8.9848   78.7542   25.1047 C.ar    1  UNL1        0.1318
      5 N           9.2869   79.2174   23.8588 N.ar    1  UNL1       -0.2279
      6 C          10.0462   80.3257   23.6552 C.ar    1  UNL1        0.1149
      7 N           8.1797   77.5602   25.2544 N.pl3   1  UNL1       -0.2919
      8 C           8.6914   76.3965   25.9988 C.3     1  UNL1        0.0924
      9 C           7.8173   75.1523   25.7851 C.3     1  UNL1        0.0266
     10 C           7.4939   74.9660   24.2881 C.3     1  UNL1        0.0613
     11 C           6.8388   76.2404   23.6501 C.3     1  UNL1        0.0745
     12 N           7.5273   76.5862   22.4026 N.3     1  UNL1       -0.3207
     13 C           6.8650   77.4524   24.6039 C.3     1  UNL1        0.1077
     14 H           7.0205   77.3820   21.9506 H       1  UNL1        0.1189
     15 H           7.4362   75.7830   21.7397 H       1  UNL1        0.1189
     16 C           6.6065   73.7181   24.0995 C.3     1  UNL1        0.2067
     17 O           7.1702   72.8209   23.1416 O.3     1  UNL1       -0.4754
     18 C           8.4942   72.8513   22.6730 C.ar    1  UNL1        0.1388
     19 C           9.3208   71.7120   22.6494 C.ar    1  UNL1        0.0369
     20 C          10.6312   71.8050   22.1766 C.ar    1  UNL1        0.0033
     21 C          11.1305   73.0269   21.7212 C.ar    1  UNL1        0.0066
     22 C          10.3188   74.1744   21.7325 C.ar    1  UNL1        0.0785
     23 C           9.0001   74.0724   22.2097 C.ar    1  UNL1        0.0433
     24 C          10.8409   75.4725   21.2510 C.2     1  UNL1        0.3381
     25 O          12.0706   75.6178   21.0131 O.2     1  UNL1       -0.2451
     26 O           9.9776   76.5477   21.0561 O.3     1  UNL1       -0.4771
     27 H          10.3246   77.4407   20.7268 H       1  UNL1        0.2954
     28 C          12.7865   82.2544   24.5332 C.2     1  UNL1        0.2839
     29 O          13.4464   81.2268   24.8432 O.2     1  UNL1       -0.2665
     30 N          11.3486   82.2180   24.5092 N.am    1  UNL1       -0.2766
     31 H          10.8283   83.0854   24.2540 H       1  UNL1        0.1553
     32 C          15.6911   82.5249   23.1277 C.3     1  UNL1        0.0345
     33 C          14.7709   83.6111   23.5961 C.ar    1  UNL1        0.0202
     34 C          13.5236   83.4913   24.2217 C.ar    1  UNL1        0.1946
     35 O          13.0604   84.6877   24.5385 O.2     1  UNL1       -0.4492
     36 C          13.9307   85.5780   24.1289 C.ar    1  UNL1        0.1452
     37 C          13.8457   86.9609   24.2470 C.ar    1  UNL1        0.0375
     38 C          14.9025   87.7332   23.7334 C.ar    1  UNL1        0.0031
     39 C          16.0227   87.1153   23.1137 C.ar    1  UNL1        0.0002
     40 C          16.0699   85.7038   23.0161 C.ar    1  UNL1        0.0028
     41 C          15.0029   84.9703   23.5348 C.ar    1  UNL1        0.0337
     42 C          17.1330   87.9410   22.5747 C.ar    1  UNL1        0.0000
     43 C          17.0893   88.4247   21.2532 C.ar    1  UNL1        0.0000
     44 C          18.1369   89.2010   20.7482 C.ar    1  UNL1        0.0000
     45 C          19.2369   89.5036   21.5537 C.ar    1  UNL1        0.0000
     46 C          19.2920   89.0299   22.8663 C.ar    1  UNL1        0.0000
     47 C          18.2478   88.2524   23.3764 C.ar    1  UNL1        0.0000
@<TRIPOS>BOND
     1    32    33    1
     2    33    34   ar
     3    34    28    1
     4    28    29    2
     5    28    30   am
     6    30     1    1
     7     1     2   ar
     8     2     3   ar
     9     3     4   ar
    10     4     7    1
    11     7     8    1
    12     8     9    1
    13     9    10    1
    14    10    16    1
    15    16    17    1
    16    17    18    1
    17    18    19   ar
    18    19    20   ar
    19    20    21   ar
    20    21    22   ar
    21    22    24    1
    22    24    25    2
    23    24    26    1
    24    22    23   ar
    25    10    11    1
    26    11    12    1
    27    11    13    1
    28     4     5   ar
    29     5     6   ar
    30    34    35   ar
    31    35    36   ar
    32    36    37   ar
    33    37    38   ar
    34    38    39   ar
    35    39    42    1
    36    42    43   ar
    37    43    44   ar
    38    44    45   ar
    39    45    46   ar
    40    46    47   ar
    41    39    40   ar
    42    40    41   ar
    43    41    33   ar
    44     6     1   ar
    45    41    36   ar
    46    13     7    1
    47    47    42   ar
    48    23    18   ar
    49    30    31    1
    50    26    27    1
    51    12    14    1
    52    12    15    1
@<TRIPOS>MOLECULE
*****
 47 52 0 0 0
SMALL
GASTEIGER

@<TRIPOS>ATOM
      1 C          11.6496   81.1929   25.5433 C.ar    1  UNL1        0.0702
      2 C          13.0445   81.0883   25.4427 C.ar    1  UNL1        0.0191
      3 C          13.7799   82.0940   24.8129 C.ar    1  UNL1        0.0356
      4 C          13.1148   83.2063   24.2646 C.ar    1  UNL1        0.1318
      5 N          11.7560   83.2667   24.3552 N.ar    1  UNL1       -0.2279
      6 C          11.0203   82.2994   24.9627 C.ar    1  UNL1        0.1149
      7 N          13.8422   84.2757   23.6139 N.pl3   1  UNL1       -0.2919
      8 C          15.1805   84.0378   23.0458 C.3     1  UNL1        0.0924
      9 C          15.8862   85.3508   22.6771 C.3     1  UNL1        0.0266
     10 C          15.7604   86.3758   23.8233 C.3     1  UNL1        0.0613
     11 C          14.2711   86.6273   24.2461 C.3     1  UNL1        0.0745
     12 N          14.1397   86.5240   25.7028 N.3     1  UNL1       -0.3207
     13 C          13.2960   85.6407   23.5714 C.3     1  UNL1        0.1077
     14 H          13.1613   86.7815   25.9692 H       1  UNL1        0.1189
     15 H          14.7504   87.2492   26.1432 H       1  UNL1        0.1189
     16 C          16.4661   87.6890   23.4259 C.3     1  UNL1        0.2067
     17 O          16.3871   87.9146   22.0176 O.3     1  UNL1       -0.4754
     18 C          15.2199   88.2371   21.3056 C.ar    1  UNL1        0.1388
     19 C          14.3197   89.2335   21.7284 C.ar    1  UNL1        0.0369
     20 C          13.1725   89.5064   20.9809 C.ar    1  UNL1        0.0033
     21 C          12.9109   88.7959   19.8077 C.ar    1  UNL1        0.0066
     22 C          13.8003   87.8008   19.3667 C.ar    1  UNL1        0.0785
     23 C          14.9537   87.5322   20.1248 C.ar    1  UNL1        0.0433
     24 C          13.5300   87.0441   18.1242 C.2     1  UNL1        0.3381
     25 O          13.4192   85.7884   18.1523 O.2     1  UNL1       -0.2451
     26 O          13.3956   87.7129   16.9101 O.3     1  UNL1       -0.4771
     27 H          13.2106   87.2044   16.0536 H       1  UNL1        0.2954
     28 C          10.7428   78.8229   25.6589 C.2     1  UNL1        0.2839
     29 O          11.3020   78.4954   24.5785 O.2     1  UNL1       -0.2665
     30 N          10.8536   80.1671   26.1593 N.am    1  UNL1       -0.2766
     31 H          10.3757   80.4111   27.0539 H       1  UNL1        0.1553
     32 C           7.6440   78.0136   25.1820 C.3     1  UNL1        0.0345
     33 C           8.6239   77.4386   26.1593 C.ar    1  UNL1        0.0202
     34 C           9.9583   77.8037   26.3773 C.ar    1  UNL1        0.1946
     35 O          10.4618   77.0998   27.3760 O.2     1  UNL1       -0.4492
     36 C           9.5312   76.2802   27.8004 C.ar    1  UNL1        0.1452
     37 C           9.6279   75.3509   28.8303 C.ar    1  UNL1        0.0375
     38 C           8.4968   74.5678   29.1207 C.ar    1  UNL1        0.0031
     39 C           7.2923   74.7249   28.3824 C.ar    1  UNL1        0.0002
     40 C           7.2364   75.6844   27.3431 C.ar    1  UNL1        0.0028
     41 C           8.3782   76.4417   27.0818 C.ar    1  UNL1        0.0337
     42 C           6.1039   73.8923   28.6979 C.ar    1  UNL1        0.0000
     43 C           5.2503   74.2374   29.7630 C.ar    1  UNL1        0.0000
     44 C           4.1326   73.4508   30.0584 C.ar    1  UNL1        0.0000
     45 C           3.8539   72.3143   29.2962 C.ar    1  UNL1        0.0000
     46 C           4.6928   71.9614   28.2369 C.ar    1  UNL1        0.0000
     47 C           5.8124   72.7437   27.9375 C.ar    1  UNL1        0.0000
@<TRIPOS>BOND
     1    32    33    1
     2    33    34   ar
     3    34    28    1
     4    28    29    2
     5    28    30   am
     6    30     1    1
     7     1     2   ar
     8     2     3   ar
     9     3     4   ar
    10     4     7    1
    11     7     8    1
    12     8     9    1
    13     9    10    1
    14    10    16    1
    15    16    17    1
    16    17    18    1
    17    18    19   ar
    18    19    20   ar
    19    20    21   ar
    20    21    22   ar
    21    22    24    1
    22    24    25    2
    23    24    26    1
    24    22    23   ar
    25    10    11    1
    26    11    12    1
    27    11    13    1
    28     4     5   ar
    29     5     6   ar
    30    34    35   ar
    31    35    36   ar
    32    36    37   ar
    33    37    38   ar
    34    38    39   ar
    35    39    42    1
    36    42    43   ar
    37    43    44   ar
    38    44    45   ar
    39    45    46   ar
    40    46    47   ar
    41    39    40   ar
    42    40    41   ar
    43    41    33   ar
    44     6     1   ar
    45    41    36   ar
    46    13     7    1
    47    47    42   ar
    48    23    18   ar
    49    30    31    1
    50    26    27    1
    51    12    14    1
    52    12    15    1
