@<TRIPOS>MOLECULE
*****
 48 53 0 0 0
SMALL
GASTEIGER

@<TRIPOS>ATOM
      1 O         -29.6441   51.5579   -8.5767 O.2     1  UNL1       -0.2701
      2 C         -28.7508   50.9316   -7.9437 C.2     1  UNL1        0.2484
      3 N         -29.1208   49.8982   -7.0147 N.am    1  UNL1       -0.2945
      4 H         -28.3581   49.3720   -6.5397 H       1  UNL1        0.1501
      5 C         -27.3268   51.2128   -8.2347 C.ar    1  UNL1        0.0831
      6 C         -27.0020   52.0991   -9.2748 C.ar    1  UNL1        0.0082
      7 C         -25.6704   52.3119   -9.6360 C.ar    1  UNL1        0.0171
      8 C         -24.6370   51.6568   -8.9518 C.ar    1  UNL1        0.0780
      9 C         -24.9527   50.7976   -7.8876 C.ar    1  UNL1        0.1807
     10 F         -23.9672   50.1462   -7.2196 F       1  UNL1       -0.2005
     11 C         -26.2866   50.5815   -7.5248 C.ar    1  UNL1        0.1729
     12 F         -26.5513   49.7845   -6.4595 F       1  UNL1       -0.2016
     13 N         -23.2681   51.8523   -9.3449 N.pl3   1  UNL1       -0.3023
     14 C         -22.9081   51.8972  -10.7665 C.3     1  UNL1        0.1123
     15 C         -21.5653   51.1991  -10.9871 C.3     1  UNL1        0.1123
     16 N         -20.5883   51.6661   -9.9999 N.pl3   1  UNL1       -0.3034
     17 C         -20.9480   51.6388   -8.5797 C.3     1  UNL1        0.1123
     18 C         -22.2882   52.3428   -8.3696 C.3     1  UNL1        0.1123
     19 C         -19.2123   51.7988  -10.3773 C.ar    1  UNL1        0.0587
     20 C         -18.8876   51.9807  -11.7279 C.ar    1  UNL1        0.0162
     21 C         -17.5528   52.1124  -12.1201 C.ar    1  UNL1        0.0127
     22 C         -16.5337   52.0629  -11.1640 C.ar    1  UNL1        0.0586
     23 CL        -14.8586   52.2283  -11.6575 Cl      1  UNL1       -0.0822
     24 C         -16.8508   51.8811   -9.8135 C.ar    1  UNL1        0.0240
     25 C         -18.1864   51.7486   -9.4145 C.ar    1  UNL1        0.0718
     26 CL        -18.5486   51.5201   -7.7094 Cl      1  UNL1       -0.0809
     27 C         -30.4692   49.3211   -6.9774 C.3     1  UNL1        0.1535
     28 C         -30.5002   47.9261   -7.5785 C.2     1  UNL1        0.2443
     29 O         -31.5819   47.2799   -7.5648 O.2     1  UNL1       -0.2730
     30 N         -29.4043   47.4098   -8.3501 N.am    1  UNL1       -0.2825
     31 H         -29.5988   47.1432   -9.3415 H       1  UNL1        0.1549
     32 C         -28.0830   47.1844   -7.8315 C.ar    1  UNL1        0.0535
     33 C         -26.9733   47.3430   -8.6721 C.ar    1  UNL1        0.0353
     34 C         -25.6864   47.1618   -8.1586 C.ar    1  UNL1        0.1002
     35 N         -25.5151   46.8106   -6.8567 N.ar    1  UNL1       -0.2422
     36 C         -26.5741   46.6186   -6.0263 C.ar    1  UNL1        0.1002
     37 C         -27.8763   46.7891   -6.5012 C.ar    1  UNL1        0.0353
     38 C         -31.0499   49.3755   -5.5453 C.3     1  UNL1        0.0569
     39 C         -30.4234   48.3895   -4.5960 C.ar    1  UNL1       -0.0017
     40 C         -30.9748   47.1831   -4.1717 C.ar    1  UNL1        0.0681
     41 N         -30.1161   46.5314   -3.3551 N.ar    1  UNL1       -0.3523
     42 C         -29.0296   47.3162   -3.2556 C.ar    1  UNL1        0.0563
     43 C         -27.8676   47.0605   -2.5289 C.ar    1  UNL1        0.0170
     44 C         -26.8430   48.0237   -2.5668 C.ar    1  UNL1        0.0015
     45 C         -27.0028   49.2092   -3.3173 C.ar    1  UNL1        0.0001
     46 C         -28.1873   49.4412   -4.0394 C.ar    1  UNL1        0.0012
     47 C         -29.1816   48.4630   -3.9925 C.ar    1  UNL1        0.0131
     48 H         -30.2678   45.6032   -2.9016 H       1  UNL1        0.1660
@<TRIPOS>BOND
     1     1     2    2
     2     2     3   am
     3     3    27    1
     4    27    38    1
     5    38    39    1
     6    39    40   ar
     7    40    41   ar
     8    41    42   ar
     9    42    43   ar
    10    43    44   ar
    11    44    45   ar
    12    45    46   ar
    13    46    47   ar
    14    27    28    1
    15    28    29    2
    16    28    30   am
    17    30    32    1
    18    32    33   ar
    19    33    34   ar
    20    34    35   ar
    21    35    36   ar
    22    36    37   ar
    23     2     5    1
    24     5     6   ar
    25     6     7   ar
    26     7     8   ar
    27     8    13    1
    28    13    14    1
    29    14    15    1
    30    15    16    1
    31    16    19    1
    32    19    20   ar
    33    20    21   ar
    34    21    22   ar
    35    22    23    1
    36    22    24   ar
    37    24    25   ar
    38    25    26    1
    39    16    17    1
    40    17    18    1
    41     8     9   ar
    42     9    10    1
    43     9    11   ar
    44    11    12    1
    45    47    39   ar
    46    37    32   ar
    47    11     5   ar
    48    47    42   ar
    49    18    13    1
    50    25    19   ar
    51     3     4    1
    52    41    48    1
    53    30    31    1
@<TRIPOS>MOLECULE
*****
 48 53 0 0 0
SMALL
GASTEIGER

@<TRIPOS>ATOM
      1 O         -29.5444   51.6008   -7.5549 O.2     1  UNL1       -0.2701
      2 C         -28.8015   50.7021   -8.0361 C.2     1  UNL1        0.2484
      3 N         -29.3607   49.4286   -8.4012 N.am    1  UNL1       -0.2945
      4 H         -28.7289   48.7234   -8.8344 H       1  UNL1        0.1501
      5 C         -27.3768   51.0062   -8.2993 C.ar    1  UNL1        0.0831
      6 C         -27.0503   52.0445   -9.1871 C.ar    1  UNL1        0.0082
      7 C         -25.7201   52.2937   -9.5293 C.ar    1  UNL1        0.0171
      8 C         -24.6892   51.5216   -8.9756 C.ar    1  UNL1        0.0780
      9 C         -25.0058   50.5062   -8.0597 C.ar    1  UNL1        0.1807
     10 F         -24.0229   49.7410   -7.5207 F       1  UNL1       -0.2005
     11 C         -26.3384   50.2534   -7.7165 C.ar    1  UNL1        0.1729
     12 F         -26.6030   49.2983   -6.7903 F       1  UNL1       -0.2016
     13 N         -23.3223   51.7585   -9.3525 N.pl3   1  UNL1       -0.3023
     14 C         -22.9613   51.9005  -10.7675 C.3     1  UNL1        0.1123
     15 C         -21.6100   51.2341  -11.0307 C.3     1  UNL1        0.1123
     16 N         -20.6397   51.6470  -10.0132 N.pl3   1  UNL1       -0.3034
     17 C         -21.0006   51.5227   -8.5986 C.3     1  UNL1        0.1123
     18 C         -22.3493   52.1956   -8.3454 C.3     1  UNL1        0.1123
     19 C         -19.2650   51.8202  -10.3786 C.ar    1  UNL1        0.0587
     20 C         -18.9338   52.0109  -11.7265 C.ar    1  UNL1        0.0162
     21 C         -17.6001   52.1820  -12.1070 C.ar    1  UNL1        0.0127
     22 C         -16.5885   52.1632  -11.1418 C.ar    1  UNL1        0.0586
     23 CL        -14.9147   52.3780  -11.6206 Cl      1  UNL1       -0.0822
     24 C         -16.9121   51.9729   -9.7940 C.ar    1  UNL1        0.0240
     25 C         -18.2466   51.8010   -9.4067 C.ar    1  UNL1        0.0718
     26 CL        -18.6170   51.5629   -7.7047 Cl      1  UNL1       -0.0809
     27 C         -30.8064   49.2117   -8.5248 C.3     1  UNL1        0.1535
     28 C         -31.1907   48.7708   -9.9271 C.2     1  UNL1        0.2443
     29 O         -31.3538   47.5427  -10.1572 O.2     1  UNL1       -0.2730
     30 N         -31.5840   49.7144  -10.9361 N.am    1  UNL1       -0.2825
     31 H         -32.5440   49.6165  -11.3367 H       1  UNL1        0.1549
     32 C         -30.7269   50.7392  -11.4658 C.ar    1  UNL1        0.0535
     33 C         -29.3991   50.4314  -11.7906 C.ar    1  UNL1        0.0353
     34 C         -28.5765   51.4173  -12.3417 C.ar    1  UNL1        0.1002
     35 N         -29.0565   52.6737  -12.5390 N.ar    1  UNL1       -0.2422
     36 C         -30.3303   53.0094  -12.2038 C.ar    1  UNL1        0.1002
     37 C         -31.1839   52.0529  -11.6498 C.ar    1  UNL1        0.0353
     38 C         -31.3123   48.2465   -7.4277 C.3     1  UNL1        0.0569
     39 C         -30.2384   47.3638   -6.8504 C.ar    1  UNL1       -0.0017
     40 C         -29.8665   46.1030   -7.3102 C.ar    1  UNL1        0.0681
     41 N         -28.8357   45.6183   -6.5812 N.ar    1  UNL1       -0.3523
     42 C         -28.5557   46.5583   -5.6624 C.ar    1  UNL1        0.0563
     43 C         -27.5586   46.5164   -4.6889 C.ar    1  UNL1        0.0170
     44 C         -27.4364   47.6197   -3.8248 C.ar    1  UNL1        0.0015
     45 C         -28.3065   48.7251   -3.9483 C.ar    1  UNL1        0.0001
     46 C         -29.3047   48.7390   -4.9390 C.ar    1  UNL1        0.0012
     47 C         -29.3949   47.6359   -5.7891 C.ar    1  UNL1        0.0131
     48 H         -28.3534   44.7017   -6.7133 H       1  UNL1        0.1660
@<TRIPOS>BOND
     1     1     2    2
     2     2     3   am
     3     3    27    1
     4    27    38    1
     5    38    39    1
     6    39    40   ar
     7    40    41   ar
     8    41    42   ar
     9    42    43   ar
    10    43    44   ar
    11    44    45   ar
    12    45    46   ar
    13    46    47   ar
    14    27    28    1
    15    28    29    2
    16    28    30   am
    17    30    32    1
    18    32    33   ar
    19    33    34   ar
    20    34    35   ar
    21    35    36   ar
    22    36    37   ar
    23     2     5    1
    24     5     6   ar
    25     6     7   ar
    26     7     8   ar
    27     8    13    1
    28    13    14    1
    29    14    15    1
    30    15    16    1
    31    16    19    1
    32    19    20   ar
    33    20    21   ar
    34    21    22   ar
    35    22    23    1
    36    22    24   ar
    37    24    25   ar
    38    25    26    1
    39    16    17    1
    40    17    18    1
    41     8     9   ar
    42     9    10    1
    43     9    11   ar
    44    11    12    1
    45    47    39   ar
    46    37    32   ar
    47    11     5   ar
    48    47    42   ar
    49    18    13    1
    50    25    19   ar
    51     3     4    1
    52    41    48    1
    53    30    31    1
@<TRIPOS>MOLECULE
*****
 48 53 0 0 0
SMALL
GASTEIGER

@<TRIPOS>ATOM
      1 O         -31.5836   49.2709   -2.9872 O.2     1  UNL1       -0.2701
      2 C         -30.6415   48.5444   -3.4063 C.2     1  UNL1        0.2484
      3 N         -29.8297   47.8128   -2.4718 N.am    1  UNL1       -0.2945
      4 H         -29.0872   47.1897   -2.8524 H       1  UNL1        0.1501
      5 C         -30.4430   48.3883   -4.8650 C.ar    1  UNL1        0.0831
      6 C         -30.0467   49.5007   -5.6256 C.ar    1  UNL1        0.0082
      7 C         -29.9433   49.4101   -7.0148 C.ar    1  UNL1        0.0171
      8 C         -30.2161   48.2003   -7.6684 C.ar    1  UNL1        0.0780
      9 C         -30.5774   47.0751   -6.9111 C.ar    1  UNL1        0.1807
     10 F         -30.8555   45.8977   -7.5262 F       1  UNL1       -0.2005
     11 C         -30.6833   47.1638   -5.5188 C.ar    1  UNL1        0.1729
     12 F         -30.9854   46.0439   -4.8154 F       1  UNL1       -0.2016
     13 N         -30.1398   48.1163   -9.1016 N.pl3   1  UNL1       -0.3023
     14 C         -30.8902   49.0607   -9.9367 C.3     1  UNL1        0.1123
     15 C         -31.4379   48.3440  -11.1719 C.3     1  UNL1        0.1123
     16 N         -30.3833   47.5396  -11.7948 N.pl3   1  UNL1       -0.3034
     17 C         -29.6195   46.6064  -10.9626 C.3     1  UNL1        0.1123
     18 C         -29.0728   47.3333   -9.7343 C.3     1  UNL1        0.1123
     19 C         -30.3478   47.4054  -13.2210 C.ar    1  UNL1        0.0587
     20 C         -30.5333   46.1406  -13.7942 C.ar    1  UNL1        0.0162
     21 C         -30.5028   45.9849  -15.1826 C.ar    1  UNL1        0.0127
     22 C         -30.2864   47.0934  -16.0071 C.ar    1  UNL1        0.0586
     23 CL        -30.2483   46.8967  -17.7497 Cl      1  UNL1       -0.0822
     24 C         -30.1001   48.3593  -15.4413 C.ar    1  UNL1        0.0240
     25 C         -30.1296   48.5215  -14.0509 C.ar    1  UNL1        0.0718
     26 CL        -29.8904   50.1263  -13.3740 Cl      1  UNL1       -0.0809
     27 C         -30.2201   47.6259   -1.0699 C.3     1  UNL1        0.1535
     28 C         -30.2637   46.1555   -0.6899 C.2     1  UNL1        0.2443
     29 O         -30.6440   45.8357    0.4681 O.2     1  UNL1       -0.2730
     30 N         -30.0965   45.1159   -1.6668 N.am    1  UNL1       -0.2825
     31 H         -30.8870   44.4444   -1.7932 H       1  UNL1        0.1549
     32 C         -28.8983   44.9085   -2.4329 C.ar    1  UNL1        0.0535
     33 C         -27.6592   45.2778   -1.8932 C.ar    1  UNL1        0.0353
     34 C         -26.4905   45.0410   -2.6215 C.ar    1  UNL1        0.1002
     35 N         -26.5592   44.4769   -3.8563 N.ar    1  UNL1       -0.2422
     36 C         -27.7495   44.1377   -4.4183 C.ar    1  UNL1        0.1002
     37 C         -28.9404   44.3589   -3.7232 C.ar    1  UNL1        0.0353
     38 C         -29.3211   48.4660   -0.1333 C.3     1  UNL1        0.0569
     39 C         -30.0793   49.2097    0.9332 C.ar    1  UNL1       -0.0017
     40 C         -31.0955   50.1403    0.7310 C.ar    1  UNL1        0.0681
     41 N         -31.5819   50.5751    1.9156 N.ar    1  UNL1       -0.3523
     42 C         -30.8799   49.9320    2.8643 C.ar    1  UNL1        0.0563
     43 C         -31.0293   50.0436    4.2459 C.ar    1  UNL1        0.0170
     44 C         -30.1853   49.2698    5.0632 C.ar    1  UNL1        0.0015
     45 C         -29.2189   48.4156    4.4880 C.ar    1  UNL1        0.0001
     46 C         -29.0897   48.3248    3.0905 C.ar    1  UNL1        0.0012
     47 C         -29.9480   49.0953    2.3049 C.ar    1  UNL1        0.0131
     48 H         -32.3518   51.2656    2.0593 H       1  UNL1        0.1660
@<TRIPOS>BOND
     1     1     2    2
     2     2     3   am
     3     3    27    1
     4    27    38    1
     5    38    39    1
     6    39    40   ar
     7    40    41   ar
     8    41    42   ar
     9    42    43   ar
    10    43    44   ar
    11    44    45   ar
    12    45    46   ar
    13    46    47   ar
    14    27    28    1
    15    28    29    2
    16    28    30   am
    17    30    32    1
    18    32    33   ar
    19    33    34   ar
    20    34    35   ar
    21    35    36   ar
    22    36    37   ar
    23     2     5    1
    24     5     6   ar
    25     6     7   ar
    26     7     8   ar
    27     8    13    1
    28    13    14    1
    29    14    15    1
    30    15    16    1
    31    16    19    1
    32    19    20   ar
    33    20    21   ar
    34    21    22   ar
    35    22    23    1
    36    22    24   ar
    37    24    25   ar
    38    25    26    1
    39    16    17    1
    40    17    18    1
    41     8     9   ar
    42     9    10    1
    43     9    11   ar
    44    11    12    1
    45    47    39   ar
    46    37    32   ar
    47    11     5   ar
    48    47    42   ar
    49    18    13    1
    50    25    19   ar
    51     3     4    1
    52    41    48    1
    53    30    31    1
@<TRIPOS>MOLECULE
*****
 48 53 0 0 0
SMALL
GASTEIGER

@<TRIPOS>ATOM
      1 O         -27.9867   48.0115   -9.1627 O.2     1  UNL1       -0.2701
      2 C         -28.7617   48.8316   -8.5990 C.2     1  UNL1        0.2484
      3 N         -29.2956   49.9410   -9.3421 N.am    1  UNL1       -0.2945
      4 H         -29.9652   50.5757   -8.8594 H       1  UNL1        0.1501
      5 C         -29.1795   48.5870   -7.2001 C.ar    1  UNL1        0.0831
      6 C         -29.7331   49.6417   -6.4558 C.ar    1  UNL1        0.0082
      7 C         -30.0487   49.4692   -5.1069 C.ar    1  UNL1        0.0171
      8 C         -29.8343   48.2332   -4.4812 C.ar    1  UNL1        0.0780
      9 C         -29.3152   47.1644   -5.2285 C.ar    1  UNL1        0.1807
     10 F         -29.0908   45.9630   -4.6383 F       1  UNL1       -0.2005
     11 C         -28.9966   47.3353   -6.5801 C.ar    1  UNL1        0.1729
     12 F         -28.5447   46.2669   -7.2833 F       1  UNL1       -0.2016
     13 N         -30.1302   48.0657   -3.0844 N.pl3   1  UNL1       -0.3023
     14 C         -31.4951   48.2763   -2.5892 C.3     1  UNL1        0.1123
     15 C         -31.4543   48.9543   -1.2188 C.3     1  UNL1        0.1123
     16 N         -30.4889   48.2748   -0.3507 N.pl3   1  UNL1       -0.3034
     17 C         -29.1288   48.0471   -0.8459 C.3     1  UNL1        0.1123
     18 C         -29.1808   47.3652   -2.2127 C.3     1  UNL1        0.1123
     19 C         -30.7569   48.1657    1.0527 C.ar    1  UNL1        0.0587
     20 C         -30.5106   49.2662    1.8840 C.ar    1  UNL1        0.0162
     21 C         -30.7641   49.1837    3.2558 C.ar    1  UNL1        0.0127
     22 C         -31.2654   47.9996    3.8054 C.ar    1  UNL1        0.0586
     23 CL        -31.5831   47.8973    5.5275 Cl      1  UNL1       -0.0822
     24 C         -31.5133   46.8967    2.9811 C.ar    1  UNL1        0.0240
     25 C         -31.2614   46.9735    1.6059 C.ar    1  UNL1        0.0718
     26 CL        -31.5831   45.5680    0.6000 Cl      1  UNL1       -0.0809
     27 C         -29.2285   50.0112  -10.8060 C.3     1  UNL1        0.1535
     28 C         -30.6120   50.0938  -11.4286 C.2     1  UNL1        0.2443
     29 O         -31.5828   50.4571  -10.7121 O.2     1  UNL1       -0.2730
     30 N         -30.8117   49.9834  -12.8468 N.am    1  UNL1       -0.2825
     31 H         -31.2472   50.7981  -13.3349 H       1  UNL1        0.1549
     32 C         -30.5061   48.8109  -13.6196 C.ar    1  UNL1        0.0535
     33 C         -30.6055   47.5455  -13.0262 C.ar    1  UNL1        0.0353
     34 C         -30.3460   46.4032  -13.7878 C.ar    1  UNL1        0.1002
     35 N         -29.9765   46.5218  -15.0906 N.ar    1  UNL1       -0.2422
     36 C         -29.8410   47.7373  -15.6837 C.ar    1  UNL1        0.1002
     37 C         -30.0903   48.9032  -14.9565 C.ar    1  UNL1        0.0353
     38 C         -28.2927   51.1562  -11.2582 C.3     1  UNL1        0.0569
     39 C         -27.2535   51.5331  -10.2367 C.ar    1  UNL1       -0.0017
     40 C         -27.4900   51.9442   -8.9273 C.ar    1  UNL1        0.0681
     41 N         -26.3220   52.1581   -8.2799 N.ar    1  UNL1       -0.3523
     42 C         -25.3500   51.8906   -9.1687 C.ar    1  UNL1        0.0563
     43 C         -23.9733   51.9575   -8.9593 C.ar    1  UNL1        0.0170
     44 C         -23.1279   51.6287  -10.0345 C.ar    1  UNL1        0.0015
     45 C         -23.6710   51.2495  -11.2818 C.ar    1  UNL1        0.0001
     46 C         -25.0643   51.1927  -11.4645 C.ar    1  UNL1        0.0012
     47 C         -25.8781   51.5131  -10.3771 C.ar    1  UNL1        0.0131
     48 H         -26.2039   52.4626   -7.2882 H       1  UNL1        0.1660
@<TRIPOS>BOND
     1     1     2    2
     2     2     3   am
     3     3    27    1
     4    27    38    1
     5    38    39    1
     6    39    40   ar
     7    40    41   ar
     8    41    42   ar
     9    42    43   ar
    10    43    44   ar
    11    44    45   ar
    12    45    46   ar
    13    46    47   ar
    14    27    28    1
    15    28    29    2
    16    28    30   am
    17    30    32    1
    18    32    33   ar
    19    33    34   ar
    20    34    35   ar
    21    35    36   ar
    22    36    37   ar
    23     2     5    1
    24     5     6   ar
    25     6     7   ar
    26     7     8   ar
    27     8    13    1
    28    13    14    1
    29    14    15    1
    30    15    16    1
    31    16    19    1
    32    19    20   ar
    33    20    21   ar
    34    21    22   ar
    35    22    23    1
    36    22    24   ar
    37    24    25   ar
    38    25    26    1
    39    16    17    1
    40    17    18    1
    41     8     9   ar
    42     9    10    1
    43     9    11   ar
    44    11    12    1
    45    47    39   ar
    46    37    32   ar
    47    11     5   ar
    48    47    42   ar
    49    18    13    1
    50    25    19   ar
    51     3     4    1
    52    41    48    1
    53    30    31    1
@<TRIPOS>MOLECULE
*****
 48 53 0 0 0
SMALL
GASTEIGER

@<TRIPOS>ATOM
      1 O         -24.1256   51.9116  -11.3176 O.2     1  UNL1       -0.2701
      2 C         -23.6795   51.9758  -10.1395 C.2     1  UNL1        0.2484
      3 N         -22.4000   52.5825   -9.8891 N.am    1  UNL1       -0.2945
      4 H         -22.0794   52.6573   -8.9013 H       1  UNL1        0.1501
      5 C         -24.5242   51.5021   -9.0199 C.ar    1  UNL1        0.0831
      6 C         -24.0118   50.5397   -8.1344 C.ar    1  UNL1        0.0082
      7 C         -24.8154   50.0033   -7.1268 C.ar    1  UNL1        0.0171
      8 C         -26.1410   50.4328   -6.9733 C.ar    1  UNL1        0.0780
      9 C         -26.6481   51.4207   -7.8318 C.ar    1  UNL1        0.1807
     10 F         -27.9320   51.8422   -7.7060 F       1  UNL1       -0.2005
     11 C         -25.8452   51.9586   -8.8435 C.ar    1  UNL1        0.1729
     12 F         -26.3524   52.9472   -9.6217 F       1  UNL1       -0.2016
     13 N         -26.9772   49.8572   -5.9554 N.pl3   1  UNL1       -0.3023
     14 C         -26.9408   50.3832   -4.5863 C.3     1  UNL1        0.1123
     15 C         -27.0685   49.2360   -3.5829 C.3     1  UNL1        0.1123
     16 N         -28.1731   48.3531   -3.9672 N.pl3   1  UNL1       -0.3034
     17 C         -28.2238   47.8376   -5.3378 C.3     1  UNL1        0.1123
     18 C         -28.1003   48.9918   -6.3320 C.3     1  UNL1        0.1123
     19 C         -28.9651   47.7297   -2.9486 C.ar    1  UNL1        0.0587
     20 C         -28.5027   46.5521   -2.3470 C.ar    1  UNL1        0.0162
     21 C         -29.2576   45.9260   -1.3515 C.ar    1  UNL1        0.0127
     22 C         -30.4804   46.4736   -0.9512 C.ar    1  UNL1        0.0586
     23 CL        -31.4271   45.6868    0.2984 Cl      1  UNL1       -0.0822
     24 C         -30.9484   47.6493   -1.5481 C.ar    1  UNL1        0.0240
     25 C         -30.1964   48.2811   -2.5459 C.ar    1  UNL1        0.0718
     26 CL        -30.8153   49.7561   -3.2754 Cl      1  UNL1       -0.0809
     27 C         -21.7097   53.4025  -10.8909 C.3     1  UNL1        0.1535
     28 C         -20.9975   54.5846  -10.2556 C.2     1  UNL1        0.2443
     29 O         -20.8307   55.6330  -10.9344 O.2     1  UNL1       -0.2730
     30 N         -20.7044   54.6255   -8.8500 N.am    1  UNL1       -0.2825
     31 H         -21.1250   55.4041   -8.2945 H       1  UNL1        0.1549
     32 C         -19.8300   53.7046   -8.1771 C.ar    1  UNL1        0.0535
     33 C         -20.3758   52.6660   -7.4112 C.ar    1  UNL1        0.0353
     34 C         -19.5268   51.7474   -6.7884 C.ar    1  UNL1        0.1002
     35 N         -18.1787   51.8761   -6.9066 N.ar    1  UNL1       -0.2422
     36 C         -17.6206   52.8921   -7.6166 C.ar    1  UNL1        0.1002
     37 C         -18.4347   53.8313   -8.2533 C.ar    1  UNL1        0.0353
     38 C         -20.7760   52.5320  -11.7637 C.3     1  UNL1        0.0569
     39 C         -19.7904   51.7141  -10.9730 C.ar    1  UNL1       -0.0017
     40 C         -20.0925   50.6919  -10.0768 C.ar    1  UNL1        0.0681
     41 N         -18.9587   50.1456   -9.5819 N.ar    1  UNL1       -0.3523
     42 C         -17.9432   50.8156  -10.1530 C.ar    1  UNL1        0.0563
     43 C         -16.5787   50.6028   -9.9623 C.ar    1  UNL1        0.0170
     44 C         -15.6801   51.4228  -10.6688 C.ar    1  UNL1        0.0015
     45 C         -16.1600   52.4286  -11.5363 C.ar    1  UNL1        0.0001
     46 C         -17.5425   52.6217  -11.7076 C.ar    1  UNL1        0.0012
     47 C         -18.4099   51.7860  -11.0028 C.ar    1  UNL1        0.0131
     48 H         -18.8906   49.3581   -8.8997 H       1  UNL1        0.1660
@<TRIPOS>BOND
     1     1     2    2
     2     2     3   am
     3     3    27    1
     4    27    38    1
     5    38    39    1
     6    39    40   ar
     7    40    41   ar
     8    41    42   ar
     9    42    43   ar
    10    43    44   ar
    11    44    45   ar
    12    45    46   ar
    13    46    47   ar
    14    27    28    1
    15    28    29    2
    16    28    30   am
    17    30    32    1
    18    32    33   ar
    19    33    34   ar
    20    34    35   ar
    21    35    36   ar
    22    36    37   ar
    23     2     5    1
    24     5     6   ar
    25     6     7   ar
    26     7     8   ar
    27     8    13    1
    28    13    14    1
    29    14    15    1
    30    15    16    1
    31    16    19    1
    32    19    20   ar
    33    20    21   ar
    34    21    22   ar
    35    22    23    1
    36    22    24   ar
    37    24    25   ar
    38    25    26    1
    39    16    17    1
    40    17    18    1
    41     8     9   ar
    42     9    10    1
    43     9    11   ar
    44    11    12    1
    45    47    39   ar
    46    37    32   ar
    47    11     5   ar
    48    47    42   ar
    49    18    13    1
    50    25    19   ar
    51     3     4    1
    52    41    48    1
    53    30    31    1
@<TRIPOS>MOLECULE
*****
 48 53 0 0 0
SMALL
GASTEIGER

@<TRIPOS>ATOM
      1 O         -23.3417   52.0897  -11.6575 O.2     1  UNL1       -0.2701
      2 C         -23.1830   52.0544  -10.4067 C.2     1  UNL1        0.2484
      3 N         -22.1202   52.8073   -9.7971 N.am    1  UNL1       -0.2945
      4 H         -22.0422   52.7901   -8.7589 H       1  UNL1        0.1501
      5 C         -24.1522   51.3049   -9.5759 C.ar    1  UNL1        0.0831
      6 C         -23.9092   51.1624   -8.1998 C.ar    1  UNL1        0.0082
      7 C         -24.7529   50.3822   -7.4072 C.ar    1  UNL1        0.0171
      8 C         -25.8665   49.7446   -7.9718 C.ar    1  UNL1        0.0780
      9 C         -26.1356   49.9123   -9.3391 C.ar    1  UNL1        0.1807
     10 F         -27.2028   49.2949   -9.9065 F       1  UNL1       -0.2005
     11 C         -25.2906   50.6925  -10.1359 C.ar    1  UNL1        0.1729
     12 F         -25.6098   50.8734  -11.4419 F       1  UNL1       -0.2016
     13 N         -26.7168   48.9160   -7.1612 N.pl3   1  UNL1       -0.3023
     14 C         -28.0103   49.4239   -6.6907 C.3     1  UNL1        0.1123
     15 C         -28.2775   48.9321   -5.2673 C.3     1  UNL1        0.1123
     16 N         -28.0114   47.4941   -5.1744 N.pl3   1  UNL1       -0.3034
     17 C         -26.7278   46.9787   -5.6576 C.3     1  UNL1        0.1123
     18 C         -26.4728   47.4716   -7.0816 C.3     1  UNL1        0.1123
     19 C         -28.8207   46.6810   -4.3157 C.ar    1  UNL1        0.0587
     20 C         -28.5591   46.6681   -2.9394 C.ar    1  UNL1        0.0162
     21 C         -29.3347   45.8829   -2.0822 C.ar    1  UNL1        0.0127
     22 C         -30.3771   45.1051   -2.5959 C.ar    1  UNL1        0.0586
     23 CL        -31.3498   44.1200   -1.5188 Cl      1  UNL1       -0.0822
     24 C         -30.6435   45.1130   -3.9693 C.ar    1  UNL1        0.0240
     25 C         -29.8699   45.8978   -4.8331 C.ar    1  UNL1        0.0718
     26 CL        -30.2316   45.8826   -6.5535 Cl      1  UNL1       -0.0809
     27 C         -21.3874   53.8556  -10.5158 C.3     1  UNL1        0.1535
     28 C         -22.1990   55.1354  -10.6239 C.2     1  UNL1        0.2443
     29 O         -23.0327   55.2517  -11.5617 O.2     1  UNL1       -0.2730
     30 N         -22.2053   56.1185   -9.5767 N.am    1  UNL1       -0.2825
     31 H         -23.1233   56.3352   -9.1273 H       1  UNL1        0.1549
     32 C         -21.0484   56.8580   -9.1522 C.ar    1  UNL1        0.0535
     33 C         -20.5824   57.9231   -9.9343 C.ar    1  UNL1        0.0353
     34 C         -19.4812   58.6669   -9.5026 C.ar    1  UNL1        0.1002
     35 N         -18.8522   58.3428   -8.3419 N.ar    1  UNL1       -0.2422
     36 C         -19.2624   57.2951   -7.5791 C.ar    1  UNL1        0.1002
     37 C         -20.3586   56.5264   -7.9762 C.ar    1  UNL1        0.0353
     38 C         -19.9908   54.0764   -9.8897 C.3     1  UNL1        0.0569
     39 C         -18.9750   53.0383  -10.2847 C.ar    1  UNL1       -0.0017
     40 C         -18.7888   52.5034  -11.5570 C.ar    1  UNL1        0.0681
     41 N         -17.7577   51.6284  -11.5565 N.ar    1  UNL1       -0.3523
     42 C         -17.2935   51.6016  -10.2955 C.ar    1  UNL1        0.0563
     43 C         -16.2244   50.8528   -9.8055 C.ar    1  UNL1        0.0170
     44 C         -15.9030   50.9796   -8.4419 C.ar    1  UNL1        0.0015
     45 C         -16.6517   51.8381   -7.6071 C.ar    1  UNL1        0.0001
     46 C         -17.7266   52.5801   -8.1288 C.ar    1  UNL1        0.0012
     47 C         -18.0150   52.4429   -9.4874 C.ar    1  UNL1        0.0131
     48 H         -17.3946   51.0900  -12.3741 H       1  UNL1        0.1660
@<TRIPOS>BOND
     1     1     2    2
     2     2     3   am
     3     3    27    1
     4    27    38    1
     5    38    39    1
     6    39    40   ar
     7    40    41   ar
     8    41    42   ar
     9    42    43   ar
    10    43    44   ar
    11    44    45   ar
    12    45    46   ar
    13    46    47   ar
    14    27    28    1
    15    28    29    2
    16    28    30   am
    17    30    32    1
    18    32    33   ar
    19    33    34   ar
    20    34    35   ar
    21    35    36   ar
    22    36    37   ar
    23     2     5    1
    24     5     6   ar
    25     6     7   ar
    26     7     8   ar
    27     8    13    1
    28    13    14    1
    29    14    15    1
    30    15    16    1
    31    16    19    1
    32    19    20   ar
    33    20    21   ar
    34    21    22   ar
    35    22    23    1
    36    22    24   ar
    37    24    25   ar
    38    25    26    1
    39    16    17    1
    40    17    18    1
    41     8     9   ar
    42     9    10    1
    43     9    11   ar
    44    11    12    1
    45    47    39   ar
    46    37    32   ar
    47    11     5   ar
    48    47    42   ar
    49    18    13    1
    50    25    19   ar
    51     3     4    1
    52    41    48    1
    53    30    31    1
@<TRIPOS>MOLECULE
*****
 48 53 0 0 0
SMALL
GASTEIGER

@<TRIPOS>ATOM
      1 O         -24.2199   51.4623  -11.5403 O.2     1  UNL1       -0.2701
      2 C         -23.6818   51.5540  -10.4032 C.2     1  UNL1        0.2484
      3 N         -22.3350   52.0437  -10.2844 N.am    1  UNL1       -0.2945
      4 H         -21.9348   52.1468   -9.3287 H       1  UNL1        0.1501
      5 C         -24.4806   51.2371   -9.1978 C.ar    1  UNL1        0.0831
      6 C         -24.0706   50.1865   -8.3606 C.ar    1  UNL1        0.0082
      7 C         -24.8526   49.8014   -7.2702 C.ar    1  UNL1        0.0171
      8 C         -26.0503   50.4718   -6.9850 C.ar    1  UNL1        0.0780
      9 C         -26.4476   51.5462   -7.7962 C.ar    1  UNL1        0.1807
     10 F         -27.6089   52.2012   -7.5426 F       1  UNL1       -0.2005
     11 C         -25.6664   51.9329   -8.8906 C.ar    1  UNL1        0.1729
     12 F         -26.0553   53.0072   -9.6219 F       1  UNL1       -0.2016
     13 N         -26.8705   50.0543   -5.8806 N.pl3   1  UNL1       -0.3023
     14 C         -26.5690   50.5173   -4.5215 C.3     1  UNL1        0.1123
     15 C         -26.8256   49.3919   -3.5179 C.3     1  UNL1        0.1123
     16 N         -28.1294   48.7754   -3.7771 N.pl3   1  UNL1       -0.3034
     17 C         -28.4426   48.3257   -5.1360 C.3     1  UNL1        0.1123
     18 C         -28.1877   49.4585   -6.1299 C.3     1  UNL1        0.1123
     19 C         -28.9169   48.3018   -2.6776 C.ar    1  UNL1        0.0587
     20 C         -29.9841   49.0820   -2.2140 C.ar    1  UNL1        0.0162
     21 C         -30.7661   48.6411   -1.1430 C.ar    1  UNL1        0.0127
     22 C         -30.4858   47.4168   -0.5284 C.ar    1  UNL1        0.0586
     23 CL        -31.4681   46.8644    0.8157 Cl      1  UNL1       -0.0822
     24 C         -29.4213   46.6327   -0.9862 C.ar    1  UNL1        0.0240
     25 C         -28.6343   47.0692   -2.0588 C.ar    1  UNL1        0.0718
     26 CL        -27.3038   46.0593   -2.6071 Cl      1  UNL1       -0.0809
     27 C         -21.6475   52.7272  -11.3856 C.3     1  UNL1        0.1535
     28 C         -22.1184   54.1638  -11.5368 C.2     1  UNL1        0.2443
     29 O         -22.5719   54.5432  -12.6495 O.2     1  UNL1       -0.2730
     30 N         -22.2661   55.0350  -10.4045 N.am    1  UNL1       -0.2825
     31 H         -23.2190   55.4203  -10.2164 H       1  UNL1        0.1549
     32 C         -21.1837   55.4524   -9.5561 C.ar    1  UNL1        0.0535
     33 C         -20.5876   56.7039   -9.7600 C.ar    1  UNL1        0.0353
     34 C         -19.5612   57.1265   -8.9112 C.ar    1  UNL1        0.1002
     35 N         -19.1287   56.3168   -7.9087 N.ar    1  UNL1       -0.2422
     36 C         -19.6665   55.0847   -7.7072 C.ar    1  UNL1        0.1002
     37 C         -20.6937   54.6251   -8.5343 C.ar    1  UNL1        0.0353
     38 C         -20.1133   52.6067  -11.2337 C.3     1  UNL1        0.0569
     39 C         -19.6671   52.2119   -9.8515 C.ar    1  UNL1       -0.0017
     40 C         -20.4885   51.9729   -8.7525 C.ar    1  UNL1        0.0681
     41 N         -19.7512   51.5950   -7.6837 N.ar    1  UNL1       -0.3523
     42 C         -18.4718   51.5974   -8.0950 C.ar    1  UNL1        0.0563
     43 C         -17.3439   51.2643   -7.3462 C.ar    1  UNL1        0.0170
     44 C         -16.0900   51.3319   -7.9803 C.ar    1  UNL1        0.0015
     45 C         -15.9921   51.7309   -9.3314 C.ar    1  UNL1        0.0001
     46 C         -17.1473   52.0630  -10.0618 C.ar    1  UNL1        0.0012
     47 C         -18.3782   51.9757   -9.4101 C.ar    1  UNL1        0.0131
     48 H         -20.1085   51.3459   -6.7347 H       1  UNL1        0.1660
@<TRIPOS>BOND
     1     1     2    2
     2     2     3   am
     3     3    27    1
     4    27    38    1
     5    38    39    1
     6    39    40   ar
     7    40    41   ar
     8    41    42   ar
     9    42    43   ar
    10    43    44   ar
    11    44    45   ar
    12    45    46   ar
    13    46    47   ar
    14    27    28    1
    15    28    29    2
    16    28    30   am
    17    30    32    1
    18    32    33   ar
    19    33    34   ar
    20    34    35   ar
    21    35    36   ar
    22    36    37   ar
    23     2     5    1
    24     5     6   ar
    25     6     7   ar
    26     7     8   ar
    27     8    13    1
    28    13    14    1
    29    14    15    1
    30    15    16    1
    31    16    19    1
    32    19    20   ar
    33    20    21   ar
    34    21    22   ar
    35    22    23    1
    36    22    24   ar
    37    24    25   ar
    38    25    26    1
    39    16    17    1
    40    17    18    1
    41     8     9   ar
    42     9    10    1
    43     9    11   ar
    44    11    12    1
    45    47    39   ar
    46    37    32   ar
    47    11     5   ar
    48    47    42   ar
    49    18    13    1
    50    25    19   ar
    51     3     4    1
    52    41    48    1
    53    30    31    1
@<TRIPOS>MOLECULE
*****
 48 53 0 0 0
SMALL
GASTEIGER

@<TRIPOS>ATOM
      1 O         -28.8322   51.0850  -12.5902 O.2     1  UNL1       -0.2701
      2 C         -28.4325   50.8448  -11.4182 C.2     1  UNL1        0.2484
      3 N         -29.2919   50.1545  -10.4948 N.am    1  UNL1       -0.2945
      4 H         -28.9165   49.9346   -9.5487 H       1  UNL1        0.1501
      5 C         -27.0466   51.2018  -11.0398 C.ar    1  UNL1        0.0831
      6 C         -25.9887   50.8366  -11.8886 C.ar    1  UNL1        0.0082
      7 C         -24.6648   51.0740  -11.5150 C.ar    1  UNL1        0.0171
      8 C         -24.3739   51.6982  -10.2939 C.ar    1  UNL1        0.0780
      9 C         -25.4276   52.0985   -9.4574 C.ar    1  UNL1        0.1807
     10 F         -25.1662   52.6948   -8.2666 F       1  UNL1       -0.2005
     11 C         -26.7553   51.8601   -9.8289 C.ar    1  UNL1        0.1729
     12 F         -27.7485   52.3058   -9.0195 F       1  UNL1       -0.2016
     13 N         -23.0094   51.9139   -9.8959 N.pl3   1  UNL1       -0.3023
     14 C         -22.0239   52.3944  -10.8708 C.3     1  UNL1        0.1123
     15 C         -20.6759   51.7133  -10.6292 C.3     1  UNL1        0.1123
     16 N         -20.3365   51.7624   -9.2045 N.pl3   1  UNL1       -0.3034
     17 C         -21.3229   51.2991   -8.2251 C.3     1  UNL1        0.1123
     18 C         -22.6642   51.9889   -8.4721 C.3     1  UNL1        0.1123
     19 C         -18.9671   51.9133   -8.8104 C.ar    1  UNL1        0.0587
     20 C         -17.9999   51.0590   -9.3556 C.ar    1  UNL1        0.0162
     21 C         -16.6582   51.1869   -8.9863 C.ar    1  UNL1        0.0127
     22 C         -16.2749   52.1701   -8.0689 C.ar    1  UNL1        0.0586
     23 CL        -14.5905   52.3297   -7.6062 Cl      1  UNL1       -0.0822
     24 C         -17.2357   53.0265   -7.5203 C.ar    1  UNL1        0.0240
     25 C         -18.5815   52.9032   -7.8865 C.ar    1  UNL1        0.0718
     26 CL        -19.7623   53.9952   -7.1764 Cl      1  UNL1       -0.0809
     27 C         -30.5016   49.4457  -10.9268 C.3     1  UNL1        0.1535
     28 C         -30.1881   48.0372  -11.4024 C.2     1  UNL1        0.2443
     29 O         -31.0102   47.4507  -12.1561 O.2     1  UNL1       -0.2730
     30 N         -28.8973   47.4402  -11.2016 N.am    1  UNL1       -0.2825
     31 H         -28.3626   47.1553  -12.0528 H       1  UNL1        0.1549
     32 C         -28.3255   47.1596   -9.9132 C.ar    1  UNL1        0.0535
     33 C         -27.3346   48.0049   -9.3969 C.ar    1  UNL1        0.0353
     34 C         -26.8059   47.7548   -8.1279 C.ar    1  UNL1        0.1002
     35 N         -27.2349   46.6834   -7.4096 N.ar    1  UNL1       -0.2422
     36 C         -28.1717   45.8283   -7.8984 C.ar    1  UNL1        0.1002
     37 C         -28.7242   46.0430   -9.1629 C.ar    1  UNL1        0.0353
     38 C         -31.5839   49.4842   -9.8229 C.3     1  UNL1        0.0569
     39 C         -31.1319   48.9116   -8.5063 C.ar    1  UNL1       -0.0017
     40 C         -31.4156   47.6397   -8.0151 C.ar    1  UNL1        0.0681
     41 N         -30.8103   47.4474   -6.8212 N.ar    1  UNL1       -0.3523
     42 C         -30.1509   48.5868   -6.5509 C.ar    1  UNL1        0.0563
     43 C         -29.3671   48.8631   -5.4315 C.ar    1  UNL1        0.0170
     44 C         -28.7589   50.1290   -5.3507 C.ar    1  UNL1        0.0015
     45 C         -28.9496   51.0812   -6.3761 C.ar    1  UNL1        0.0001
     46 C         -29.7474   50.7752   -7.4932 C.ar    1  UNL1        0.0012
     47 C         -30.3285   49.5077   -7.5518 C.ar    1  UNL1        0.0131
     48 H         -30.8453   46.5843   -6.2347 H       1  UNL1        0.1660
@<TRIPOS>BOND
     1     1     2    2
     2     2     3   am
     3     3    27    1
     4    27    38    1
     5    38    39    1
     6    39    40   ar
     7    40    41   ar
     8    41    42   ar
     9    42    43   ar
    10    43    44   ar
    11    44    45   ar
    12    45    46   ar
    13    46    47   ar
    14    27    28    1
    15    28    29    2
    16    28    30   am
    17    30    32    1
    18    32    33   ar
    19    33    34   ar
    20    34    35   ar
    21    35    36   ar
    22    36    37   ar
    23     2     5    1
    24     5     6   ar
    25     6     7   ar
    26     7     8   ar
    27     8    13    1
    28    13    14    1
    29    14    15    1
    30    15    16    1
    31    16    19    1
    32    19    20   ar
    33    20    21   ar
    34    21    22   ar
    35    22    23    1
    36    22    24   ar
    37    24    25   ar
    38    25    26    1
    39    16    17    1
    40    17    18    1
    41     8     9   ar
    42     9    10    1
    43     9    11   ar
    44    11    12    1
    45    47    39   ar
    46    37    32   ar
    47    11     5   ar
    48    47    42   ar
    49    18    13    1
    50    25    19   ar
    51     3     4    1
    52    41    48    1
    53    30    31    1
@<TRIPOS>MOLECULE
*****
 48 53 0 0 0
SMALL
GASTEIGER

@<TRIPOS>ATOM
      1 O         -28.9438   51.8000   -6.8973 O.2     1  UNL1       -0.2701
      2 C         -28.3009   50.7977   -7.3135 C.2     1  UNL1        0.2484
      3 N         -28.9188   49.4993   -7.3148 N.am    1  UNL1       -0.2945
      4 H         -28.3762   48.7001   -7.7037 H       1  UNL1        0.1501
      5 C         -26.9461   50.9915   -7.8778 C.ar    1  UNL1        0.0831
      6 C         -25.8855   50.2047   -7.3994 C.ar    1  UNL1        0.0082
      7 C         -24.5805   50.4279   -7.8420 C.ar    1  UNL1        0.0171
      8 C         -24.3137   51.4296   -8.7857 C.ar    1  UNL1        0.0780
      9 C         -25.3740   52.1953   -9.2951 C.ar    1  UNL1        0.1807
     10 F         -25.1348   53.1767  -10.2015 F       1  UNL1       -0.2005
     11 C         -26.6826   51.9746   -8.8518 C.ar    1  UNL1        0.1729
     12 F         -27.6884   52.6989   -9.4031 F       1  UNL1       -0.2016
     13 N         -22.9653   51.6795   -9.2174 N.pl3   1  UNL1       -0.3023
     14 C         -22.6385   51.6887  -10.6476 C.3     1  UNL1        0.1123
     15 C         -21.2663   51.0520  -10.8734 C.3     1  UNL1        0.1123
     16 N         -20.2940   51.6053   -9.9269 N.pl3   1  UNL1       -0.3034
     17 C         -20.6216   51.6137   -8.4988 C.3     1  UNL1        0.1123
     18 C         -21.9916   52.2559   -8.2837 C.3     1  UNL1        0.1123
     19 C         -18.9350   51.7935  -10.3407 C.ar    1  UNL1        0.0587
     20 C         -18.6560   52.0073  -11.6969 C.ar    1  UNL1        0.0162
     21 C         -17.3385   52.1933  -12.1243 C.ar    1  UNL1        0.0127
     22 C         -16.2913   52.1663  -11.1981 C.ar    1  UNL1        0.0586
     23 CL        -14.6381   52.3998  -11.7359 Cl      1  UNL1       -0.0822
     24 C         -16.5628   51.9529   -9.8423 C.ar    1  UNL1        0.0240
     25 C         -17.8808   51.7660   -9.4081 C.ar    1  UNL1        0.0718
     26 CL        -18.1855   51.4990   -7.6974 Cl      1  UNL1       -0.0809
     27 C         -30.3636   49.3164   -7.1371 C.3     1  UNL1        0.1535
     28 C         -30.8143   49.7226   -5.7442 C.2     1  UNL1        0.2443
     29 O         -31.5436   50.7417   -5.6120 O.2     1  UNL1       -0.2730
     30 N         -30.6198   48.8680   -4.6063 N.am    1  UNL1       -0.2825
     31 H         -31.4726   48.5530   -4.0913 H       1  UNL1        0.1549
     32 C         -29.3344   48.4698   -4.1018 C.ar    1  UNL1        0.0535
     33 C         -29.1624   47.1776   -3.5881 C.ar    1  UNL1        0.0353
     34 C         -27.9034   46.7771   -3.1331 C.ar    1  UNL1        0.1002
     35 N         -26.8581   47.6454   -3.1675 N.ar    1  UNL1       -0.2422
     36 C         -27.0030   48.9152   -3.6307 C.ar    1  UNL1        0.1002
     37 C         -28.2452   49.3543   -4.0936 C.ar    1  UNL1        0.0353
     38 C         -31.1496   50.0326   -8.2598 C.3     1  UNL1        0.0569
     39 C         -30.7458   49.6146   -9.6482 C.ar    1  UNL1       -0.0017
     40 C         -30.1938   50.4317  -10.6317 C.ar    1  UNL1        0.0681
     41 N         -29.9129   49.7125  -11.7419 N.ar    1  UNL1       -0.3523
     42 C         -30.2862   48.4501  -11.4715 C.ar    1  UNL1        0.0563
     43 C         -30.1811   47.3410  -12.3097 C.ar    1  UNL1        0.0170
     44 C         -30.6328   46.1018  -11.8205 C.ar    1  UNL1        0.0015
     45 C         -31.1777   46.0010  -10.5215 C.ar    1  UNL1        0.0001
     46 C         -31.2729   47.1376   -9.6986 C.ar    1  UNL1        0.0012
     47 C         -30.8063   48.3509  -10.2061 C.ar    1  UNL1        0.0131
     48 H         -29.4859   50.0687  -12.6257 H       1  UNL1        0.1660
@<TRIPOS>BOND
     1     1     2    2
     2     2     3   am
     3     3    27    1
     4    27    38    1
     5    38    39    1
     6    39    40   ar
     7    40    41   ar
     8    41    42   ar
     9    42    43   ar
    10    43    44   ar
    11    44    45   ar
    12    45    46   ar
    13    46    47   ar
    14    27    28    1
    15    28    29    2
    16    28    30   am
    17    30    32    1
    18    32    33   ar
    19    33    34   ar
    20    34    35   ar
    21    35    36   ar
    22    36    37   ar
    23     2     5    1
    24     5     6   ar
    25     6     7   ar
    26     7     8   ar
    27     8    13    1
    28    13    14    1
    29    14    15    1
    30    15    16    1
    31    16    19    1
    32    19    20   ar
    33    20    21   ar
    34    21    22   ar
    35    22    23    1
    36    22    24   ar
    37    24    25   ar
    38    25    26    1
    39    16    17    1
    40    17    18    1
    41     8     9   ar
    42     9    10    1
    43     9    11   ar
    44    11    12    1
    45    47    39   ar
    46    37    32   ar
    47    11     5   ar
    48    47    42   ar
    49    18    13    1
    50    25    19   ar
    51     3     4    1
    52    41    48    1
    53    30    31    1
