@<TRIPOS>MOLECULE
*****
 44 48 0 0 0
SMALL
GASTEIGER

@<TRIPOS>ATOM
      1 C         -28.6087   50.4330   -7.4365 C.3     1  UNL1        0.1712
      2 C         -28.6816   51.4179   -6.2633 C.3     1  UNL1        0.1369
      3 CL        -27.3154   51.1980   -5.1209 Cl      1  UNL1       -0.1098
      4 C         -30.0914   51.2313   -5.6521 C.3     1  UNL1        0.1431
      5 O         -30.5711   52.4778   -5.2045 O.3     1  UNL1       -0.3796
      6 C         -30.9378   50.7698   -6.8593 C.3     1  UNL1        0.1277
      7 N         -29.9992   50.1626   -7.7898 N.am    1  UNL1       -0.2532
      8 C         -30.4308   49.4159   -8.9426 C.2     1  UNL1        0.3081
      9 O         -31.5821   49.6273   -9.4089 O.2     1  UNL1       -0.2522
     10 N         -29.5495   48.4647   -9.5711 N.am    1  UNL1       -0.2681
     11 H         -31.5154   52.3485   -4.9229 H       1  UNL1        0.2108
     12 H         -28.6143   48.3105   -9.1332 H       1  UNL1        0.1564
     13 C         -30.0870   50.1953   -4.5071 C.ar    1  UNL1        0.0322
     14 C         -29.2535   49.0539   -4.5648 C.ar    1  UNL1        0.0026
     15 C         -29.2158   48.1374   -3.5115 C.ar    1  UNL1        0.0295
     16 C         -29.9869   48.3490   -2.3700 C.ar    1  UNL1        0.1424
     17 F         -29.9446   47.4595   -1.3477 F       1  UNL1       -0.2041
     18 C         -30.7871   49.4866   -2.2730 C.ar    1  UNL1        0.0590
     19 C         -30.8328   50.4118   -3.3211 C.ar    1  UNL1        0.1406
     20 F         -31.5835   51.5294   -3.1521 F       1  UNL1       -0.2044
     21 C         -29.7700   47.8626  -10.8617 C.ar    1  UNL1        0.0516
     22 C         -29.5047   46.4932  -11.0281 C.ar    1  UNL1        0.0156
     23 C         -29.6706   45.8814  -12.2732 C.ar    1  UNL1        0.0127
     24 C         -30.1315   46.6248  -13.3624 C.ar    1  UNL1        0.0578
     25 CL        -30.3230   45.8599  -14.9291 Cl      1  UNL1       -0.0822
     26 C         -30.4503   47.9757  -13.1977 C.ar    1  UNL1        0.0127
     27 C         -30.2829   48.5914  -11.9528 C.ar    1  UNL1        0.0156
     28 O         -28.2196   52.1236   -9.0849 O.2     1  UNL1       -0.2729
     29 C         -27.8488   51.0219   -8.5988 C.2     1  UNL1        0.2466
     30 N         -26.7670   50.2942   -9.1990 N.am    1  UNL1       -0.2680
     31 H         -26.8484   49.2526   -9.2270 H       1  UNL1        0.1563
     32 C         -25.4826   50.8590   -9.5149 C.ar    1  UNL1        0.1346
     33 C         -24.5029   51.0907   -8.5331 C.ar    1  UNL1        0.0406
     34 C         -23.2418   51.5502   -8.9127 C.ar    1  UNL1        0.0736
     35 C         -22.9548   51.7874  -10.2628 C.ar    1  UNL1        0.2466
     36 C         -23.9618   51.5617  -11.2115 C.ar    1  UNL1        0.1691
     37 N         -25.1801   51.1034  -10.8199 N.ar    1  UNL1       -0.2228
     38 N         -21.6384   52.2111  -10.6693 N.am    1  UNL1       -0.0841
     39 C         -20.6983   51.2573  -10.9543 C.2     1  UNL1        0.2905
     40 C         -19.4143   51.6217  -11.3629 C.2     1  UNL1        0.0758
     41 C         -19.0905   52.9710  -11.4790 C.2     1  UNL1        0.0161
     42 C         -20.0480   53.9394  -11.1838 C.2     1  UNL1        0.1156
     43 C         -21.3264   53.5449  -10.7738 C.2     1  UNL1        0.4230
     44 O         -22.1784   54.4308  -10.4891 O.2     1  UNL1       -0.2135
@<TRIPOS>BOND
     1    28    29    2
     2    29    30   am
     3    30    32    1
     4    32    33   ar
     5    33    34   ar
     6    34    35   ar
     7    35    38    1
     8    38    39    1
     9    39    40    2
    10    40    41    1
    11    41    42    2
    12    42    43    1
    13    43    44    2
    14    35    36   ar
    15    36    37   ar
    16    29     1    1
    17     1     2    1
    18     2     3    1
    19     2     4    1
    20     4     5    1
    21     4    13    1
    22    13    14   ar
    23    14    15   ar
    24    15    16   ar
    25    16    17    1
    26    16    18   ar
    27    18    19   ar
    28    19    20    1
    29     4     6    1
    30     6     7    1
    31     7     8   am
    32     8     9    2
    33     8    10   am
    34    10    21    1
    35    21    22   ar
    36    22    23   ar
    37    23    24   ar
    38    24    25    1
    39    24    26   ar
    40    26    27   ar
    41    37    32   ar
    42     7     1    1
    43    27    21   ar
    44    43    38    1
    45    19    13   ar
    46    30    31    1
    47     5    11    1
    48    10    12    1
@<TRIPOS>MOLECULE
*****
 44 48 0 0 0
SMALL
GASTEIGER

@<TRIPOS>ATOM
      1 C         -29.2801   48.6626   -7.3327 C.3     1  UNL1        0.1712
      2 C         -30.2644   47.6386   -6.7546 C.3     1  UNL1        0.1369
      3 CL        -31.5839   48.4288   -5.8300 Cl      1  UNL1       -0.1098
      4 C         -29.3986   46.6399   -5.9492 C.3     1  UNL1        0.1431
      5 O         -29.9441   45.3473   -6.0751 O.3     1  UNL1       -0.3796
      6 C         -28.0388   46.6863   -6.6810 C.3     1  UNL1        0.1277
      7 N         -27.9872   47.9844   -7.3350 N.am    1  UNL1       -0.2532
      8 C         -26.7850   48.4950   -7.9405 C.2     1  UNL1        0.3081
      9 O         -25.8904   47.6827   -8.2972 O.2     1  UNL1       -0.2522
     10 N         -26.6207   49.9094   -8.1627 N.am    1  UNL1       -0.2681
     11 H         -29.3096   44.7143   -5.6454 H       1  UNL1        0.2108
     12 H         -27.3813   50.5420   -7.8293 H       1  UNL1        0.1564
     13 C         -29.2816   47.0501   -4.4651 C.ar    1  UNL1        0.0322
     14 C         -28.2470   47.9108   -4.0298 C.ar    1  UNL1        0.0026
     15 C         -28.1638   48.3176   -2.6963 C.ar    1  UNL1        0.0295
     16 C         -29.1203   47.8973   -1.7740 C.ar    1  UNL1        0.1424
     17 F         -29.0389   48.2976   -0.4812 F       1  UNL1       -0.2041
     18 C         -30.1718   47.0800   -2.1869 C.ar    1  UNL1        0.0590
     19 C         -30.2659   46.6664   -3.5198 C.ar    1  UNL1        0.1406
     20 F         -31.3393   45.9188   -3.8806 F       1  UNL1       -0.2044
     21 C         -25.5953   50.5023   -8.9835 C.ar    1  UNL1        0.0516
     22 C         -24.4279   50.9867   -8.3702 C.ar    1  UNL1        0.0156
     23 C         -23.4277   51.6016   -9.1276 C.ar    1  UNL1        0.0127
     24 C         -23.5686   51.7149  -10.5128 C.ar    1  UNL1        0.0578
     25 CL        -22.3203   52.5023  -11.4604 Cl      1  UNL1       -0.0822
     26 C         -24.7005   51.1893  -11.1422 C.ar    1  UNL1        0.0127
     27 C         -25.7046   50.5754  -10.3861 C.ar    1  UNL1        0.0156
     28 O         -29.2430   50.1682   -9.1925 O.2     1  UNL1       -0.2729
     29 C         -29.6839   49.0851   -8.7232 C.2     1  UNL1        0.2466
     30 N         -30.6275   48.3039   -9.4713 N.am    1  UNL1       -0.2680
     31 H         -31.3861   47.8265   -8.9337 H       1  UNL1        0.1563
     32 C         -30.4542   47.9148  -10.8449 C.ar    1  UNL1        0.1346
     33 C         -29.7072   46.7826  -11.2155 C.ar    1  UNL1        0.0406
     34 C         -29.6546   46.3999  -12.5559 C.ar    1  UNL1        0.0736
     35 C         -30.3349   47.1433  -13.5285 C.ar    1  UNL1        0.2466
     36 C         -31.0549   48.2759  -13.1239 C.ar    1  UNL1        0.1691
     37 N         -31.1013   48.6239  -11.8108 N.ar    1  UNL1       -0.2228
     38 N         -30.3297   46.7248  -14.9079 N.am    1  UNL1       -0.0841
     39 C         -30.6605   45.4298  -15.2044 C.2     1  UNL1        0.2905
     40 C         -30.6801   44.9840  -16.5270 C.2     1  UNL1        0.0758
     41 C         -30.3575   45.8694  -17.5522 C.2     1  UNL1        0.0161
     42 C         -30.0168   47.1856  -17.2468 C.2     1  UNL1        0.1156
     43 C         -30.0029   47.6040  -15.9116 C.2     1  UNL1        0.4230
     44 O         -29.6725   48.7923  -15.6459 O.2     1  UNL1       -0.2135
@<TRIPOS>BOND
     1    28    29    2
     2    29    30   am
     3    30    32    1
     4    32    33   ar
     5    33    34   ar
     6    34    35   ar
     7    35    38    1
     8    38    39    1
     9    39    40    2
    10    40    41    1
    11    41    42    2
    12    42    43    1
    13    43    44    2
    14    35    36   ar
    15    36    37   ar
    16    29     1    1
    17     1     2    1
    18     2     3    1
    19     2     4    1
    20     4     5    1
    21     4    13    1
    22    13    14   ar
    23    14    15   ar
    24    15    16   ar
    25    16    17    1
    26    16    18   ar
    27    18    19   ar
    28    19    20    1
    29     4     6    1
    30     6     7    1
    31     7     8   am
    32     8     9    2
    33     8    10   am
    34    10    21    1
    35    21    22   ar
    36    22    23   ar
    37    23    24   ar
    38    24    25    1
    39    24    26   ar
    40    26    27   ar
    41    37    32   ar
    42     7     1    1
    43    27    21   ar
    44    43    38    1
    45    19    13   ar
    46    30    31    1
    47     5    11    1
    48    10    12    1
@<TRIPOS>MOLECULE
*****
 44 48 0 0 0
SMALL
GASTEIGER

@<TRIPOS>ATOM
      1 C         -29.2888   49.2746   -7.3704 C.3     1  UNL1        0.1712
      2 C         -30.4029   48.3556   -6.8547 C.3     1  UNL1        0.1369
      3 CL        -31.5626   49.2358   -5.8056 Cl      1  UNL1       -0.1098
      4 C         -29.6796   47.1622   -6.1852 C.3     1  UNL1        0.1431
      5 O         -30.4189   45.9851   -6.4133 O.3     1  UNL1       -0.3796
      6 C         -28.3475   47.0792   -6.9633 C.3     1  UNL1        0.1277
      7 N         -28.1150   48.4147   -7.4904 N.am    1  UNL1       -0.2532
      8 C         -26.8647   48.7990   -8.0916 C.2     1  UNL1        0.3081
      9 O         -26.1138   47.9027   -8.5609 O.2     1  UNL1       -0.2522
     10 N         -26.4921   50.1881   -8.1825 N.am    1  UNL1       -0.2681
     11 H         -29.8778   45.2241   -6.0728 H       1  UNL1        0.2108
     12 H         -27.1386   50.8901   -7.7592 H       1  UNL1        0.1564
     13 C         -29.4639   47.3974   -4.6743 C.ar    1  UNL1        0.0322
     14 C         -28.3434   48.1222   -4.2057 C.ar    1  UNL1        0.0026
     15 C         -28.1683   48.3731   -2.8429 C.ar    1  UNL1        0.0295
     16 C         -29.1150   47.9301   -1.9211 C.ar    1  UNL1        0.1424
     17 F         -28.9439   48.1791   -0.5994 F       1  UNL1       -0.2041
     18 C         -30.2477   47.2471   -2.3620 C.ar    1  UNL1        0.0590
     19 C         -30.4342   46.9903   -3.7243 C.ar    1  UNL1        0.1406
     20 F         -31.5807   46.3723   -4.1050 F       1  UNL1       -0.2044
     21 C         -25.4093   50.7017   -8.9829 C.ar    1  UNL1        0.0516
     22 C         -25.5688   50.7757  -10.3766 C.ar    1  UNL1        0.0156
     23 C         -24.5286   51.2329  -11.1897 C.ar    1  UNL1        0.0127
     24 C         -23.3242   51.6493  -10.6172 C.ar    1  UNL1        0.0578
     25 CL        -22.0129   52.2069  -11.6399 Cl      1  UNL1       -0.0822
     26 C         -23.1715   51.6314   -9.2280 C.ar    1  UNL1        0.0127
     27 C         -24.2104   51.1719   -8.4118 C.ar    1  UNL1        0.0156
     28 O         -29.0370   50.9117   -9.0975 O.2     1  UNL1       -0.2729
     29 C         -29.6584   49.8917   -8.6961 C.2     1  UNL1        0.2466
     30 N         -30.7627   49.3735   -9.4526 N.am    1  UNL1       -0.2680
     31 H         -31.5770   48.9990   -8.9150 H       1  UNL1        0.1563
     32 C         -30.7210   49.0873  -10.8614 C.ar    1  UNL1        0.1346
     33 C         -31.1771   50.0025  -11.8266 C.ar    1  UNL1        0.0406
     34 C         -31.0224   49.7095  -13.1817 C.ar    1  UNL1        0.0736
     35 C         -30.4239   48.5074  -13.5791 C.ar    1  UNL1        0.2466
     36 C         -29.9973   47.6118  -12.5888 C.ar    1  UNL1        0.1691
     37 N         -30.1482   47.9229  -11.2743 N.ar    1  UNL1       -0.2228
     38 N         -30.2119   48.2204  -14.9758 N.am    1  UNL1       -0.0841
     39 C         -30.7800   47.0953  -15.5105 C.2     1  UNL1        0.2905
     40 C         -30.6110   46.7842  -16.8606 C.2     1  UNL1        0.0758
     41 C         -29.8544   47.6297  -17.6680 C.2     1  UNL1        0.0161
     42 C         -29.2737   48.7716  -17.1198 C.2     1  UNL1        0.1156
     43 C         -29.4577   49.0569  -15.7624 C.2     1  UNL1        0.4230
     44 O         -28.9097   50.0825  -15.2727 O.2     1  UNL1       -0.2135
@<TRIPOS>BOND
     1    28    29    2
     2    29    30   am
     3    30    32    1
     4    32    33   ar
     5    33    34   ar
     6    34    35   ar
     7    35    38    1
     8    38    39    1
     9    39    40    2
    10    40    41    1
    11    41    42    2
    12    42    43    1
    13    43    44    2
    14    35    36   ar
    15    36    37   ar
    16    29     1    1
    17     1     2    1
    18     2     3    1
    19     2     4    1
    20     4     5    1
    21     4    13    1
    22    13    14   ar
    23    14    15   ar
    24    15    16   ar
    25    16    17    1
    26    16    18   ar
    27    18    19   ar
    28    19    20    1
    29     4     6    1
    30     6     7    1
    31     7     8   am
    32     8     9    2
    33     8    10   am
    34    10    21    1
    35    21    22   ar
    36    22    23   ar
    37    23    24   ar
    38    24    25    1
    39    24    26   ar
    40    26    27   ar
    41    37    32   ar
    42     7     1    1
    43    27    21   ar
    44    43    38    1
    45    19    13   ar
    46    30    31    1
    47     5    11    1
    48    10    12    1
@<TRIPOS>MOLECULE
*****
 44 48 0 0 0
SMALL
GASTEIGER

@<TRIPOS>ATOM
      1 C         -29.2506   49.2071   -7.4841 C.3     1  UNL1        0.1712
      2 C         -30.3424   48.2721   -6.9498 C.3     1  UNL1        0.1369
      3 CL        -31.5454   49.1522   -5.9507 Cl      1  UNL1       -0.1098
      4 C         -29.5912   47.1285   -6.2259 C.3     1  UNL1        0.1431
      5 O         -30.2889   45.9202   -6.4200 O.3     1  UNL1       -0.3796
      6 C         -28.2456   47.0602   -6.9818 C.3     1  UNL1        0.1277
      7 N         -28.0482   48.3822   -7.5554 N.am    1  UNL1       -0.2532
      8 C         -26.8019   48.7845   -8.1532 C.2     1  UNL1        0.3081
      9 O         -26.0156   47.8964   -8.5781 O.2     1  UNL1       -0.2522
     10 N         -26.4727   50.1807   -8.2910 N.am    1  UNL1       -0.2681
     11 H         -29.7288   45.1905   -6.0436 H       1  UNL1        0.2108
     12 H         -27.1478   50.8764   -7.9033 H       1  UNL1        0.1564
     13 C         -29.4061   47.4265   -4.7221 C.ar    1  UNL1        0.0322
     14 C         -28.2672   48.1235   -4.2556 C.ar    1  UNL1        0.0026
     15 C         -28.1179   48.4318   -2.9015 C.ar    1  UNL1        0.0295
     16 C         -29.1080   48.0752   -1.9879 C.ar    1  UNL1        0.1424
     17 F         -28.9617   48.3798   -0.6749 F       1  UNL1       -0.2041
     18 C         -30.2580   47.4217   -2.4291 C.ar    1  UNL1        0.0590
     19 C         -30.4189   47.1081   -3.7827 C.ar    1  UNL1        0.1406
     20 F         -31.5813   46.5230   -4.1672 F       1  UNL1       -0.2044
     21 C         -25.3950   50.6993   -9.0949 C.ar    1  UNL1        0.0516
     22 C         -24.2199   51.1337   -8.4594 C.ar    1  UNL1        0.0156
     23 C         -23.1677   51.6769   -9.2011 C.ar    1  UNL1        0.0127
     24 C         -23.2652   51.7669  -10.5918 C.ar    1  UNL1        0.0578
     25 CL        -21.9509   52.4648  -11.5202 Cl      1  UNL1       -0.0822
     26 C         -24.4067   51.2892  -11.2415 C.ar    1  UNL1        0.0127
     27 C         -25.4626   50.7471  -10.5013 C.ar    1  UNL1        0.0156
     28 O         -28.9717   50.7376   -9.3025 O.2     1  UNL1       -0.2729
     29 C         -29.6197   49.7623   -8.8370 C.2     1  UNL1        0.2466
     30 N         -30.7514   49.2401   -9.5491 N.am    1  UNL1       -0.2680
     31 H         -31.5693   48.9230   -8.9810 H       1  UNL1        0.1563
     32 C         -30.7400   48.8757  -10.9403 C.ar    1  UNL1        0.1346
     33 C         -31.1107   49.7761  -11.9548 C.ar    1  UNL1        0.0406
     34 C         -30.9873   49.3972  -13.2916 C.ar    1  UNL1        0.0736
     35 C         -30.5048   48.1246  -13.6220 C.ar    1  UNL1        0.2466
     36 C         -30.1615   47.2478  -12.5835 C.ar    1  UNL1        0.1691
     37 N         -30.2796   47.6422  -11.2882 N.ar    1  UNL1       -0.2228
     38 N         -30.3238   47.7441  -15.0005 N.am    1  UNL1       -0.0841
     39 C         -29.7533   48.6422  -15.8621 C.2     1  UNL1        0.2905
     40 C         -29.5481   48.3124  -17.2028 C.2     1  UNL1        0.0758
     41 C         -29.9308   47.0556  -17.6644 C.2     1  UNL1        0.0161
     42 C         -30.5154   46.1453  -16.7860 C.2     1  UNL1        0.1156
     43 C         -30.7114   46.5044  -15.4479 C.2     1  UNL1        0.4230
     44 O         -31.2607   45.6796  -14.6670 O.2     1  UNL1       -0.2135
@<TRIPOS>BOND
     1    28    29    2
     2    29    30   am
     3    30    32    1
     4    32    33   ar
     5    33    34   ar
     6    34    35   ar
     7    35    38    1
     8    38    39    1
     9    39    40    2
    10    40    41    1
    11    41    42    2
    12    42    43    1
    13    43    44    2
    14    35    36   ar
    15    36    37   ar
    16    29     1    1
    17     1     2    1
    18     2     3    1
    19     2     4    1
    20     4     5    1
    21     4    13    1
    22    13    14   ar
    23    14    15   ar
    24    15    16   ar
    25    16    17    1
    26    16    18   ar
    27    18    19   ar
    28    19    20    1
    29     4     6    1
    30     6     7    1
    31     7     8   am
    32     8     9    2
    33     8    10   am
    34    10    21    1
    35    21    22   ar
    36    22    23   ar
    37    23    24   ar
    38    24    25    1
    39    24    26   ar
    40    26    27   ar
    41    37    32   ar
    42     7     1    1
    43    27    21   ar
    44    43    38    1
    45    19    13   ar
    46    30    31    1
    47     5    11    1
    48    10    12    1
@<TRIPOS>MOLECULE
*****
 44 48 0 0 0
SMALL
GASTEIGER

@<TRIPOS>ATOM
      1 C         -28.1923   48.7102   -9.4527 C.3     1  UNL1        0.1712
      2 C         -29.6772   48.3275   -9.4715 C.3     1  UNL1        0.1369
      3 CL        -29.9097   46.5496   -9.3990 Cl      1  UNL1       -0.1098
      4 C         -30.2685   49.0215  -10.7224 C.3     1  UNL1        0.1431
      5 O         -31.5839   49.4401  -10.4418 O.3     1  UNL1       -0.3796
      6 C         -29.3687   50.2660  -10.8903 C.3     1  UNL1        0.1277
      7 N         -28.1058   49.9283  -10.2527 N.am    1  UNL1       -0.2532
      8 C         -26.9309   50.7493  -10.3872 C.2     1  UNL1        0.3081
      9 O         -27.0688   51.9657  -10.6854 O.2     1  UNL1       -0.2522
     10 N         -25.6206   50.1963  -10.1548 N.am    1  UNL1       -0.2681
     11 H         -31.8958   49.9780  -11.2171 H       1  UNL1        0.2108
     12 H         -25.5588   49.1783   -9.9318 H       1  UNL1        0.1564
     13 C         -30.2324   48.0990  -11.9602 C.ar    1  UNL1        0.0322
     14 C         -29.7410   46.7760  -11.8649 C.ar    1  UNL1        0.0026
     15 C         -29.7468   45.9255  -12.9728 C.ar    1  UNL1        0.0295
     16 C         -30.2628   46.3642  -14.1908 C.ar    1  UNL1        0.1424
     17 F         -30.2707   45.5345  -15.2631 F       1  UNL1       -0.2041
     18 C         -30.7884   47.6510  -14.2999 C.ar    1  UNL1        0.0590
     19 C         -30.7885   48.5116  -13.1972 C.ar    1  UNL1        0.1406
     20 F         -31.3631   49.7323  -13.3419 F       1  UNL1       -0.2044
     21 C         -24.4133   50.9689  -10.0047 C.ar    1  UNL1        0.0516
     22 C         -23.8445   51.5702  -11.1397 C.ar    1  UNL1        0.0156
     23 C         -22.6546   52.2958  -11.0409 C.ar    1  UNL1        0.0127
     24 C         -22.0323   52.4540   -9.8003 C.ar    1  UNL1        0.0578
     25 CL        -20.5295   53.3504   -9.6802 Cl      1  UNL1       -0.0822
     26 C         -22.6160   51.9063   -8.6544 C.ar    1  UNL1        0.0127
     27 C         -23.8060   51.1773   -8.7507 C.ar    1  UNL1        0.0156
     28 O         -27.5579   50.1187   -7.6251 O.2     1  UNL1       -0.2729
     29 C         -27.7042   48.9394   -8.0440 C.2     1  UNL1        0.2466
     30 N         -27.3296   47.8269   -7.2181 N.am    1  UNL1       -0.2680
     31 H         -26.8914   47.0051   -7.6925 H       1  UNL1        0.1563
     32 C         -27.7491   47.6484   -5.8541 C.ar    1  UNL1        0.1346
     33 C         -27.0666   48.2390   -4.7758 C.ar    1  UNL1        0.0406
     34 C         -27.5761   48.1099   -3.4837 C.ar    1  UNL1        0.0736
     35 C         -28.7560   47.3895   -3.2599 C.ar    1  UNL1        0.2466
     36 C         -29.3994   46.7999   -4.3569 C.ar    1  UNL1        0.1691
     37 N         -28.8908   46.9479   -5.6087 N.ar    1  UNL1       -0.2228
     38 N         -29.3182   47.2959   -1.9359 N.am    1  UNL1       -0.0841
     39 C         -29.6563   48.4498   -1.2810 C.2     1  UNL1        0.2905
     40 C         -30.2143   48.4064   -0.0023 C.2     1  UNL1        0.0758
     41 C         -30.4261   47.1738    0.6102 C.2     1  UNL1        0.0161
     42 C         -30.0768   46.0015   -0.0571 C.2     1  UNL1        0.1156
     43 C         -29.5165   46.0755   -1.3372 C.2     1  UNL1        0.4230
     44 O         -29.1849   45.0083   -1.9229 O.2     1  UNL1       -0.2135
@<TRIPOS>BOND
     1    28    29    2
     2    29    30   am
     3    30    32    1
     4    32    33   ar
     5    33    34   ar
     6    34    35   ar
     7    35    38    1
     8    38    39    1
     9    39    40    2
    10    40    41    1
    11    41    42    2
    12    42    43    1
    13    43    44    2
    14    35    36   ar
    15    36    37   ar
    16    29     1    1
    17     1     2    1
    18     2     3    1
    19     2     4    1
    20     4     5    1
    21     4    13    1
    22    13    14   ar
    23    14    15   ar
    24    15    16   ar
    25    16    17    1
    26    16    18   ar
    27    18    19   ar
    28    19    20    1
    29     4     6    1
    30     6     7    1
    31     7     8   am
    32     8     9    2
    33     8    10   am
    34    10    21    1
    35    21    22   ar
    36    22    23   ar
    37    23    24   ar
    38    24    25    1
    39    24    26   ar
    40    26    27   ar
    41    37    32   ar
    42     7     1    1
    43    27    21   ar
    44    43    38    1
    45    19    13   ar
    46    30    31    1
    47     5    11    1
    48    10    12    1
