@<TRIPOS>MOLECULE
*****
 45 50 0 0 0
SMALL
GASTEIGER

@<TRIPOS>ATOM
      1 C          58.7533   84.3353   10.0213 C.ar    1  UNL1        0.1318
      2 C          59.1597   84.0160    8.7161 C.ar    1  UNL1        0.0356
      3 C          59.1884   85.0129    7.7398 C.ar    1  UNL1        0.0191
      4 C          58.8349   86.3314    8.0677 C.ar    1  UNL1        0.0702
      5 C          58.4334   86.6080    9.3808 C.ar    1  UNL1        0.1149
      6 N          58.4124   85.6209   10.3149 N.ar    1  UNL1       -0.2279
      7 C          59.5173   80.8668   12.1024 C.3     1  UNL1        0.0471
      8 C          59.7314   82.1138   12.9809 C.3     1  UNL1        0.0252
      9 C          59.7629   83.3771   12.1073 C.3     1  UNL1        0.0923
     10 N          58.7310   83.3383   11.0603 N.pl3   1  UNL1       -0.2932
     11 C          57.6311   82.3700   11.1723 C.3     1  UNL1        0.0923
     12 C          58.1770   80.9399   11.3189 C.3     1  UNL1        0.0252
     13 C          59.6029   79.5881   12.9478 C.3     1  UNL1        0.2054
     14 O          60.9520   79.1271   12.9859 O.3     1  UNL1       -0.4758
     15 C          62.0215   80.0332   10.5176 C.3     1  UNL1        0.0344
     16 C          62.6330   80.4536   11.8342 C.ar    1  UNL1        0.0183
     17 C          62.0851   79.9561   13.0408 C.ar    1  UNL1        0.1347
     18 C          62.6815   80.2973   14.2681 C.ar    1  UNL1        0.0366
     19 C          63.7985   81.1259   14.3043 C.ar    1  UNL1        0.0033
     20 C          64.3257   81.6443   13.1250 C.ar    1  UNL1        0.0063
     21 C          63.7465   81.3388   11.8811 C.ar    1  UNL1        0.0744
     22 C          64.3234   81.9701   10.6669 C.2     1  UNL1        0.3378
     23 O          64.6232   81.2595    9.6692 O.2     1  UNL1       -0.2451
     24 O          64.5827   83.3371   10.6260 O.3     1  UNL1       -0.4771
     25 H          64.9884   83.7658    9.8027 H       1  UNL1        0.2954
     26 N          58.8292   87.3807    7.0844 N.am    1  UNL1       -0.2766
     27 C          59.8042   88.4329    7.0344 C.2     1  UNL1        0.2839
     28 O          60.4102   88.7806    8.0834 O.2     1  UNL1       -0.2665
     29 H          58.0111   87.4441    6.4382 H       1  UNL1        0.1553
     30 C          60.0563   89.1803    5.7897 C.ar    1  UNL1        0.1946
     31 O          61.2741   89.3716    5.3136 O.2     1  UNL1       -0.4492
     32 C          61.1705   90.0730    4.2114 C.ar    1  UNL1        0.1452
     33 C          62.2014   90.5076    3.3857 C.ar    1  UNL1        0.0375
     34 C          61.8622   91.2553    2.2444 C.ar    1  UNL1        0.0031
     35 C          60.5053   91.5563    1.9471 C.ar    1  UNL1        0.0002
     36 C          59.4863   91.0939    2.8142 C.ar    1  UNL1        0.0028
     37 C          59.8598   90.3543    3.9368 C.ar    1  UNL1        0.0337
     38 C          59.1120   89.7695    4.9394 C.ar    1  UNL1        0.0202
     39 C          57.6184   89.7762    5.0651 C.3     1  UNL1        0.0345
     40 C          60.1589   92.3480    0.7395 C.ar    1  UNL1        0.0000
     41 C          61.1695   92.9331   -0.0470 C.ar    1  UNL1        0.0000
     42 C          60.8404   93.6772   -1.1842 C.ar    1  UNL1        0.0000
     43 C          59.5028   93.8464   -1.5485 C.ar    1  UNL1        0.0000
     44 C          58.4911   93.2712   -0.7764 C.ar    1  UNL1        0.0000
     45 C          58.8143   92.5254    0.3613 C.ar    1  UNL1        0.0000
@<TRIPOS>BOND
     1    15    16    1
     2    16    17   ar
     3    17    14    1
     4    14    13    1
     5    13     7    1
     6     7     8    1
     7     8     9    1
     8     9    10    1
     9    10     1    1
    10     1     2   ar
    11     2     3   ar
    12     3     4   ar
    13     4    26    1
    14    26    27   am
    15    27    28    2
    16    27    30    1
    17    30    31   ar
    18    31    32   ar
    19    32    33   ar
    20    33    34   ar
    21    34    35   ar
    22    35    40    1
    23    40    41   ar
    24    41    42   ar
    25    42    43   ar
    26    43    44   ar
    27    44    45   ar
    28    35    36   ar
    29    36    37   ar
    30    37    38   ar
    31    38    39    1
    32     4     5   ar
    33     5     6   ar
    34    10    11    1
    35    11    12    1
    36    17    18   ar
    37    18    19   ar
    38    19    20   ar
    39    20    21   ar
    40    21    22    1
    41    22    23    2
    42    22    24    1
    43    21    16   ar
    44    12     7    1
    45     6     1   ar
    46    38    30   ar
    47    37    32   ar
    48    45    40   ar
    49    26    29    1
    50    24    25    1
@<TRIPOS>MOLECULE
*****
 45 50 0 0 0
SMALL
GASTEIGER

@<TRIPOS>ATOM
      1 C          59.8872   86.0742    9.9860 C.ar    1  UNL1        0.1318
      2 C          59.0641   85.5362    8.9841 C.ar    1  UNL1        0.0356
      3 C          59.0496   86.1203    7.7166 C.ar    1  UNL1        0.0191
      4 C          59.8707   87.2249    7.4397 C.ar    1  UNL1        0.0702
      5 C          60.6758   87.7325    8.4675 C.ar    1  UNL1        0.1149
      6 N          60.6730   87.1479    9.6944 N.ar    1  UNL1       -0.2279
      7 C          61.1113   83.7600   13.1626 C.3     1  UNL1        0.0471
      8 C          60.9180   85.2314   13.5747 C.3     1  UNL1        0.0252
      9 C          60.7869   86.1174   12.3264 C.3     1  UNL1        0.0923
     10 N          59.9447   85.4862   11.2994 N.pl3   1  UNL1       -0.2932
     11 C          59.0842   84.3548   11.6729 C.3     1  UNL1        0.0923
     12 C          59.9100   83.2350   12.3276 C.3     1  UNL1        0.0252
     13 C          61.3627   82.8810   14.3961 C.3     1  UNL1        0.2054
     14 O          62.0692   81.7036   14.0107 O.3     1  UNL1       -0.4758
     15 C          60.7957   79.6134   12.5731 C.3     1  UNL1        0.0344
     16 C          61.9132   80.4195   11.9519 C.ar    1  UNL1        0.0183
     17 C          62.5394   81.4345   12.7143 C.ar    1  UNL1        0.1347
     18 C          63.6169   82.1524   12.1646 C.ar    1  UNL1        0.0366
     19 C          64.0643   81.8779   10.8762 C.ar    1  UNL1        0.0033
     20 C          63.4351   80.9025   10.1081 C.ar    1  UNL1        0.0063
     21 C          62.3446   80.1763   10.6177 C.ar    1  UNL1        0.0744
     22 C          61.6831   79.1898    9.7260 C.2     1  UNL1        0.3378
     23 O          60.8821   79.5834    8.8353 O.2     1  UNL1       -0.2451
     24 O          61.8991   77.8240    9.8856 O.3     1  UNL1       -0.4771
     25 H          61.4379   77.1503    9.2861 H       1  UNL1        0.2954
     26 N          59.8662   87.8684    6.1537 N.am    1  UNL1       -0.2766
     27 C          59.3580   89.1911    5.9249 C.2     1  UNL1        0.2839
     28 O          58.4744   89.6670    6.6873 O.2     1  UNL1       -0.2665
     29 H          60.1470   87.3040    5.3209 H       1  UNL1        0.1553
     30 C          59.7890   89.9825    4.7590 C.ar    1  UNL1        0.1946
     31 O          58.9447   90.7024    4.0413 O.2     1  UNL1       -0.4492
     32 C          59.6224   91.2761    3.0774 C.ar    1  UNL1        0.1452
     33 C          59.1329   92.1174    2.0843 C.ar    1  UNL1        0.0375
     34 C          60.0436   92.6244    1.1409 C.ar    1  UNL1        0.0031
     35 C          61.4223   92.2848    1.2032 C.ar    1  UNL1        0.0002
     36 C          61.8790   91.4254    2.2312 C.ar    1  UNL1        0.0028
     37 C          60.9473   90.9418    3.1502 C.ar    1  UNL1        0.0337
     38 C          61.0860   90.1144    4.2468 C.ar    1  UNL1        0.0202
     39 C          62.3575   89.5065    4.7573 C.3     1  UNL1        0.0345
     40 C          62.3749   92.8252    0.2004 C.ar    1  UNL1        0.0000
     41 C          63.7494   92.9125    0.4929 C.ar    1  UNL1        0.0000
     42 C          64.6441   93.4208   -0.4537 C.ar    1  UNL1        0.0000
     43 C          64.1792   93.8476   -1.6995 C.ar    1  UNL1        0.0000
     44 C          62.8181   93.7665   -2.0018 C.ar    1  UNL1        0.0000
     45 C          61.9189   93.2582   -1.0594 C.ar    1  UNL1        0.0000
@<TRIPOS>BOND
     1    15    16    1
     2    16    17   ar
     3    17    14    1
     4    14    13    1
     5    13     7    1
     6     7     8    1
     7     8     9    1
     8     9    10    1
     9    10     1    1
    10     1     2   ar
    11     2     3   ar
    12     3     4   ar
    13     4    26    1
    14    26    27   am
    15    27    28    2
    16    27    30    1
    17    30    31   ar
    18    31    32   ar
    19    32    33   ar
    20    33    34   ar
    21    34    35   ar
    22    35    40    1
    23    40    41   ar
    24    41    42   ar
    25    42    43   ar
    26    43    44   ar
    27    44    45   ar
    28    35    36   ar
    29    36    37   ar
    30    37    38   ar
    31    38    39    1
    32     4     5   ar
    33     5     6   ar
    34    10    11    1
    35    11    12    1
    36    17    18   ar
    37    18    19   ar
    38    19    20   ar
    39    20    21   ar
    40    21    22    1
    41    22    23    2
    42    22    24    1
    43    21    16   ar
    44    12     7    1
    45     6     1   ar
    46    38    30   ar
    47    37    32   ar
    48    45    40   ar
    49    26    29    1
    50    24    25    1
@<TRIPOS>MOLECULE
*****
 45 50 0 0 0
SMALL
GASTEIGER

@<TRIPOS>ATOM
      1 C          60.1458   84.3219    8.8203 C.ar    1  UNL1        0.1318
      2 C          59.9931   85.5120    8.0918 C.ar    1  UNL1        0.0356
      3 C          60.8330   86.5948    8.3565 C.ar    1  UNL1        0.0191
      4 C          61.8391   86.4854    9.3295 C.ar    1  UNL1        0.0702
      5 C          61.9570   85.2813   10.0355 C.ar    1  UNL1        0.1149
      6 N          61.1273   84.2404    9.7613 N.ar    1  UNL1       -0.2279
      7 C          58.4003   80.6134    9.2023 C.3     1  UNL1        0.0471
      8 C          57.3457   81.7186    9.0052 C.3     1  UNL1        0.0252
      9 C          57.9871   83.1016    9.1950 C.3     1  UNL1        0.0923
     10 N          59.3119   83.1766    8.5610 N.pl3   1  UNL1       -0.2932
     11 C          59.6969   82.1524    7.5798 C.3     1  UNL1        0.0923
     12 C          59.5660   80.7439    8.1826 C.3     1  UNL1        0.0252
     13 C          57.7486   79.2250    9.1333 C.3     1  UNL1        0.2054
     14 O          58.3645   78.3578   10.0834 O.3     1  UNL1       -0.4758
     15 C          61.1435   78.9284   10.1788 C.3     1  UNL1        0.0344
     16 C          60.2719   79.0866   11.4034 C.ar    1  UNL1        0.0183
     17 C          58.8962   78.7644   11.3188 C.ar    1  UNL1        0.1347
     18 C          58.0888   78.8553   12.4670 C.ar    1  UNL1        0.0366
     19 C          58.6304   79.2673   13.6804 C.ar    1  UNL1        0.0033
     20 C          59.9754   79.6151   13.7661 C.ar    1  UNL1        0.0063
     21 C          60.8093   79.5528   12.6360 C.ar    1  UNL1        0.0744
     22 C          62.2205   79.9918   12.7830 C.2     1  UNL1        0.3378
     23 O          62.8087   79.8621   13.8909 O.2     1  UNL1       -0.2451
     24 O          62.8977   80.5893   11.7237 O.3     1  UNL1       -0.4771
     25 H          63.8560   80.9006   11.8276 H       1  UNL1        0.2954
     26 N          62.7083   87.5861    9.6471 N.am    1  UNL1       -0.2766
     27 C          62.4651   88.5126   10.7160 C.2     1  UNL1        0.2839
     28 O          61.2875   88.7185   11.1154 O.2     1  UNL1       -0.2665
     29 H          63.5018   87.7884    8.9987 H       1  UNL1        0.1553
     30 C          63.5618   89.2988   11.3081 C.ar    1  UNL1        0.1946
     31 O          64.1518   90.2888   10.6616 O.2     1  UNL1       -0.4492
     32 C          65.0845   90.7796   11.4405 C.ar    1  UNL1        0.1452
     33 C          65.9543   91.8279   11.1610 C.ar    1  UNL1        0.0375
     34 C          66.8865   92.1930   12.1481 C.ar    1  UNL1        0.0031
     35 C          66.9356   91.5085   13.3928 C.ar    1  UNL1        0.0002
     36 C          66.0313   90.4471   13.6367 C.ar    1  UNL1        0.0028
     37 C          65.1198   90.1127   12.6348 C.ar    1  UNL1        0.0337
     38 C          64.1267   89.1550   12.5817 C.ar    1  UNL1        0.0202
     39 C          63.7537   88.1880   13.6645 C.3     1  UNL1        0.0345
     40 C          67.9255   91.9019   14.4275 C.ar    1  UNL1        0.0000
     41 C          67.8635   93.1724   15.0311 C.ar    1  UNL1        0.0000
     42 C          68.7963   93.5397   16.0059 C.ar    1  UNL1        0.0000
     43 C          69.7995   92.6464   16.3882 C.ar    1  UNL1        0.0000
     44 C          69.8719   91.3834   15.7967 C.ar    1  UNL1        0.0000
     45 C          68.9413   91.0103   14.8221 C.ar    1  UNL1        0.0000
@<TRIPOS>BOND
     1    15    16    1
     2    16    17   ar
     3    17    14    1
     4    14    13    1
     5    13     7    1
     6     7     8    1
     7     8     9    1
     8     9    10    1
     9    10     1    1
    10     1     2   ar
    11     2     3   ar
    12     3     4   ar
    13     4    26    1
    14    26    27   am
    15    27    28    2
    16    27    30    1
    17    30    31   ar
    18    31    32   ar
    19    32    33   ar
    20    33    34   ar
    21    34    35   ar
    22    35    40    1
    23    40    41   ar
    24    41    42   ar
    25    42    43   ar
    26    43    44   ar
    27    44    45   ar
    28    35    36   ar
    29    36    37   ar
    30    37    38   ar
    31    38    39    1
    32     4     5   ar
    33     5     6   ar
    34    10    11    1
    35    11    12    1
    36    17    18   ar
    37    18    19   ar
    38    19    20   ar
    39    20    21   ar
    40    21    22    1
    41    22    23    2
    42    22    24    1
    43    21    16   ar
    44    12     7    1
    45     6     1   ar
    46    38    30   ar
    47    37    32   ar
    48    45    40   ar
    49    26    29    1
    50    24    25    1
@<TRIPOS>MOLECULE
*****
 45 50 0 0 0
SMALL
GASTEIGER

@<TRIPOS>ATOM
      1 C          59.0813   85.4365    9.1345 C.ar    1  UNL1        0.1318
      2 C          60.1697   86.3157    9.0209 C.ar    1  UNL1        0.0356
      3 C          60.2797   87.1347    7.8961 C.ar    1  UNL1        0.0191
      4 C          59.2951   87.0954    6.8961 C.ar    1  UNL1        0.0702
      5 C          58.2261   86.2029    7.0466 C.ar    1  UNL1        0.1149
      6 N          58.1400   85.4142    8.1501 N.ar    1  UNL1       -0.2279
      7 C          59.5310   82.2783   11.7360 C.3     1  UNL1        0.0471
      8 C          59.6804   83.6315   12.4563 C.3     1  UNL1        0.0252
      9 C          59.8368   84.7630   11.4289 C.3     1  UNL1        0.0923
     10 N          58.9227   84.5914   10.2898 N.pl3   1  UNL1       -0.2932
     11 C          57.7935   83.6585   10.4100 C.3     1  UNL1        0.0923
     12 C          58.2848   82.2566   10.8074 C.3     1  UNL1        0.0252
     13 C          59.4936   81.1265   12.7505 C.3     1  UNL1        0.2054
     14 O          60.7190   80.3989   12.6963 O.3     1  UNL1       -0.4758
     15 C          62.0519   81.7358   14.8161 C.3     1  UNL1        0.0344
     16 C          62.6880   81.6094   13.4509 C.ar    1  UNL1        0.0183
     17 C          61.9764   80.9590   12.4145 C.ar    1  UNL1        0.1347
     18 C          62.5366   80.8852   11.1264 C.ar    1  UNL1        0.0366
     19 C          63.7865   81.4386   10.8672 C.ar    1  UNL1        0.0033
     20 C          64.5066   82.0534   11.8873 C.ar    1  UNL1        0.0063
     21 C          63.9863   82.1313   13.1910 C.ar    1  UNL1        0.0744
     22 C          64.8300   82.7500   14.2451 C.2     1  UNL1        0.3378
     23 O          65.3105   83.9028   14.0717 O.2     1  UNL1       -0.2451
     24 O          65.1391   82.0569   15.4121 O.3     1  UNL1       -0.4771
     25 H          65.7253   82.4736   16.1254 H       1  UNL1        0.2954
     26 N          59.3856   87.9063    5.7121 N.am    1  UNL1       -0.2766
     27 C          59.1778   89.3265    5.6995 C.2     1  UNL1        0.2839
     28 O          58.4528   89.8648    6.5787 O.2     1  UNL1       -0.2665
     29 H          59.5012   87.4232    4.7933 H       1  UNL1        0.1553
     30 C          59.7302   90.1685    4.6237 C.ar    1  UNL1        0.1946
     31 O          59.0627   91.1857    4.1080 O.2     1  UNL1       -0.4492
     32 C          59.8077   91.7249    3.1742 C.ar    1  UNL1        0.1452
     33 C          59.4970   92.8153    2.3692 C.ar    1  UNL1        0.0375
     34 C          60.4501   93.2292    1.4222 C.ar    1  UNL1        0.0031
     35 C          61.6926   92.5508    1.2942 C.ar    1  UNL1        0.0002
     36 C          61.9690   91.4455    2.1343 C.ar    1  UNL1        0.0028
     37 C          61.0002   91.0632    3.0628 C.ar    1  UNL1        0.0337
     38 C          60.9829   90.0563    4.0073 C.ar    1  UNL1        0.0202
     39 C          62.0787   89.0740    4.2921 C.3     1  UNL1        0.0345
     40 C          62.6912   92.9961    0.2894 C.ar    1  UNL1        0.0000
     41 C          62.3094   93.2262   -1.0461 C.ar    1  UNL1        0.0000
     42 C          63.2518   93.6465   -1.9898 C.ar    1  UNL1        0.0000
     43 C          64.5825   93.8409   -1.6132 C.ar    1  UNL1        0.0000
     44 C          64.9739   93.6158   -0.2916 C.ar    1  UNL1        0.0000
     45 C          64.0357   93.1963    0.6565 C.ar    1  UNL1        0.0000
@<TRIPOS>BOND
     1    15    16    1
     2    16    17   ar
     3    17    14    1
     4    14    13    1
     5    13     7    1
     6     7     8    1
     7     8     9    1
     8     9    10    1
     9    10     1    1
    10     1     2   ar
    11     2     3   ar
    12     3     4   ar
    13     4    26    1
    14    26    27   am
    15    27    28    2
    16    27    30    1
    17    30    31   ar
    18    31    32   ar
    19    32    33   ar
    20    33    34   ar
    21    34    35   ar
    22    35    40    1
    23    40    41   ar
    24    41    42   ar
    25    42    43   ar
    26    43    44   ar
    27    44    45   ar
    28    35    36   ar
    29    36    37   ar
    30    37    38   ar
    31    38    39    1
    32     4     5   ar
    33     5     6   ar
    34    10    11    1
    35    11    12    1
    36    17    18   ar
    37    18    19   ar
    38    19    20   ar
    39    20    21   ar
    40    21    22    1
    41    22    23    2
    42    22    24    1
    43    21    16   ar
    44    12     7    1
    45     6     1   ar
    46    38    30   ar
    47    37    32   ar
    48    45    40   ar
    49    26    29    1
    50    24    25    1
@<TRIPOS>MOLECULE
*****
 45 50 0 0 0
SMALL
GASTEIGER

@<TRIPOS>ATOM
      1 C          59.4648   85.1462    9.1574 C.ar    1  UNL1        0.1318
      2 C          60.5308   86.0450    8.9955 C.ar    1  UNL1        0.0356
      3 C          60.5429   86.9097    7.9000 C.ar    1  UNL1        0.0191
      4 C          59.4835   86.8959    6.9789 C.ar    1  UNL1        0.0702
      5 C          58.4399   85.9826    7.1756 C.ar    1  UNL1        0.1149
      6 N          58.4496   85.1493    8.2493 N.ar    1  UNL1       -0.2279
      7 C          60.6425   82.8241   12.3458 C.3     1  UNL1        0.0471
      8 C          59.4708   83.7506   12.7217 C.3     1  UNL1        0.0252
      9 C          59.2731   84.8200   11.6365 C.3     1  UNL1        0.0923
     10 N          59.4070   84.2534   10.2860 N.pl3   1  UNL1       -0.2932
     11 C          59.3453   82.7957   10.1100 C.3     1  UNL1        0.0923
     12 C          60.3881   82.0952   10.9969 C.3     1  UNL1        0.0252
     13 C          60.9273   81.8257   13.4769 C.3     1  UNL1        0.2054
     14 O          61.3496   82.5294   14.6433 O.3     1  UNL1       -0.4758
     15 C          60.8226   85.2189   15.3822 C.3     1  UNL1        0.0344
     16 C          62.2303   84.7503   15.0943 C.ar    1  UNL1        0.0183
     17 C          62.4450   83.4073   14.7020 C.ar    1  UNL1        0.1347
     18 C          63.7442   82.9766   14.3783 C.ar    1  UNL1        0.0366
     19 C          64.8186   83.8577   14.4494 C.ar    1  UNL1        0.0033
     20 C          64.6216   85.1719   14.8634 C.ar    1  UNL1        0.0063
     21 C          63.3401   85.6336   15.2109 C.ar    1  UNL1        0.0744
     22 C          63.2082   87.0304   15.6983 C.2     1  UNL1        0.3378
     23 O          63.1047   87.2595   16.9340 O.2     1  UNL1       -0.2451
     24 O          63.1518   88.0970   14.8057 O.3     1  UNL1       -0.4771
     25 H          63.0487   89.0486   15.1372 H       1  UNL1        0.2954
     26 N          59.4716   87.7546    5.8255 N.am    1  UNL1       -0.2766
     27 C          59.4225   89.1873    5.8976 C.2     1  UNL1        0.2839
     28 O          58.9119   89.7503    6.9031 O.2     1  UNL1       -0.2665
     29 H          59.3841   87.3114    4.8838 H       1  UNL1        0.1553
     30 C          59.8844   90.0236    4.7757 C.ar    1  UNL1        0.1946
     31 O          59.1140   90.9352    4.2086 O.2     1  UNL1       -0.4492
     32 C          59.7993   91.4987    3.2441 C.ar    1  UNL1        0.1452
     33 C          59.3763   92.5051    2.3827 C.ar    1  UNL1        0.0375
     34 C          60.2818   92.9656    1.4109 C.ar    1  UNL1        0.0031
     35 C          61.5892   92.4164    1.3145 C.ar    1  UNL1        0.0002
     36 C          61.9796   91.3935    2.2118 C.ar    1  UNL1        0.0028
     37 C          61.0553   90.9618    3.1636 C.ar    1  UNL1        0.0337
     38 C          61.1430   90.0112    4.1611 C.ar    1  UNL1        0.0202
     39 C          62.3361   89.1670    4.4939 C.3     1  UNL1        0.0345
     40 C          62.5368   92.9097    0.2830 C.ar    1  UNL1        0.0000
     41 C          63.8892   93.1358    0.6029 C.ar    1  UNL1        0.0000
     42 C          64.7793   93.5993   -0.3708 C.ar    1  UNL1        0.0000
     43 C          64.3316   93.8428   -1.6710 C.ar    1  UNL1        0.0000
     44 C          62.9925   93.6228   -2.0008 C.ar    1  UNL1        0.0000
     45 C          62.0981   93.1585   -1.0316 C.ar    1  UNL1        0.0000
@<TRIPOS>BOND
     1    15    16    1
     2    16    17   ar
     3    17    14    1
     4    14    13    1
     5    13     7    1
     6     7     8    1
     7     8     9    1
     8     9    10    1
     9    10     1    1
    10     1     2   ar
    11     2     3   ar
    12     3     4   ar
    13     4    26    1
    14    26    27   am
    15    27    28    2
    16    27    30    1
    17    30    31   ar
    18    31    32   ar
    19    32    33   ar
    20    33    34   ar
    21    34    35   ar
    22    35    40    1
    23    40    41   ar
    24    41    42   ar
    25    42    43   ar
    26    43    44   ar
    27    44    45   ar
    28    35    36   ar
    29    36    37   ar
    30    37    38   ar
    31    38    39    1
    32     4     5   ar
    33     5     6   ar
    34    10    11    1
    35    11    12    1
    36    17    18   ar
    37    18    19   ar
    38    19    20   ar
    39    20    21   ar
    40    21    22    1
    41    22    23    2
    42    22    24    1
    43    21    16   ar
    44    12     7    1
    45     6     1   ar
    46    38    30   ar
    47    37    32   ar
    48    45    40   ar
    49    26    29    1
    50    24    25    1
