@<TRIPOS>MOLECULE
*****
 36 39 0 0 0
SMALL
GASTEIGER

@<TRIPOS>ATOM
      1 N          -9.9136   -9.7910   31.5608 N.am    1  UNL1       -0.2685
      2 C         -10.4621  -10.3682   32.7682 C.2     1  UNL1        0.2672
      3 O         -10.1159   -9.9004   33.8882 O.2     1  UNL1       -0.2682
      4 C         -11.4162  -11.5015   32.7248 C.ar    1  UNL1        0.1347
      5 C         -11.2303  -12.6310   33.5398 C.ar    1  UNL1        0.0238
      6 C         -12.1394  -13.6947   33.4674 C.ar    1  UNL1        0.0031
      7 C         -11.9811  -14.8338   34.2723 C.ar    1  UNL1        0.0001
      8 C         -12.8985  -15.8858   34.1864 C.ar    1  UNL1        0.0000
      9 C         -13.9765  -15.8088   33.2996 C.ar    1  UNL1        0.0000
     10 C         -14.1444  -14.6794   32.4928 C.ar    1  UNL1        0.0015
     11 C         -13.2294  -13.6188   32.5719 C.ar    1  UNL1        0.0192
     12 C         -13.3739  -12.4776   31.7752 C.ar    1  UNL1        0.0989
     13 N         -12.4746  -11.4640   31.8701 N.ar    1  UNL1       -0.2393
     14 C         -10.6334  -10.1459   29.1851 C.3     1  UNL1        0.0265
     15 C         -10.8524   -9.3640   30.4934 C.3     1  UNL1        0.1007
     16 C         -10.8599   -7.8470   30.3408 C.ar    1  UNL1        0.0234
     17 C          -9.9859   -7.1664   29.4654 C.ar    1  UNL1        0.0019
     18 C          -9.9998   -5.7709   29.3898 C.ar    1  UNL1        0.0295
     19 C         -10.8782   -5.0333   30.1841 C.ar    1  UNL1        0.1424
     20 F         -10.8877   -3.6796   30.1085 F       1  UNL1       -0.2041
     21 C         -11.7454   -5.6901   31.0582 C.ar    1  UNL1        0.0590
     22 C         -11.7375   -7.0858   31.1413 C.ar    1  UNL1        0.1399
     23 F         -12.5872   -7.6951   32.0070 F       1  UNL1       -0.2044
     24 C          -8.5303   -9.2698   31.6258 C.3     1  UNL1        0.1212
     25 C          -7.5884  -10.0007   30.6974 C.ar    1  UNL1        0.0033
     26 C          -7.7170  -11.3933   30.5634 C.ar    1  UNL1       -0.0021
     27 C          -6.8765  -12.1055   29.7119 C.ar    1  UNL1       -0.0000
     28 C          -5.8966  -11.4410   28.9788 C.ar    1  UNL1        0.0069
     29 C          -5.7430  -10.0511   29.0879 C.ar    1  UNL1        0.0806
     30 C          -6.6093   -9.3166   29.9340 C.ar    1  UNL1        0.0253
     31 S          -6.5414   -7.5132   29.9579 S.3     1  UNL1       -0.1415
     32 H          -5.6427   -7.5023   31.0372 H       1  UNL1        0.1071
     33 C          -4.6866   -9.3984   28.2866 C.2     1  UNL1        0.3385
     34 O          -3.5724   -9.1413   28.8143 O.2     1  UNL1       -0.2451
     35 O          -4.9161   -9.0137   26.9682 O.3     1  UNL1       -0.4771
     36 H          -5.8332   -9.0905   26.5465 H       1  UNL1        0.2954
@<TRIPOS>BOND
     1    14    15    1
     2    15    16    1
     3    16    17   ar
     4    17    18   ar
     5    18    19   ar
     6    19    20    1
     7    19    21   ar
     8    21    22   ar
     9    22    23    1
    10    15     1    1
    11     1    24    1
    12    24    25    1
    13    25    26   ar
    14    26    27   ar
    15    27    28   ar
    16    28    29   ar
    17    29    33    1
    18    33    34    2
    19    33    35    1
    20    29    30   ar
    21    30    31    1
    22     1     2   am
    23     2     3    2
    24     2     4    1
    25     4     5   ar
    26     5     6   ar
    27     6     7   ar
    28     7     8   ar
    29     8     9   ar
    30     9    10   ar
    31    10    11   ar
    32    11    12   ar
    33    12    13   ar
    34    22    16   ar
    35    30    25   ar
    36    13     4   ar
    37    11     6   ar
    38    35    36    1
    39    31    32    1
@<TRIPOS>MOLECULE
*****
 36 39 0 0 0
SMALL
GASTEIGER

@<TRIPOS>ATOM
      1 N          -9.1396  -10.6935   30.6935 N.am    1  UNL1       -0.2685
      2 C         -10.0081  -11.8359   30.5128 C.2     1  UNL1        0.2672
      3 O         -10.3115  -12.2014   29.3434 O.2     1  UNL1       -0.2682
      4 C         -10.5578  -12.5853   31.6672 C.ar    1  UNL1        0.1347
      5 C         -11.6387  -13.4683   31.5037 C.ar    1  UNL1        0.0238
      6 C         -12.1485  -14.1525   32.6151 C.ar    1  UNL1        0.0031
      7 C         -13.2248  -15.0436   32.4810 C.ar    1  UNL1        0.0001
      8 C         -13.7203  -15.7177   33.6016 C.ar    1  UNL1        0.0000
      9 C         -13.1474  -15.5080   34.8594 C.ar    1  UNL1        0.0000
     10 C         -12.0751  -14.6229   35.0052 C.ar    1  UNL1        0.0015
     11 C         -11.5709  -13.9420   33.8870 C.ar    1  UNL1        0.0192
     12 C         -10.4991  -13.0501   34.0055 C.ar    1  UNL1        0.0989
     13 N         -10.0289  -12.4029   32.9077 N.ar    1  UNL1       -0.2393
     14 C          -8.1515  -10.2078   32.9465 C.3     1  UNL1        0.0265
     15 C          -7.9446  -10.8460   31.5606 C.3     1  UNL1        0.1007
     16 C          -6.6776  -10.4071   30.8346 C.ar    1  UNL1        0.0234
     17 C          -5.9531   -9.2518   31.2003 C.ar    1  UNL1        0.0019
     18 C          -4.8204   -8.8650   30.4788 C.ar    1  UNL1        0.0295
     19 C          -4.3945   -9.6173   29.3837 C.ar    1  UNL1        0.1424
     20 F          -3.2958   -9.2379   28.6857 F       1  UNL1       -0.2041
     21 C          -5.1020  -10.7593   29.0059 C.ar    1  UNL1        0.0590
     22 C          -6.2371  -11.1531   29.7212 C.ar    1  UNL1        0.1399
     23 F          -6.9085  -12.2641   29.3242 F       1  UNL1       -0.2044
     24 C          -9.2365   -9.6034   29.6976 C.3     1  UNL1        0.1212
     25 C         -10.2842   -8.5762   30.0587 C.ar    1  UNL1        0.0033
     26 C         -11.5519   -9.0200   30.4705 C.ar    1  UNL1       -0.0021
     27 C         -12.5441   -8.1084   30.8216 C.ar    1  UNL1       -0.0000
     28 C         -12.2878   -6.7406   30.7702 C.ar    1  UNL1        0.0069
     29 C         -11.0322   -6.2643   30.3655 C.ar    1  UNL1        0.0806
     30 C         -10.0104   -7.1857   30.0294 C.ar    1  UNL1        0.0253
     31 S          -8.3410   -6.6000   29.6727 S.3     1  UNL1       -0.1415
     32 H          -8.5952   -6.5335   28.2930 H       1  UNL1        0.1071
     33 C         -10.8160   -4.8028   30.3296 C.2     1  UNL1        0.3385
     34 O         -11.4606   -4.0573   31.1136 O.2     1  UNL1       -0.2451
     35 O          -9.9471   -4.2252   29.4074 O.3     1  UNL1       -0.4771
     36 H          -9.5043   -4.7746   28.6814 H       1  UNL1        0.2954
@<TRIPOS>BOND
     1    14    15    1
     2    15    16    1
     3    16    17   ar
     4    17    18   ar
     5    18    19   ar
     6    19    20    1
     7    19    21   ar
     8    21    22   ar
     9    22    23    1
    10    15     1    1
    11     1    24    1
    12    24    25    1
    13    25    26   ar
    14    26    27   ar
    15    27    28   ar
    16    28    29   ar
    17    29    33    1
    18    33    34    2
    19    33    35    1
    20    29    30   ar
    21    30    31    1
    22     1     2   am
    23     2     3    2
    24     2     4    1
    25     4     5   ar
    26     5     6   ar
    27     6     7   ar
    28     7     8   ar
    29     8     9   ar
    30     9    10   ar
    31    10    11   ar
    32    11    12   ar
    33    12    13   ar
    34    22    16   ar
    35    30    25   ar
    36    13     4   ar
    37    11     6   ar
    38    35    36    1
    39    31    32    1
@<TRIPOS>MOLECULE
*****
 36 39 0 0 0
SMALL
GASTEIGER

@<TRIPOS>ATOM
      1 N          -9.2282  -10.4788   31.2977 N.am    1  UNL1       -0.2685
      2 C          -9.2546  -10.8187   32.7033 C.2     1  UNL1        0.2672
      3 O          -8.5632  -10.1426   33.5146 O.2     1  UNL1       -0.2682
      4 C         -10.0680  -11.9466   33.2157 C.ar    1  UNL1        0.1347
      5 C         -11.1528  -12.4467   32.4755 C.ar    1  UNL1        0.0238
      6 C         -11.9143  -13.5040   32.9909 C.ar    1  UNL1        0.0031
      7 C         -13.0009  -14.0265   32.2720 C.ar    1  UNL1        0.0001
      8 C         -13.7497  -15.0819   32.8022 C.ar    1  UNL1        0.0000
      9 C         -13.4206  -15.6213   34.0493 C.ar    1  UNL1        0.0000
     10 C         -12.3407  -15.1091   34.7745 C.ar    1  UNL1        0.0015
     11 C         -11.5834  -14.0505   34.2509 C.ar    1  UNL1        0.0192
     12 C         -10.4982  -13.5188   34.9564 C.ar    1  UNL1        0.0989
     13 N          -9.7805  -12.4937   34.4281 N.ar    1  UNL1       -0.2393
     14 C         -10.6347  -11.1342   29.3278 C.3     1  UNL1        0.0265
     15 C         -10.5205  -10.2711   30.5978 C.3     1  UNL1        0.1007
     16 C         -10.8035   -8.7869   30.3926 C.ar    1  UNL1        0.0234
     17 C         -10.2104   -8.0361   29.3545 C.ar    1  UNL1        0.0019
     18 C         -10.4669   -6.6678   29.2307 C.ar    1  UNL1        0.0295
     19 C         -11.3120   -6.0269   30.1372 C.ar    1  UNL1        0.1424
     20 F         -11.5573   -4.6991   30.0143 F       1  UNL1       -0.2041
     21 C         -11.9026   -6.7533   31.1720 C.ar    1  UNL1        0.0590
     22 C         -11.6507   -8.1224   31.3042 C.ar    1  UNL1        0.1399
     23 F         -12.2336   -8.7998   32.3259 F       1  UNL1       -0.2044
     24 C          -7.9607   -9.9442   30.7526 C.3     1  UNL1        0.1212
     25 C          -7.4844   -8.7128   31.4874 C.ar    1  UNL1        0.0033
     26 C          -8.3625   -7.6244   31.6223 C.ar    1  UNL1       -0.0021
     27 C          -7.9684   -6.4736   32.2998 C.ar    1  UNL1       -0.0000
     28 C          -6.6943   -6.3903   32.8556 C.ar    1  UNL1        0.0069
     29 C          -5.7940   -7.4597   32.7408 C.ar    1  UNL1        0.0806
     30 C          -6.1956   -8.6426   32.0735 C.ar    1  UNL1        0.0253
     31 S          -5.1176  -10.0901   32.0636 S.3     1  UNL1       -0.1415
     32 H          -4.5328   -9.7199   30.8415 H       1  UNL1        0.1071
     33 C          -4.4551   -7.3163   33.3498 C.2     1  UNL1        0.3385
     34 O          -3.6008   -6.5657   32.8089 O.2     1  UNL1       -0.2451
     35 O          -4.0998   -8.0370   34.4870 O.3     1  UNL1       -0.4771
     36 H          -4.7121   -8.7408   34.8804 H       1  UNL1        0.2954
@<TRIPOS>BOND
     1    14    15    1
     2    15    16    1
     3    16    17   ar
     4    17    18   ar
     5    18    19   ar
     6    19    20    1
     7    19    21   ar
     8    21    22   ar
     9    22    23    1
    10    15     1    1
    11     1    24    1
    12    24    25    1
    13    25    26   ar
    14    26    27   ar
    15    27    28   ar
    16    28    29   ar
    17    29    33    1
    18    33    34    2
    19    33    35    1
    20    29    30   ar
    21    30    31    1
    22     1     2   am
    23     2     3    2
    24     2     4    1
    25     4     5   ar
    26     5     6   ar
    27     6     7   ar
    28     7     8   ar
    29     8     9   ar
    30     9    10   ar
    31    10    11   ar
    32    11    12   ar
    33    12    13   ar
    34    22    16   ar
    35    30    25   ar
    36    13     4   ar
    37    11     6   ar
    38    35    36    1
    39    31    32    1
@<TRIPOS>MOLECULE
*****
 36 39 0 0 0
SMALL
GASTEIGER

@<TRIPOS>ATOM
      1 N          -9.7132   -8.6726   31.0853 N.am    1  UNL1       -0.2685
      2 C         -10.8888   -9.1189   31.7998 C.2     1  UNL1        0.2672
      3 O         -11.8884   -8.3526   31.8826 O.2     1  UNL1       -0.2682
      4 C         -10.9478  -10.4520   32.4447 C.ar    1  UNL1        0.1347
      5 C         -11.9834  -11.3527   32.1430 C.ar    1  UNL1        0.0238
      6 C         -12.0232  -12.6006   32.7788 C.ar    1  UNL1        0.0031
      7 C         -13.0434  -13.5219   32.4943 C.ar    1  UNL1        0.0001
      8 C         -13.0669  -14.7628   33.1387 C.ar    1  UNL1        0.0000
      9 C         -12.0762  -15.0918   34.0686 C.ar    1  UNL1        0.0000
     10 C         -11.0552  -14.1823   34.3602 C.ar    1  UNL1        0.0015
     11 C         -11.0229  -12.9350   33.7187 C.ar    1  UNL1        0.0192
     12 C         -10.0128  -12.0063   33.9929 C.ar    1  UNL1        0.0989
     13 N         -10.0034  -10.8051   33.3587 N.ar    1  UNL1       -0.2393
     14 C         -10.1797  -10.5899   29.5380 C.3     1  UNL1        0.0265
     15 C          -9.1535   -9.5521   30.0288 C.3     1  UNL1        0.1007
     16 C          -7.8070  -10.1305   30.4495 C.ar    1  UNL1        0.0234
     17 C          -7.6356  -10.8706   31.6395 C.ar    1  UNL1        0.0019
     18 C          -6.3733  -11.3456   32.0059 C.ar    1  UNL1        0.0295
     19 C          -5.2649  -11.0892   31.1982 C.ar    1  UNL1        0.1424
     20 F          -4.0418  -11.5508   31.5578 F       1  UNL1       -0.2041
     21 C          -5.4159  -10.3551   30.0210 C.ar    1  UNL1        0.0590
     22 C          -6.6749   -9.8749   29.6474 C.ar    1  UNL1        0.1399
     23 F          -6.7881   -9.1572   28.5008 F       1  UNL1       -0.2044
     24 C          -9.3975   -7.2278   31.1339 C.3     1  UNL1        0.1212
     25 C          -7.9172   -6.9507   31.0106 C.ar    1  UNL1        0.0033
     26 C          -7.4501   -6.2655   29.8766 C.ar    1  UNL1       -0.0021
     27 C          -6.0955   -5.9807   29.7267 C.ar    1  UNL1       -0.0000
     28 C          -5.1855   -6.3720   30.7055 C.ar    1  UNL1        0.0069
     29 C          -5.6190   -7.0559   31.8508 C.ar    1  UNL1        0.0806
     30 C          -6.9983   -7.3285   32.0217 C.ar    1  UNL1        0.0253
     31 S          -7.5967   -8.0523   33.5629 S.3     1  UNL1       -0.1415
     32 H          -7.5050   -9.3583   33.0543 H       1  UNL1        0.1071
     33 C          -4.6096   -7.4471   32.8568 C.2     1  UNL1        0.3385
     34 O          -3.8227   -6.5802   33.3208 O.2     1  UNL1       -0.2451
     35 O          -4.4764   -8.7711   33.2670 O.3     1  UNL1       -0.4771
     36 H          -5.0045   -9.5162   32.8301 H       1  UNL1        0.2954
@<TRIPOS>BOND
     1    14    15    1
     2    15    16    1
     3    16    17   ar
     4    17    18   ar
     5    18    19   ar
     6    19    20    1
     7    19    21   ar
     8    21    22   ar
     9    22    23    1
    10    15     1    1
    11     1    24    1
    12    24    25    1
    13    25    26   ar
    14    26    27   ar
    15    27    28   ar
    16    28    29   ar
    17    29    33    1
    18    33    34    2
    19    33    35    1
    20    29    30   ar
    21    30    31    1
    22     1     2   am
    23     2     3    2
    24     2     4    1
    25     4     5   ar
    26     5     6   ar
    27     6     7   ar
    28     7     8   ar
    29     8     9   ar
    30     9    10   ar
    31    10    11   ar
    32    11    12   ar
    33    12    13   ar
    34    22    16   ar
    35    30    25   ar
    36    13     4   ar
    37    11     6   ar
    38    35    36    1
    39    31    32    1
@<TRIPOS>MOLECULE
*****
 36 39 0 0 0
SMALL
GASTEIGER

@<TRIPOS>ATOM
      1 N          -9.0689  -10.5105   30.5184 N.am    1  UNL1       -0.2685
      2 C          -9.7944  -11.7562   30.4006 C.2     1  UNL1        0.2672
      3 O          -9.9738  -12.2599   29.2573 O.2     1  UNL1       -0.2682
      4 C         -10.3398  -12.4540   31.5888 C.ar    1  UNL1        0.1347
      5 C         -11.3991  -13.3688   31.4634 C.ar    1  UNL1        0.0238
      6 C         -11.9055  -14.0030   32.6057 C.ar    1  UNL1        0.0031
      7 C         -12.9604  -14.9243   32.5102 C.ar    1  UNL1        0.0001
      8 C         -13.4530  -15.5475   33.6611 C.ar    1  UNL1        0.0000
      9 C         -12.8984  -15.2567   34.9110 C.ar    1  UNL1        0.0000
     10 C         -11.8477  -14.3408   35.0185 C.ar    1  UNL1        0.0015
     11 C         -11.3466  -13.7105   33.8696 C.ar    1  UNL1        0.0192
     12 C         -10.2962  -12.7894   33.9495 C.ar    1  UNL1        0.0989
     13 N          -9.8285  -12.1924   32.8225 N.ar    1  UNL1       -0.2393
     14 C          -8.2571   -9.5969   32.7080 C.3     1  UNL1        0.0265
     15 C          -7.9282  -10.4453   31.4659 C.3     1  UNL1        0.1007
     16 C          -6.6382  -10.0612   30.7496 C.ar    1  UNL1        0.0234
     17 C          -5.9931   -8.8227   30.9568 C.ar    1  UNL1        0.0019
     18 C          -4.8348   -8.4966   30.2459 C.ar    1  UNL1        0.0295
     19 C          -4.3043   -9.3936   29.3183 C.ar    1  UNL1        0.1424
     20 F          -3.1811   -9.0729   28.6299 F       1  UNL1       -0.2041
     21 C          -4.9323  -10.6202   29.0978 C.ar    1  UNL1        0.0590
     22 C          -6.0922  -10.9542   29.8036 C.ar    1  UNL1        0.1399
     23 F          -6.6844  -12.1513   29.5611 F       1  UNL1       -0.2044
     24 C          -9.2125   -9.5348   29.4153 C.3     1  UNL1        0.1212
     25 C          -9.7480   -8.2016   29.8831 C.ar    1  UNL1        0.0033
     26 C          -8.9722   -7.0497   29.6711 C.ar    1  UNL1       -0.0021
     27 C          -9.4311   -5.7996   30.0775 C.ar    1  UNL1       -0.0000
     28 C         -10.6712   -5.6773   30.6992 C.ar    1  UNL1        0.0069
     29 C         -11.4715   -6.8071   30.9239 C.ar    1  UNL1        0.0806
     30 C         -11.0220   -8.0789   30.4923 C.ar    1  UNL1        0.0253
     31 S         -12.1072   -9.5157   30.6165 S.3     1  UNL1       -0.1415
     32 H         -11.5903   -9.8716   31.8730 H       1  UNL1        0.1071
     33 C         -12.7783   -6.6186   31.5878 C.2     1  UNL1        0.3385
     34 O         -12.8221   -6.1631   32.7611 O.2     1  UNL1       -0.2451
     35 O         -13.9656   -6.9836   30.9586 O.3     1  UNL1       -0.4771
     36 H         -13.9664   -7.4650   30.0680 H       1  UNL1        0.2954
@<TRIPOS>BOND
     1    14    15    1
     2    15    16    1
     3    16    17   ar
     4    17    18   ar
     5    18    19   ar
     6    19    20    1
     7    19    21   ar
     8    21    22   ar
     9    22    23    1
    10    15     1    1
    11     1    24    1
    12    24    25    1
    13    25    26   ar
    14    26    27   ar
    15    27    28   ar
    16    28    29   ar
    17    29    33    1
    18    33    34    2
    19    33    35    1
    20    29    30   ar
    21    30    31    1
    22     1     2   am
    23     2     3    2
    24     2     4    1
    25     4     5   ar
    26     5     6   ar
    27     6     7   ar
    28     7     8   ar
    29     8     9   ar
    30     9    10   ar
    31    10    11   ar
    32    11    12   ar
    33    12    13   ar
    34    22    16   ar
    35    30    25   ar
    36    13     4   ar
    37    11     6   ar
    38    35    36    1
    39    31    32    1
@<TRIPOS>MOLECULE
*****
 36 39 0 0 0
SMALL
GASTEIGER

@<TRIPOS>ATOM
      1 N          -8.9857  -10.6013   31.3851 N.am    1  UNL1       -0.2685
      2 C          -9.4857  -11.9169   31.0518 C.2     1  UNL1        0.2672
      3 O          -9.2299  -12.4047   29.9161 O.2     1  UNL1       -0.2682
      4 C         -10.2983  -12.7054   32.0079 C.ar    1  UNL1        0.1347
      5 C         -11.4104  -13.4444   31.5696 C.ar    1  UNL1        0.0238
      6 C         -12.1701  -14.1688   32.4976 C.ar    1  UNL1        0.0031
      7 C         -13.2836  -14.9191   32.0880 C.ar    1  UNL1        0.0001
      8 C         -14.0301  -15.6359   33.0285 C.ar    1  UNL1        0.0000
      9 C         -13.6720  -15.6091   34.3796 C.ar    1  UNL1        0.0000
     10 C         -12.5652  -14.8654   34.7994 C.ar    1  UNL1        0.0015
     11 C         -11.8099  -14.1430   33.8634 C.ar    1  UNL1        0.0192
     12 C         -10.6981  -13.3901   34.2571 C.ar    1  UNL1        0.0989
     13 N          -9.9829  -12.6991   33.3317 N.ar    1  UNL1       -0.2393
     14 C          -9.1523  -10.2168   33.8574 C.3     1  UNL1        0.0265
     15 C          -8.2243  -10.4352   32.6483 C.3     1  UNL1        0.1007
     16 C          -7.1183   -9.3973   32.4925 C.ar    1  UNL1        0.0234
     17 C          -7.1957   -8.1111   33.0695 C.ar    1  UNL1        0.0019
     18 C          -6.1761   -7.1774   32.8646 C.ar    1  UNL1        0.0295
     19 C          -5.0690   -7.5069   32.0821 C.ar    1  UNL1        0.1424
     20 F          -4.0826   -6.5978   31.8849 F       1  UNL1       -0.2041
     21 C          -4.9790   -8.7723   31.5005 C.ar    1  UNL1        0.0590
     22 C          -5.9950   -9.7122   31.6992 C.ar    1  UNL1        0.1399
     23 F          -5.8825  -10.9317   31.1136 F       1  UNL1       -0.2044
     24 C          -8.8804   -9.6168   30.2854 C.3     1  UNL1        0.1212
     25 C          -9.9317   -8.5347   30.3700 C.ar    1  UNL1        0.0033
     26 C         -11.2317   -8.8854   30.7707 C.ar    1  UNL1       -0.0021
     27 C         -12.2289   -7.9189   30.8714 C.ar    1  UNL1       -0.0000
     28 C         -11.9456   -6.5876   30.5769 C.ar    1  UNL1        0.0069
     29 C         -10.6575   -6.2036   30.1760 C.ar    1  UNL1        0.0806
     30 C          -9.6320   -7.1770   30.0939 C.ar    1  UNL1        0.0253
     31 S          -7.9324   -6.6783   29.7477 S.3     1  UNL1       -0.1415
     32 H          -8.0926   -6.8771   28.3666 H       1  UNL1        0.1071
     33 C         -10.4136   -4.7772   29.8760 C.2     1  UNL1        0.3385
     34 O          -9.2324   -4.3596   29.7485 O.2     1  UNL1       -0.2451
     35 O         -11.4662   -3.8706   29.7811 O.3     1  UNL1       -0.4771
     36 H         -12.4178   -4.1398   29.9973 H       1  UNL1        0.2954
@<TRIPOS>BOND
     1    14    15    1
     2    15    16    1
     3    16    17   ar
     4    17    18   ar
     5    18    19   ar
     6    19    20    1
     7    19    21   ar
     8    21    22   ar
     9    22    23    1
    10    15     1    1
    11     1    24    1
    12    24    25    1
    13    25    26   ar
    14    26    27   ar
    15    27    28   ar
    16    28    29   ar
    17    29    33    1
    18    33    34    2
    19    33    35    1
    20    29    30   ar
    21    30    31    1
    22     1     2   am
    23     2     3    2
    24     2     4    1
    25     4     5   ar
    26     5     6   ar
    27     6     7   ar
    28     7     8   ar
    29     8     9   ar
    30     9    10   ar
    31    10    11   ar
    32    11    12   ar
    33    12    13   ar
    34    22    16   ar
    35    30    25   ar
    36    13     4   ar
    37    11     6   ar
    38    35    36    1
    39    31    32    1
@<TRIPOS>MOLECULE
*****
 36 39 0 0 0
SMALL
GASTEIGER

@<TRIPOS>ATOM
      1 N          -8.8080  -10.3887   31.0869 N.am    1  UNL1       -0.2685
      2 C          -9.2744  -11.7377   30.8533 C.2     1  UNL1        0.2672
      3 O          -9.0404  -12.2876   29.7415 O.2     1  UNL1       -0.2682
      4 C         -10.0275  -12.4898   31.8846 C.ar    1  UNL1        0.1347
      5 C         -11.1446  -13.2679   31.5362 C.ar    1  UNL1        0.0238
      6 C         -11.8474  -13.9566   32.5337 C.ar    1  UNL1        0.0031
      7 C         -12.9645  -14.7445   32.2146 C.ar    1  UNL1        0.0001
      8 C         -13.6537  -15.4247   33.2236 C.ar    1  UNL1        0.0000
      9 C         -13.2345  -15.3237   34.5534 C.ar    1  UNL1        0.0000
     10 C         -12.1234  -14.5419   34.8834 C.ar    1  UNL1        0.0015
     11 C         -11.4254  -13.8558   33.8782 C.ar    1  UNL1        0.0192
     12 C         -10.3108  -13.0660   34.1813 C.ar    1  UNL1        0.0989
     13 N          -9.6517  -12.4114   33.1902 N.ar    1  UNL1       -0.2393
     14 C          -8.9045   -9.8403   33.5319 C.3     1  UNL1        0.0265
     15 C          -8.0107  -10.1197   32.3096 C.3     1  UNL1        0.1007
     16 C          -6.9363   -9.0701   32.0469 C.ar    1  UNL1        0.0234
     17 C          -6.9492   -7.7987   32.6604 C.ar    1  UNL1        0.0019
     18 C          -5.9661   -6.8528   32.3569 C.ar    1  UNL1        0.0295
     19 C          -4.9603   -7.1553   31.4385 C.ar    1  UNL1        0.1424
     20 F          -4.0090   -6.2345   31.1459 F       1  UNL1       -0.2041
     21 C          -4.9357   -8.4057   30.8193 C.ar    1  UNL1        0.0590
     22 C          -5.9159   -9.3577   31.1161 C.ar    1  UNL1        0.1399
     23 F          -5.8696  -10.5619   30.4914 F       1  UNL1       -0.2044
     24 C          -8.7728   -9.4724   29.9255 C.3     1  UNL1        0.1212
     25 C          -9.4532   -8.1524   30.2045 C.ar    1  UNL1        0.0033
     26 C          -8.7618   -6.9626   29.9214 C.ar    1  UNL1       -0.0021
     27 C          -9.3544   -5.7243   30.1540 C.ar    1  UNL1       -0.0000
     28 C         -10.6459   -5.6522   30.6698 C.ar    1  UNL1        0.0069
     29 C         -11.3645   -6.8209   30.9614 C.ar    1  UNL1        0.0806
     30 C         -10.7775   -8.0842   30.7055 C.ar    1  UNL1        0.0253
     31 S         -11.7454   -9.5936   30.9113 S.3     1  UNL1       -0.1415
     32 H         -11.3023   -9.7682   32.2326 H       1  UNL1        0.1071
     33 C         -12.7311   -6.6848   31.5071 C.2     1  UNL1        0.3385
     34 O         -12.8980   -6.2020   32.6581 O.2     1  UNL1       -0.2451
     35 O         -13.8402   -7.1286   30.7917 O.3     1  UNL1       -0.4771
     36 H         -13.7404   -7.6324   29.9193 H       1  UNL1        0.2954
@<TRIPOS>BOND
     1    14    15    1
     2    15    16    1
     3    16    17   ar
     4    17    18   ar
     5    18    19   ar
     6    19    20    1
     7    19    21   ar
     8    21    22   ar
     9    22    23    1
    10    15     1    1
    11     1    24    1
    12    24    25    1
    13    25    26   ar
    14    26    27   ar
    15    27    28   ar
    16    28    29   ar
    17    29    33    1
    18    33    34    2
    19    33    35    1
    20    29    30   ar
    21    30    31    1
    22     1     2   am
    23     2     3    2
    24     2     4    1
    25     4     5   ar
    26     5     6   ar
    27     6     7   ar
    28     7     8   ar
    29     8     9   ar
    30     9    10   ar
    31    10    11   ar
    32    11    12   ar
    33    12    13   ar
    34    22    16   ar
    35    30    25   ar
    36    13     4   ar
    37    11     6   ar
    38    35    36    1
    39    31    32    1
@<TRIPOS>MOLECULE
*****
 36 39 0 0 0
SMALL
GASTEIGER

@<TRIPOS>ATOM
      1 N         -10.0164   -9.7417   31.7547 N.am    1  UNL1       -0.2685
      2 C          -9.3679  -10.7353   30.9275 C.2     1  UNL1        0.2672
      3 O         -10.0472  -11.6958   30.4700 O.2     1  UNL1       -0.2682
      4 C          -7.9226  -10.6590   30.6086 C.ar    1  UNL1        0.1347
      5 C          -7.4816  -10.1117   29.3918 C.ar    1  UNL1        0.0238
      6 C          -6.1099  -10.0658   29.1097 C.ar    1  UNL1        0.0031
      7 C          -5.6402   -9.5213   27.9041 C.ar    1  UNL1        0.0001
      8 C          -4.2675   -9.4840   27.6396 C.ar    1  UNL1        0.0000
      9 C          -3.3571   -9.9882   28.5730 C.ar    1  UNL1        0.0000
     10 C          -3.8130  -10.5331   29.7771 C.ar    1  UNL1        0.0015
     11 C          -5.1883  -10.5748   30.0515 C.ar    1  UNL1        0.0192
     12 C          -5.6711  -11.1155   31.2485 C.ar    1  UNL1        0.0989
     13 N          -7.0074  -11.1445   31.4909 N.ar    1  UNL1       -0.2393
     14 C         -10.5069   -7.9767   30.0423 C.3     1  UNL1        0.0265
     15 C          -9.8540   -8.3105   31.3962 C.3     1  UNL1        0.1007
     16 C          -8.4010   -7.8695   31.5341 C.ar    1  UNL1        0.0234
     17 C          -7.7378   -7.1154   30.5418 C.ar    1  UNL1        0.0019
     18 C          -6.3920   -6.7696   30.6926 C.ar    1  UNL1        0.0295
     19 C          -5.6868   -7.1705   31.8277 C.ar    1  UNL1        0.1424
     20 F          -4.3811   -6.8339   31.9695 F       1  UNL1       -0.2041
     21 C          -6.3260   -7.9205   32.8158 C.ar    1  UNL1        0.0590
     22 C          -7.6718   -8.2720   32.6728 C.ar    1  UNL1        0.1399
     23 F          -8.2633   -9.0089   33.6474 F       1  UNL1       -0.2044
     24 C         -11.1247  -10.1992   32.6217 C.3     1  UNL1        0.1212
     25 C         -10.7664  -11.4276   33.4253 C.ar    1  UNL1        0.0033
     26 C          -9.5740  -11.4251   34.1682 C.ar    1  UNL1       -0.0021
     27 C          -9.2096  -12.5319   34.9303 C.ar    1  UNL1       -0.0000
     28 C         -10.0288  -13.6574   34.9662 C.ar    1  UNL1        0.0069
     29 C         -11.2270  -13.6917   34.2379 C.ar    1  UNL1        0.0806
     30 C         -11.6161  -12.5610   33.4790 C.ar    1  UNL1        0.0253
     31 S         -13.2315  -12.5191   32.6751 S.3     1  UNL1       -0.1415
     32 H         -12.7114  -13.0219   31.4713 H       1  UNL1        0.1071
     33 C         -12.0572  -14.9120   34.3128 C.2     1  UNL1        0.3385
     34 O         -12.7533  -15.1311   35.3392 O.2     1  UNL1       -0.2451
     35 O         -12.0466  -15.8549   33.2882 O.3     1  UNL1       -0.4771
     36 H         -11.4105  -15.7776   32.5044 H       1  UNL1        0.2954
@<TRIPOS>BOND
     1    14    15    1
     2    15    16    1
     3    16    17   ar
     4    17    18   ar
     5    18    19   ar
     6    19    20    1
     7    19    21   ar
     8    21    22   ar
     9    22    23    1
    10    15     1    1
    11     1    24    1
    12    24    25    1
    13    25    26   ar
    14    26    27   ar
    15    27    28   ar
    16    28    29   ar
    17    29    33    1
    18    33    34    2
    19    33    35    1
    20    29    30   ar
    21    30    31    1
    22     1     2   am
    23     2     3    2
    24     2     4    1
    25     4     5   ar
    26     5     6   ar
    27     6     7   ar
    28     7     8   ar
    29     8     9   ar
    30     9    10   ar
    31    10    11   ar
    32    11    12   ar
    33    12    13   ar
    34    22    16   ar
    35    30    25   ar
    36    13     4   ar
    37    11     6   ar
    38    35    36    1
    39    31    32    1
@<TRIPOS>MOLECULE
*****
 36 39 0 0 0
SMALL
GASTEIGER

@<TRIPOS>ATOM
      1 N         -10.5590  -10.7434   32.1185 N.am    1  UNL1       -0.2685
      2 C          -9.2031  -11.2407   32.1966 C.2     1  UNL1        0.2672
      3 O          -8.9721  -12.3051   32.8345 O.2     1  UNL1       -0.2682
      4 C          -8.0748  -10.5278   31.5523 C.ar    1  UNL1        0.1347
      5 C          -7.3989  -11.0909   30.4565 C.ar    1  UNL1        0.0238
      6 C          -6.3257  -10.4020   29.8761 C.ar    1  UNL1        0.0031
      7 C          -5.6347  -10.9382   28.7781 C.ar    1  UNL1        0.0001
      8 C          -4.5660  -10.2363   28.2119 C.ar    1  UNL1        0.0000
      9 C          -4.1804   -8.9987   28.7355 C.ar    1  UNL1        0.0000
     10 C          -4.8610   -8.4547   29.8289 C.ar    1  UNL1        0.0015
     11 C          -5.9346   -9.1513   30.4038 C.ar    1  UNL1        0.0192
     12 C          -6.6321   -8.6297   31.4990 C.ar    1  UNL1        0.0989
     13 N          -7.6682   -9.3234   32.0380 N.ar    1  UNL1       -0.2393
     14 C         -10.5934  -11.3819   29.6937 C.3     1  UNL1        0.0265
     15 C         -11.1178  -10.4255   30.7806 C.3     1  UNL1        0.1007
     16 C         -10.9661   -8.9430   30.4584 C.ar    1  UNL1        0.0234
     17 C          -9.9444   -8.4478   29.6193 C.ar    1  UNL1        0.0019
     18 C          -9.8187   -7.0755   29.3860 C.ar    1  UNL1        0.0295
     19 C         -10.7027   -6.1775   29.9849 C.ar    1  UNL1        0.1424
     20 F         -10.5766   -4.8469   29.7568 F       1  UNL1       -0.2041
     21 C         -11.7153   -6.6499   30.8209 C.ar    1  UNL1        0.0590
     22 C         -11.8477   -8.0210   31.0609 C.ar    1  UNL1        0.1399
     23 F         -12.8377   -8.4489   31.8853 F       1  UNL1       -0.2044
     24 C         -11.4376  -10.9826   33.2848 C.3     1  UNL1        0.1212
     25 C         -11.5808  -12.4502   33.6148 C.ar    1  UNL1        0.0033
     26 C         -10.7845  -12.9940   34.6364 C.ar    1  UNL1       -0.0021
     27 C         -10.8905  -14.3391   34.9798 C.ar    1  UNL1       -0.0000
     28 C         -11.7934  -15.1628   34.3123 C.ar    1  UNL1        0.0069
     29 C         -12.6048  -14.6511   33.2889 C.ar    1  UNL1        0.0806
     30 C         -12.5195  -13.2786   32.9499 C.ar    1  UNL1        0.0253
     31 S         -13.6718  -12.5643   31.7586 S.3     1  UNL1       -0.1415
     32 H         -12.7900  -12.7799   30.6869 H       1  UNL1        0.1071
     33 C         -13.5449  -15.5706   32.6148 C.2     1  UNL1        0.3385
     34 O         -14.7018  -15.7350   33.0845 O.2     1  UNL1       -0.2451
     35 O         -13.1592  -16.3016   31.4941 O.3     1  UNL1       -0.4771
     36 H         -12.2041  -16.2916   31.1587 H       1  UNL1        0.2954
@<TRIPOS>BOND
     1    14    15    1
     2    15    16    1
     3    16    17   ar
     4    17    18   ar
     5    18    19   ar
     6    19    20    1
     7    19    21   ar
     8    21    22   ar
     9    22    23    1
    10    15     1    1
    11     1    24    1
    12    24    25    1
    13    25    26   ar
    14    26    27   ar
    15    27    28   ar
    16    28    29   ar
    17    29    33    1
    18    33    34    2
    19    33    35    1
    20    29    30   ar
    21    30    31    1
    22     1     2   am
    23     2     3    2
    24     2     4    1
    25     4     5   ar
    26     5     6   ar
    27     6     7   ar
    28     7     8   ar
    29     8     9   ar
    30     9    10   ar
    31    10    11   ar
    32    11    12   ar
    33    12    13   ar
    34    22    16   ar
    35    30    25   ar
    36    13     4   ar
    37    11     6   ar
    38    35    36    1
    39    31    32    1
