@<TRIPOS>MOLECULE
*****
 44 48 0 0 0
SMALL
GASTEIGER

@<TRIPOS>ATOM
      1 C          -8.9253  -11.6582   31.8163 C.3     1  UNL1        0.1562
      2 C          -8.9195  -12.5280   33.0796 C.3     1  UNL1        0.0622
      3 C         -10.1081  -12.0460   33.9302 C.3     1  UNL1        0.1294
      4 O          -9.7325  -12.0208   35.2876 O.3     1  UNL1       -0.3808
      5 C         -10.3645  -10.6003   33.4509 C.3     1  UNL1        0.1264
      6 N          -9.7409  -10.4956   32.1404 N.am    1  UNL1       -0.2544
      7 C         -10.0250   -9.4380   31.2054 C.2     1  UNL1        0.3081
      8 O          -9.7064   -9.5777   29.9932 O.2     1  UNL1       -0.2522
      9 N         -10.6641   -8.2264   31.6429 N.am    1  UNL1       -0.2663
     10 H         -10.4965  -11.6427   35.7987 H       1  UNL1        0.2107
     11 H         -11.2257   -8.2438   32.5222 H       1  UNL1        0.1565
     12 C         -11.3092  -12.9830   33.7037 C.ar    1  UNL1        0.0310
     13 C         -12.2462  -12.7221   32.6774 C.ar    1  UNL1        0.0026
     14 C         -13.3081  -13.5969   32.4355 C.ar    1  UNL1        0.0295
     15 C         -13.4411  -14.7626   33.1881 C.ar    1  UNL1        0.1424
     16 F         -14.4702  -15.6120   32.9478 F       1  UNL1       -0.2041
     17 C         -12.5007  -15.0657   34.1724 C.ar    1  UNL1        0.0590
     18 C         -11.4330  -14.1973   34.4226 C.ar    1  UNL1        0.1406
     19 F         -10.5133  -14.5660   35.3496 F       1  UNL1       -0.2044
     20 C         -10.5789   -6.9790   30.9323 C.ar    1  UNL1        0.0793
     21 C          -9.4541   -6.6630   30.1471 C.ar    1  UNL1        0.0179
     22 C          -9.3719   -5.4296   29.4945 C.ar    1  UNL1        0.0128
     23 C         -10.4030   -4.4953   29.6275 C.ar    1  UNL1        0.0600
     24 CL        -10.2960   -2.9472   28.8098 Cl      1  UNL1       -0.0822
     25 C         -11.5146   -4.7924   30.4215 C.ar    1  UNL1        0.0423
     26 C         -11.6006   -6.0245   31.0778 C.ar    1  UNL1        0.1543
     27 F         -12.6867   -6.2936   31.8454 F       1  UNL1       -0.2028
     28 O          -6.7474  -10.7537   32.2213 O.2     1  UNL1       -0.2730
     29 C          -7.5230  -11.2798   31.3794 C.2     1  UNL1        0.2454
     30 N          -7.0882  -11.3962   30.0161 N.am    1  UNL1       -0.2680
     31 H          -6.4862  -10.6398   29.6202 H       1  UNL1        0.1563
     32 C          -7.4360  -12.4981   29.1744 C.ar    1  UNL1        0.1346
     33 C          -6.4421  -13.1934   28.4791 C.ar    1  UNL1        0.0406
     34 C          -6.8035  -14.2571   27.6503 C.ar    1  UNL1        0.0736
     35 C          -8.1505  -14.6336   27.5358 C.ar    1  UNL1        0.2466
     36 C          -9.1078  -13.9386   28.2897 C.ar    1  UNL1        0.1691
     37 N          -8.7319  -12.8993   29.0798 N.ar    1  UNL1       -0.2228
     38 N          -8.5415  -15.7172   26.6691 N.am    1  UNL1       -0.0841
     39 C          -8.9450  -16.8996   27.2288 C.2     1  UNL1        0.2905
     40 C          -9.3418  -17.9698   26.4247 C.2     1  UNL1        0.0758
     41 C          -9.3229  -17.8292   25.0396 C.2     1  UNL1        0.0161
     42 C          -8.9054  -16.6270   24.4728 C.2     1  UNL1        0.1156
     43 C          -8.5101  -15.5723   25.3027 C.2     1  UNL1        0.4230
     44 O          -8.1115  -14.4967   24.7767 O.2     1  UNL1       -0.2135
@<TRIPOS>BOND
     1    28    29    2
     2    29    30   am
     3    30    32    1
     4    32    33   ar
     5    33    34   ar
     6    34    35   ar
     7    35    38    1
     8    38    39    1
     9    39    40    2
    10    40    41    1
    11    41    42    2
    12    42    43    1
    13    43    44    2
    14    35    36   ar
    15    36    37   ar
    16    29     1    1
    17     1     2    1
    18     2     3    1
    19     3     4    1
    20     3    12    1
    21    12    13   ar
    22    13    14   ar
    23    14    15   ar
    24    15    16    1
    25    15    17   ar
    26    17    18   ar
    27    18    19    1
    28     3     5    1
    29     5     6    1
    30     6     7   am
    31     7     8    2
    32     7     9   am
    33     9    20    1
    34    20    21   ar
    35    21    22   ar
    36    22    23   ar
    37    23    24    1
    38    23    25   ar
    39    25    26   ar
    40    26    27    1
    41    37    32   ar
    42     6     1    1
    43    26    20   ar
    44    43    38    1
    45    18    12   ar
    46    30    31    1
    47     4    10    1
    48     9    11    1
@<TRIPOS>MOLECULE
*****
 44 48 0 0 0
SMALL
GASTEIGER

@<TRIPOS>ATOM
      1 C          -8.8403  -11.6991   31.8661 C.3     1  UNL1        0.1562
      2 C          -8.8138  -12.5666   33.1308 C.3     1  UNL1        0.0622
      3 C          -9.9990  -12.0948   33.9919 C.3     1  UNL1        0.1294
      4 O          -9.6106  -12.0634   35.3455 O.3     1  UNL1       -0.3808
      5 C         -10.2743  -10.6526   33.5126 C.3     1  UNL1        0.1264
      6 N          -9.6643  -10.5441   32.1959 N.am    1  UNL1       -0.2544
      7 C          -9.9679   -9.4911   31.2619 C.2     1  UNL1        0.3081
      8 O          -9.6595   -9.6298   30.0469 O.2     1  UNL1       -0.2522
      9 N         -10.6147   -8.2851   31.7034 N.am    1  UNL1       -0.2663
     10 H         -10.3734  -11.6920   35.8633 H       1  UNL1        0.2107
     11 H         -11.1677   -8.3064   32.5881 H       1  UNL1        0.1565
     12 C         -11.1928  -13.0441   33.7785 C.ar    1  UNL1        0.0310
     13 C         -11.3587  -14.1905   34.5893 C.ar    1  UNL1        0.0026
     14 C         -12.4672  -15.0260   34.4329 C.ar    1  UNL1        0.0295
     15 C         -13.4470  -14.7212   33.4894 C.ar    1  UNL1        0.1424
     16 F         -14.5241  -15.5317   33.3433 F       1  UNL1       -0.2041
     17 C         -13.3295  -13.5689   32.7126 C.ar    1  UNL1        0.0590
     18 C         -12.2241  -12.7247   32.8614 C.ar    1  UNL1        0.1406
     19 F         -12.1858  -11.5862   32.1241 F       1  UNL1       -0.2044
     20 C         -10.5487   -7.0382   30.9899 C.ar    1  UNL1        0.0793
     21 C          -9.3433   -6.5883   30.4188 C.ar    1  UNL1        0.0179
     22 C          -9.2894   -5.3555   29.7621 C.ar    1  UNL1        0.0128
     23 C         -10.4317   -4.5545   29.6784 C.ar    1  UNL1        0.0600
     24 CL        -10.3607   -3.0067   28.8562 Cl      1  UNL1       -0.0822
     25 C         -11.6282   -4.9840   30.2601 C.ar    1  UNL1        0.0423
     26 C         -11.6868   -6.2160   30.9197 C.ar    1  UNL1        0.1543
     27 F         -12.8568   -6.6146   31.4795 F       1  UNL1       -0.2028
     28 O          -6.6620  -10.7877   32.2529 O.2     1  UNL1       -0.2730
     29 C          -7.4461  -11.3077   31.4151 C.2     1  UNL1        0.2454
     30 N          -7.0291  -11.4048   30.0447 N.am    1  UNL1       -0.2680
     31 H          -6.4366  -10.6403   29.6502 H       1  UNL1        0.1563
     32 C          -7.3824  -12.4981   29.1941 C.ar    1  UNL1        0.1346
     33 C          -6.3945  -13.1778   28.4751 C.ar    1  UNL1        0.0406
     34 C          -6.7614  -14.2331   27.6382 C.ar    1  UNL1        0.0736
     35 C          -8.1075  -14.6172   27.5390 C.ar    1  UNL1        0.2466
     36 C          -9.0579  -13.9383   28.3160 C.ar    1  UNL1        0.1691
     37 N          -8.6769  -12.9068   29.1137 N.ar    1  UNL1       -0.2228
     38 N          -8.5044  -15.6922   26.6643 N.am    1  UNL1       -0.0841
     39 C          -8.8957  -16.8830   27.2148 C.2     1  UNL1        0.2905
     40 C          -9.2977  -17.9454   26.4030 C.2     1  UNL1        0.0758
     41 C          -9.2966  -17.7882   25.0194 C.2     1  UNL1        0.0161
     42 C          -8.8915  -16.5775   24.4619 C.2     1  UNL1        0.1156
     43 C          -8.4906  -15.5309   25.2994 C.2     1  UNL1        0.4230
     44 O          -8.1033  -14.4473   24.7814 O.2     1  UNL1       -0.2135
@<TRIPOS>BOND
     1    28    29    2
     2    29    30   am
     3    30    32    1
     4    32    33   ar
     5    33    34   ar
     6    34    35   ar
     7    35    38    1
     8    38    39    1
     9    39    40    2
    10    40    41    1
    11    41    42    2
    12    42    43    1
    13    43    44    2
    14    35    36   ar
    15    36    37   ar
    16    29     1    1
    17     1     2    1
    18     2     3    1
    19     3     4    1
    20     3    12    1
    21    12    13   ar
    22    13    14   ar
    23    14    15   ar
    24    15    16    1
    25    15    17   ar
    26    17    18   ar
    27    18    19    1
    28     3     5    1
    29     5     6    1
    30     6     7   am
    31     7     8    2
    32     7     9   am
    33     9    20    1
    34    20    21   ar
    35    21    22   ar
    36    22    23   ar
    37    23    24    1
    38    23    25   ar
    39    25    26   ar
    40    26    27    1
    41    37    32   ar
    42     6     1    1
    43    26    20   ar
    44    43    38    1
    45    18    12   ar
    46    30    31    1
    47     4    10    1
    48     9    11    1
@<TRIPOS>MOLECULE
*****
 44 48 0 0 0
SMALL
GASTEIGER

@<TRIPOS>ATOM
      1 C         -11.8883   -9.9235   32.2461 C.3     1  UNL1        0.1562
      2 C         -12.6877  -10.9956   31.4951 C.3     1  UNL1        0.0622
      3 C         -11.7745  -12.2325   31.4253 C.3     1  UNL1        0.1294
      4 O         -11.8972  -12.8338   30.1574 O.3     1  UNL1       -0.3808
      5 C         -10.3457  -11.6665   31.5790 C.3     1  UNL1        0.1264
      6 N         -10.4977  -10.3533   32.1871 N.am    1  UNL1       -0.2544
      7 C          -9.4154   -9.6312   32.8040 C.2     1  UNL1        0.3081
      8 O          -9.6715   -8.6697   33.5790 O.2     1  UNL1       -0.2522
      9 N          -8.0492   -9.9949   32.5413 N.am    1  UNL1       -0.2663
     10 H         -11.2476  -13.5852   30.1226 H       1  UNL1        0.2107
     11 H          -7.8421  -10.9607   32.2047 H       1  UNL1        0.1565
     12 C         -12.1624  -13.2152   32.5459 C.ar    1  UNL1        0.0310
     13 C         -13.2902  -14.0572   32.4107 C.ar    1  UNL1        0.0026
     14 C         -13.6157  -14.9858   33.4021 C.ar    1  UNL1        0.0295
     15 C         -12.8094  -15.1167   34.5317 C.ar    1  UNL1        0.1424
     16 F         -13.1255  -16.0222   35.4900 F       1  UNL1       -0.2041
     17 C         -11.6643  -14.3316   34.6631 C.ar    1  UNL1        0.0590
     18 C         -11.3284  -13.3990   33.6761 C.ar    1  UNL1        0.1406
     19 F         -10.1736  -12.7017   33.8225 F       1  UNL1       -0.2044
     20 C          -6.9377   -9.1000   32.7200 C.ar    1  UNL1        0.0793
     21 C          -7.1365   -7.7543   33.0821 C.ar    1  UNL1        0.0179
     22 C          -6.0462   -6.8896   33.2138 C.ar    1  UNL1        0.0128
     23 C          -4.7497   -7.3536   32.9746 C.ar    1  UNL1        0.0600
     24 CL         -3.3835   -6.2656   33.1379 Cl      1  UNL1       -0.0822
     25 C          -4.5443   -8.6833   32.5950 C.ar    1  UNL1        0.0423
     26 C          -5.6322   -9.5520   32.4603 C.ar    1  UNL1        0.1543
     27 F          -5.4126  -10.8385   32.0891 F       1  UNL1       -0.2028
     28 O         -12.9054   -7.7579   32.2167 O.2     1  UNL1       -0.2730
     29 C         -12.0944   -8.5418   31.6556 C.2     1  UNL1        0.2454
     30 N         -11.4847   -8.1386   30.4198 N.am    1  UNL1       -0.2680
     31 H         -12.0471   -7.5644   29.7524 H       1  UNL1        0.1563
     32 C         -10.1447   -8.4816   30.0589 C.ar    1  UNL1        0.1346
     33 C          -9.8723   -9.7117   29.4527 C.ar    1  UNL1        0.0406
     34 C          -8.5551  -10.0344   29.1215 C.ar    1  UNL1        0.0736
     35 C          -7.5211   -9.1209   29.3779 C.ar    1  UNL1        0.2466
     36 C          -7.8477   -7.8791   29.9429 C.ar    1  UNL1        0.1691
     37 N          -9.1358   -7.5938   30.2671 N.ar    1  UNL1       -0.2228
     38 N          -6.1536   -9.4476   29.0594 N.am    1  UNL1       -0.0841
     39 C          -5.2743   -8.4316   28.7975 C.2     1  UNL1        0.2905
     40 C          -3.9389   -8.7050   28.4955 C.2     1  UNL1        0.0758
     41 C          -3.5020  -10.0267   28.4592 C.2     1  UNL1        0.0161
     42 C          -4.4007  -11.0588   28.7197 C.2     1  UNL1        0.1156
     43 C          -5.7340  -10.7557   29.0163 C.2     1  UNL1        0.4230
     44 O          -6.5435  -11.7006   29.2270 O.2     1  UNL1       -0.2135
@<TRIPOS>BOND
     1    28    29    2
     2    29    30   am
     3    30    32    1
     4    32    33   ar
     5    33    34   ar
     6    34    35   ar
     7    35    38    1
     8    38    39    1
     9    39    40    2
    10    40    41    1
    11    41    42    2
    12    42    43    1
    13    43    44    2
    14    35    36   ar
    15    36    37   ar
    16    29     1    1
    17     1     2    1
    18     2     3    1
    19     3     4    1
    20     3    12    1
    21    12    13   ar
    22    13    14   ar
    23    14    15   ar
    24    15    16    1
    25    15    17   ar
    26    17    18   ar
    27    18    19    1
    28     3     5    1
    29     5     6    1
    30     6     7   am
    31     7     8    2
    32     7     9   am
    33     9    20    1
    34    20    21   ar
    35    21    22   ar
    36    22    23   ar
    37    23    24    1
    38    23    25   ar
    39    25    26   ar
    40    26    27    1
    41    37    32   ar
    42     6     1    1
    43    26    20   ar
    44    43    38    1
    45    18    12   ar
    46    30    31    1
    47     4    10    1
    48     9    11    1
@<TRIPOS>MOLECULE
*****
 44 48 0 0 0
SMALL
GASTEIGER

@<TRIPOS>ATOM
      1 C          -8.4819   -8.6311   30.0592 C.3     1  UNL1        0.1562
      2 C          -8.7809   -7.9943   31.4221 C.3     1  UNL1        0.0622
      3 C          -8.0702   -8.8750   32.4652 C.3     1  UNL1        0.1294
      4 O          -8.8976   -9.0214   33.5958 O.3     1  UNL1       -0.3808
      5 C          -7.9162  -10.2464   31.7719 C.3     1  UNL1        0.1264
      6 N          -8.0470   -9.9917   30.3452 N.am    1  UNL1       -0.2544
      7 C          -7.6399  -10.9267   29.3287 C.2     1  UNL1        0.3081
      8 O          -7.4823  -10.5264   28.1431 O.2     1  UNL1       -0.2522
      9 N          -7.4158  -12.3094   29.6535 N.am    1  UNL1       -0.2663
     10 H          -8.4401   -9.6472   34.2178 H       1  UNL1        0.2107
     11 H          -7.2054  -12.5655   30.6430 H       1  UNL1        0.1565
     12 C          -6.7233   -8.2304   32.8425 C.ar    1  UNL1        0.0310
     13 C          -5.5213   -8.9713   32.7685 C.ar    1  UNL1        0.0026
     14 C          -4.2919   -8.3759   33.0605 C.ar    1  UNL1        0.0295
     15 C          -4.2305   -7.0257   33.4013 C.ar    1  UNL1        0.1424
     16 F          -3.0351   -6.4495   33.6796 F       1  UNL1       -0.2041
     17 C          -5.3976   -6.2628   33.4324 C.ar    1  UNL1        0.0590
     18 C          -6.6340   -6.8485   33.1411 C.ar    1  UNL1        0.1406
     19 F          -7.7316   -6.0508   33.1277 F       1  UNL1       -0.2044
     20 C          -7.4603  -13.3727   28.6861 C.ar    1  UNL1        0.0793
     21 C          -6.3160  -13.7392   27.9528 C.ar    1  UNL1        0.0179
     22 C          -6.3877  -14.7493   26.9894 C.ar    1  UNL1        0.0128
     23 C          -7.6017  -15.3953   26.7390 C.ar    1  UNL1        0.0600
     24 CL         -7.6895  -16.6607   25.5275 Cl      1  UNL1       -0.0822
     25 C          -8.7478  -15.0242   27.4482 C.ar    1  UNL1        0.0423
     26 C          -8.6815  -14.0129   28.4121 C.ar    1  UNL1        0.1543
     27 F          -9.8053  -13.6656   29.0886 F       1  UNL1       -0.2028
     28 O          -9.5277   -8.1684   27.9574 O.2     1  UNL1       -0.2730
     29 C          -9.6837   -8.5883   29.1349 C.2     1  UNL1        0.2454
     30 N         -11.0095   -8.9016   29.5879 N.am    1  UNL1       -0.2680
     31 H         -11.8044   -8.3209   29.2382 H       1  UNL1        0.1563
     32 C         -11.2961   -9.9714   30.4917 C.ar    1  UNL1        0.1346
     33 C         -11.9003   -9.7079   31.7248 C.ar    1  UNL1        0.0406
     34 C         -12.1582  -10.7645   32.6000 C.ar    1  UNL1        0.0736
     35 C         -11.8312  -12.0787   32.2321 C.ar    1  UNL1        0.2466
     36 C         -11.2713  -12.3011   30.9653 C.ar    1  UNL1        0.1691
     37 N         -11.0190  -11.2546   30.1367 N.ar    1  UNL1       -0.2228
     38 N         -12.0737  -13.1779   33.1329 N.am    1  UNL1       -0.0841
     39 C         -13.1974  -13.9402   32.9592 C.2     1  UNL1        0.2905
     40 C         -13.4633  -15.0201   33.8032 C.2     1  UNL1        0.0758
     41 C         -12.5746  -15.3196   34.8325 C.2     1  UNL1        0.0161
     42 C         -11.4353  -14.5378   35.0109 C.2     1  UNL1        0.1156
     43 C         -11.1957  -13.4596   34.1521 C.2     1  UNL1        0.4230
     44 O         -10.1726  -12.7448   34.3389 O.2     1  UNL1       -0.2135
@<TRIPOS>BOND
     1    28    29    2
     2    29    30   am
     3    30    32    1
     4    32    33   ar
     5    33    34   ar
     6    34    35   ar
     7    35    38    1
     8    38    39    1
     9    39    40    2
    10    40    41    1
    11    41    42    2
    12    42    43    1
    13    43    44    2
    14    35    36   ar
    15    36    37   ar
    16    29     1    1
    17     1     2    1
    18     2     3    1
    19     3     4    1
    20     3    12    1
    21    12    13   ar
    22    13    14   ar
    23    14    15   ar
    24    15    16    1
    25    15    17   ar
    26    17    18   ar
    27    18    19    1
    28     3     5    1
    29     5     6    1
    30     6     7   am
    31     7     8    2
    32     7     9   am
    33     9    20    1
    34    20    21   ar
    35    21    22   ar
    36    22    23   ar
    37    23    24    1
    38    23    25   ar
    39    25    26   ar
    40    26    27    1
    41    37    32   ar
    42     6     1    1
    43    26    20   ar
    44    43    38    1
    45    18    12   ar
    46    30    31    1
    47     4    10    1
    48     9    11    1
