@<TRIPOS>MOLECULE
*****
 37 41 0 0 0
SMALL
GASTEIGER

@<TRIPOS>ATOM
      1 C          49.1537   10.7486  -23.4945 C.2     1  UNL1        0.2506
      2 O          49.0843    9.6160  -24.0460 O.2     1  UNL1       -0.2699
      3 N          49.4039   11.9219  -24.2981 N.am    1  UNL1       -0.2680
      4 C          50.0339   13.1104  -23.7047 C.3     1  UNL1        0.1412
      5 C          50.9910   13.8038  -24.6784 C.3     1  UNL1        0.2268
      6 O          51.9369   12.8841  -25.2189 O.3     1  UNL1       -0.4739
      7 C          51.6702   11.8916  -26.1791 C.ar    1  UNL1        0.1362
      8 C          52.7708   11.3559  -26.8561 C.ar    1  UNL1        0.0366
      9 C          52.6052   10.3811  -27.8394 C.ar    1  UNL1        0.0031
     10 C          51.3249    9.9141  -28.1693 C.ar    1  UNL1       -0.0000
     11 C          50.2144   10.4326  -27.4829 C.ar    1  UNL1        0.0004
     12 C          50.3695   11.4047  -26.4779 C.ar    1  UNL1        0.0317
     13 C          49.1418   11.8771  -25.7402 C.3     1  UNL1        0.1236
     14 C          51.1471    8.8809  -29.2209 C.ar    1  UNL1        0.0015
     15 C          52.2769    8.2178  -29.7770 C.ar    1  UNL1        0.0016
     16 C          52.1195    7.2381  -30.7753 C.ar    1  UNL1        0.0206
     17 C          50.8272    6.9436  -31.1959 C.ar    1  UNL1        0.0985
     18 N          50.4477    6.0530  -32.1299 N.ar    1  UNL1       -0.2241
     19 C          49.0944    6.1799  -32.1357 C.ar    1  UNL1        0.1750
     20 N          48.6339    7.1003  -31.2547 N.ar    1  UNL1       -0.3349
     21 C          49.7412    7.5715  -30.6698 C.ar    1  UNL1        0.0757
     22 C          49.8503    8.5456  -29.6813 C.ar    1  UNL1        0.0185
     23 H          47.6427    7.3759  -31.0760 H       1  UNL1        0.1675
     24 C          47.6936   11.2009  -21.4793 C.ar    1  UNL1        0.0503
     25 C          47.5778   11.3377  -20.0819 C.ar    1  UNL1        0.0328
     26 C          48.6794   11.1224  -19.2459 C.ar    1  UNL1        0.1069
     27 C          49.9134   10.7741  -19.8015 C.ar    1  UNL1        0.0186
     28 C          50.0463   10.6353  -21.1825 C.ar    1  UNL1        0.0071
     29 C          48.9483   10.8444  -22.0318 C.ar    1  UNL1        0.0667
     30 S          48.5103   11.3196  -17.5044 S.O2    1  UNL1        0.0105
     31 C          48.5003   13.0527  -17.1073 C.3     1  UNL1        0.1816
     32 O          47.2251   10.6886  -17.0472 O.2     1  UNL1       -0.1686
     33 O          49.6551   10.6514  -16.7955 O.2     1  UNL1       -0.1686
     34 N          46.5393   11.3644  -22.3309 N.pl3   1  UNL1       -0.3325
     35 H          45.9643   10.5257  -22.5710 H       1  UNL1        0.1468
     36 C          45.4962   12.4351  -24.2866 C.3     1  UNL1        0.0229
     37 C          46.1142   12.6412  -22.9072 C.3     1  UNL1        0.0871
@<TRIPOS>BOND
     1    36    37    1
     2    37    34    1
     3    34    24    1
     4    24    25   ar
     5    25    26   ar
     6    26    30    1
     7    30    31    1
     8    30    32    2
     9    30    33    2
    10    26    27   ar
    11    27    28   ar
    12    28    29   ar
    13    29     1    1
    14     1     2    2
    15     1     3   am
    16     3     4    1
    17     4     5    1
    18     5     6    1
    19     6     7    1
    20     7     8   ar
    21     8     9   ar
    22     9    10   ar
    23    10    14    1
    24    14    15   ar
    25    15    16   ar
    26    16    17   ar
    27    17    18   ar
    28    18    19   ar
    29    19    20   ar
    30    20    21   ar
    31    21    22   ar
    32    10    11   ar
    33    11    12   ar
    34    12    13    1
    35    29    24   ar
    36    13     3    1
    37    12     7   ar
    38    22    14   ar
    39    21    17   ar
    40    34    35    1
    41    20    23    1
@<TRIPOS>MOLECULE
*****
 37 41 0 0 0
SMALL
GASTEIGER

@<TRIPOS>ATOM
      1 C          49.8629   11.7036  -20.8725 C.2     1  UNL1        0.2506
      2 O          50.5087   10.7737  -21.4293 O.2     1  UNL1       -0.2699
      3 N          48.9947   12.5447  -21.6622 N.am    1  UNL1       -0.2680
      4 C          48.6841   13.9135  -21.2245 C.3     1  UNL1        0.1412
      5 C          48.5847   14.8879  -22.4016 C.3     1  UNL1        0.2268
      6 O          49.7420   14.8182  -23.2315 O.3     1  UNL1       -0.4739
      7 C          50.0639   13.7734  -24.1162 C.ar    1  UNL1        0.1362
      8 C          51.0137   14.0529  -25.1044 C.ar    1  UNL1        0.0366
      9 C          51.3835   13.0869  -26.0397 C.ar    1  UNL1        0.0031
     10 C          50.8092   11.8082  -26.0064 C.ar    1  UNL1       -0.0000
     11 C          49.8676   11.5116  -25.0072 C.ar    1  UNL1        0.0004
     12 C          49.4978   12.4722  -24.0482 C.ar    1  UNL1        0.0317
     13 C          48.5248   12.0710  -22.9680 C.3     1  UNL1        0.1236
     14 C          51.1976   10.7811  -27.0061 C.ar    1  UNL1        0.0015
     15 C          50.3176    9.7053  -27.3122 C.ar    1  UNL1        0.0016
     16 C          50.6768    8.7257  -28.2569 C.ar    1  UNL1        0.0206
     17 C          51.9157    8.8467  -28.8766 C.ar    1  UNL1        0.0985
     18 N          52.4586    8.0319  -29.7991 N.ar    1  UNL1       -0.2241
     19 C          53.6609    8.6154  -30.0470 C.ar    1  UNL1        0.1750
     20 N          53.8753    9.7405  -29.3235 N.ar    1  UNL1       -0.3349
     21 C          52.7632    9.8718  -28.5912 C.ar    1  UNL1        0.0757
     22 C          52.4490   10.8620  -27.6647 C.ar    1  UNL1        0.0185
     23 H          54.7158   10.3600  -29.3369 H       1  UNL1        0.1675
     24 C          51.2125   12.3127  -18.8218 C.ar    1  UNL1        0.0503
     25 C          51.2947   12.4088  -17.4187 C.ar    1  UNL1        0.0328
     26 C          50.1946   12.0962  -16.6121 C.ar    1  UNL1        0.1069
     27 C          48.9997   11.6759  -17.2024 C.ar    1  UNL1        0.0186
     28 C          48.9008   11.5742  -18.5894 C.ar    1  UNL1        0.0071
     29 C          49.9955   11.8887  -19.4100 C.ar    1  UNL1        0.0667
     30 S          50.3322   12.2067  -14.8601 S.O2    1  UNL1        0.0105
     31 C          51.8539   13.0251  -14.4405 C.3     1  UNL1        0.1816
     32 O          49.1705   12.9860  -14.3105 O.2     1  UNL1       -0.1686
     33 O          50.3210   10.8313  -14.2536 O.2     1  UNL1       -0.1686
     34 N          52.3311   12.6953  -19.6505 N.pl3   1  UNL1       -0.3325
     35 H          53.0400   11.9728  -19.9096 H       1  UNL1        0.1468
     36 C          52.8077   14.0380  -21.6578 C.3     1  UNL1        0.0229
     37 C          52.5591   14.0514  -20.1528 C.3     1  UNL1        0.0871
@<TRIPOS>BOND
     1    36    37    1
     2    37    34    1
     3    34    24    1
     4    24    25   ar
     5    25    26   ar
     6    26    30    1
     7    30    31    1
     8    30    32    2
     9    30    33    2
    10    26    27   ar
    11    27    28   ar
    12    28    29   ar
    13    29     1    1
    14     1     2    2
    15     1     3   am
    16     3     4    1
    17     4     5    1
    18     5     6    1
    19     6     7    1
    20     7     8   ar
    21     8     9   ar
    22     9    10   ar
    23    10    14    1
    24    14    15   ar
    25    15    16   ar
    26    16    17   ar
    27    17    18   ar
    28    18    19   ar
    29    19    20   ar
    30    20    21   ar
    31    21    22   ar
    32    10    11   ar
    33    11    12   ar
    34    12    13    1
    35    29    24   ar
    36    13     3    1
    37    12     7   ar
    38    22    14   ar
    39    21    17   ar
    40    34    35    1
    41    20    23    1
@<TRIPOS>MOLECULE
*****
 37 41 0 0 0
SMALL
GASTEIGER

@<TRIPOS>ATOM
      1 C          49.9769   11.8546  -20.6832 C.2     1  UNL1        0.2506
      2 O          50.5105   10.8665  -21.2583 O.2     1  UNL1       -0.2699
      3 N          49.1361   12.7538  -21.4379 N.am    1  UNL1       -0.2680
      4 C          48.9652   14.1497  -21.0092 C.3     1  UNL1        0.1412
      5 C          48.8776   15.1122  -22.1969 C.3     1  UNL1        0.2268
      6 O          49.9747   14.9349  -23.0900 O.3     1  UNL1       -0.4739
      7 C          50.1575   13.8545  -23.9717 C.ar    1  UNL1        0.1362
      8 C          51.0676   14.0401  -25.0176 C.ar    1  UNL1        0.0366
      9 C          51.3016   13.0336  -25.9541 C.ar    1  UNL1        0.0031
     10 C          50.6271   11.8076  -25.8639 C.ar    1  UNL1       -0.0000
     11 C          49.7243   11.6045  -24.8071 C.ar    1  UNL1        0.0004
     12 C          49.4913   12.6059  -23.8469 C.ar    1  UNL1        0.0317
     13 C          48.5534   12.3023  -22.7056 C.3     1  UNL1        0.1236
     14 C          50.8707   10.7378  -26.8644 C.ar    1  UNL1        0.0015
     15 C          52.1777   10.5231  -27.3851 C.ar    1  UNL1        0.0016
     16 C          52.4191    9.5129  -28.3350 C.ar    1  UNL1        0.0206
     17 C          51.3401    8.7367  -28.7437 C.ar    1  UNL1        0.0985
     18 N          51.3409    7.7284  -29.6342 N.ar    1  UNL1       -0.2241
     19 C          50.0390    7.3380  -29.6492 C.ar    1  UNL1        0.1750
     20 N          49.2495    8.0564  -28.8150 N.ar    1  UNL1       -0.3349
     21 C          50.0875    8.9339  -28.2512 C.ar    1  UNL1        0.0757
     22 C          49.8036    9.9204  -27.3110 C.ar    1  UNL1        0.0185
     23 H          48.2238    7.9476  -28.6522 H       1  UNL1        0.1675
     24 C          51.4822   12.4098  -18.7279 C.ar    1  UNL1        0.0503
     25 C          51.6559   12.5173  -17.3339 C.ar    1  UNL1        0.0328
     26 C          50.5918   12.2767  -16.4572 C.ar    1  UNL1        0.1069
     27 C          49.3413   11.9180  -16.9674 C.ar    1  UNL1        0.0186
     28 C          49.1516   11.8061  -18.3442 C.ar    1  UNL1        0.0071
     29 C          50.2095   12.0487  -19.2345 C.ar    1  UNL1        0.0667
     30 S          50.8431   12.3993  -14.7188 S.O2    1  UNL1        0.0105
     31 C          49.6956   13.5761  -14.0406 C.3     1  UNL1        0.1816
     32 O          50.6257   11.0557  -14.0812 O.2     1  UNL1       -0.1686
     33 O          52.2483   12.8488  -14.4306 O.2     1  UNL1       -0.1686
     34 N          52.5672   12.7190  -19.6287 N.pl3   1  UNL1       -0.3325
     35 H          53.2729   11.9793  -19.8442 H       1  UNL1        0.1468
     36 C          53.0777   13.8616  -21.7485 C.3     1  UNL1        0.0229
     37 C          52.7650   14.0229  -20.2641 C.3     1  UNL1        0.0871
@<TRIPOS>BOND
     1    36    37    1
     2    37    34    1
     3    34    24    1
     4    24    25   ar
     5    25    26   ar
     6    26    30    1
     7    30    31    1
     8    30    32    2
     9    30    33    2
    10    26    27   ar
    11    27    28   ar
    12    28    29   ar
    13    29     1    1
    14     1     2    2
    15     1     3   am
    16     3     4    1
    17     4     5    1
    18     5     6    1
    19     6     7    1
    20     7     8   ar
    21     8     9   ar
    22     9    10   ar
    23    10    14    1
    24    14    15   ar
    25    15    16   ar
    26    16    17   ar
    27    17    18   ar
    28    18    19   ar
    29    19    20   ar
    30    20    21   ar
    31    21    22   ar
    32    10    11   ar
    33    11    12   ar
    34    12    13    1
    35    29    24   ar
    36    13     3    1
    37    12     7   ar
    38    22    14   ar
    39    21    17   ar
    40    34    35    1
    41    20    23    1
@<TRIPOS>MOLECULE
*****
 37 41 0 0 0
SMALL
GASTEIGER

@<TRIPOS>ATOM
      1 C          50.8980   11.7510  -24.2955 C.2     1  UNL1        0.2506
      2 O          51.5867   11.5871  -23.2511 O.2     1  UNL1       -0.2699
      3 N          49.6722   12.5115  -24.2324 N.am    1  UNL1       -0.2680
      4 C          48.5958   12.2710  -25.2045 C.3     1  UNL1        0.1412
      5 C          47.2071   12.3935  -24.5710 C.3     1  UNL1        0.2268
      6 O          47.0956   11.5807  -23.4050 O.3     1  UNL1       -0.4739
      7 C          47.6934   11.8365  -22.1579 C.ar    1  UNL1        0.1362
      8 C          47.1704   11.1532  -21.0550 C.ar    1  UNL1        0.0366
      9 C          47.6840   11.3555  -19.7744 C.ar    1  UNL1        0.0031
     10 C          48.7425   12.2512  -19.5660 C.ar    1  UNL1       -0.0000
     11 C          49.2866   12.9291  -20.6694 C.ar    1  UNL1        0.0004
     12 C          48.7881   12.7219  -21.9684 C.ar    1  UNL1        0.0317
     13 C          49.4550   13.4375  -23.1163 C.3     1  UNL1        0.1236
     14 C          49.2855   12.4722  -18.2017 C.ar    1  UNL1        0.0015
     15 C          48.4067   12.6852  -17.1028 C.ar    1  UNL1        0.0016
     16 C          48.9112   12.8972  -15.8060 C.ar    1  UNL1        0.0206
     17 C          50.2916   12.8909  -15.6387 C.ar    1  UNL1        0.0985
     18 N          50.9844   13.0732  -14.5002 N.ar    1  UNL1       -0.2241
     19 C          52.2755   12.9703  -14.9127 C.ar    1  UNL1        0.1750
     20 N          52.4015   12.7355  -16.2410 N.ar    1  UNL1       -0.3349
     21 C          51.1395   12.6875  -16.6828 C.ar    1  UNL1        0.0757
     22 C          50.6846   12.4737  -17.9810 C.ar    1  UNL1        0.0185
     23 H          53.2821   12.6192  -16.7900 H       1  UNL1        0.1675
     24 C          51.0699    9.8507  -25.9558 C.ar    1  UNL1        0.0503
     25 C          51.6163    9.3399  -27.1497 C.ar    1  UNL1        0.0328
     26 C          52.4549   10.1253  -27.9490 C.ar    1  UNL1        0.1069
     27 C          52.7621   11.4309  -27.5571 C.ar    1  UNL1        0.0186
     28 C          52.2309   11.9524  -26.3781 C.ar    1  UNL1        0.0071
     29 C          51.3852   11.1766  -25.5696 C.ar    1  UNL1        0.0667
     30 S          53.1392    9.4540  -29.4260 S.O2    1  UNL1        0.0105
     31 C          52.0676    8.1760  -30.0423 C.3     1  UNL1        0.1816
     32 O          53.2775   10.5389  -30.4569 O.2     1  UNL1       -0.1686
     33 O          54.4985    8.8753  -29.1487 O.2     1  UNL1       -0.1686
     34 N          50.1570    9.0569  -25.1679 N.pl3   1  UNL1       -0.3325
     35 H          49.1564    8.9944  -25.4620 H       1  UNL1        0.1468
     36 C          49.6700    8.7629  -22.7729 C.3     1  UNL1        0.0229
     37 C          50.5331    8.3301  -23.9540 C.3     1  UNL1        0.0871
@<TRIPOS>BOND
     1    36    37    1
     2    37    34    1
     3    34    24    1
     4    24    25   ar
     5    25    26   ar
     6    26    30    1
     7    30    31    1
     8    30    32    2
     9    30    33    2
    10    26    27   ar
    11    27    28   ar
    12    28    29   ar
    13    29     1    1
    14     1     2    2
    15     1     3   am
    16     3     4    1
    17     4     5    1
    18     5     6    1
    19     6     7    1
    20     7     8   ar
    21     8     9   ar
    22     9    10   ar
    23    10    14    1
    24    14    15   ar
    25    15    16   ar
    26    16    17   ar
    27    17    18   ar
    28    18    19   ar
    29    19    20   ar
    30    20    21   ar
    31    21    22   ar
    32    10    11   ar
    33    11    12   ar
    34    12    13    1
    35    29    24   ar
    36    13     3    1
    37    12     7   ar
    38    22    14   ar
    39    21    17   ar
    40    34    35    1
    41    20    23    1
@<TRIPOS>MOLECULE
*****
 37 41 0 0 0
SMALL
GASTEIGER

@<TRIPOS>ATOM
      1 C          49.5483   11.4219  -21.6517 C.2     1  UNL1        0.2506
      2 O          49.4337   10.3273  -22.2685 O.2     1  UNL1       -0.2699
      3 N          49.8001   12.6368  -22.3903 N.am    1  UNL1       -0.2680
      4 C          50.4775   13.7724  -21.7475 C.3     1  UNL1        0.1412
      5 C          51.4185   14.5034  -22.7092 C.3     1  UNL1        0.2268
      6 O          52.3238   13.5984  -23.3369 O.3     1  UNL1       -0.4739
      7 C          52.0020   12.6731  -24.3462 C.ar    1  UNL1        0.1362
      8 C          53.0667   12.1563  -25.0918 C.ar    1  UNL1        0.0366
      9 C          52.8456   11.2480  -26.1265 C.ar    1  UNL1        0.0031
     10 C          51.5443   10.8304  -26.4402 C.ar    1  UNL1       -0.0000
     11 C          50.4697   11.3297  -25.6860 C.ar    1  UNL1        0.0004
     12 C          50.6809   12.2342  -24.6294 C.ar    1  UNL1        0.0317
     13 C          49.4898   12.6870  -23.8227 C.3     1  UNL1        0.1236
     14 C          51.3074    9.8682  -27.5462 C.ar    1  UNL1        0.0015
     15 C          50.0414    9.2343  -27.6902 C.ar    1  UNL1        0.0016
     16 C          49.8070    8.3196  -28.7339 C.ar    1  UNL1        0.0206
     17 C          50.8515    8.0595  -29.6143 C.ar    1  UNL1        0.0985
     18 N          50.8504    7.2273  -30.6711 N.ar    1  UNL1       -0.2241
     19 C          52.1112    7.3600  -31.1612 C.ar    1  UNL1        0.1750
     20 N          52.8762    8.2285  -30.4571 N.ar    1  UNL1       -0.3349
     21 C          52.0647    8.6611  -29.4852 C.ar    1  UNL1        0.0757
     22 C          52.3403    9.5715  -28.4689 C.ar    1  UNL1        0.0185
     23 H          53.8698    8.4963  -30.6349 H       1  UNL1        0.1675
     24 C          48.1207   11.3315  -19.5657 C.ar    1  UNL1        0.0503
     25 C          48.0326   11.4110  -18.1619 C.ar    1  UNL1        0.0328
     26 C          49.1802   11.5820  -17.3792 C.ar    1  UNL1        0.1069
     27 C          50.4304   11.6829  -17.9953 C.ar    1  UNL1        0.0186
     28 C          50.5361   11.6073  -19.3835 C.ar    1  UNL1        0.0071
     29 C          49.3933   11.4317  -20.1798 C.ar    1  UNL1        0.0667
     30 S          49.0379   11.6977  -15.6280 S.O2    1  UNL1        0.0105
     31 C          48.8504   13.4041  -15.1649 C.3     1  UNL1        0.1816
     32 O          47.8418   10.9137  -15.1657 O.2     1  UNL1       -0.1686
     33 O          50.2674   11.1343  -14.9718 O.2     1  UNL1       -0.1686
     34 N          46.9407   11.0937  -20.3629 N.pl3   1  UNL1       -0.3325
     35 H          46.8475   10.1857  -20.8713 H       1  UNL1        0.1468
     36 C          44.8688   11.9685  -19.3623 C.3     1  UNL1        0.0229
     37 C          45.8494   12.0555  -20.5275 C.3     1  UNL1        0.0871
@<TRIPOS>BOND
     1    36    37    1
     2    37    34    1
     3    34    24    1
     4    24    25   ar
     5    25    26   ar
     6    26    30    1
     7    30    31    1
     8    30    32    2
     9    30    33    2
    10    26    27   ar
    11    27    28   ar
    12    28    29   ar
    13    29     1    1
    14     1     2    2
    15     1     3   am
    16     3     4    1
    17     4     5    1
    18     5     6    1
    19     6     7    1
    20     7     8   ar
    21     8     9   ar
    22     9    10   ar
    23    10    14    1
    24    14    15   ar
    25    15    16   ar
    26    16    17   ar
    27    17    18   ar
    28    18    19   ar
    29    19    20   ar
    30    20    21   ar
    31    21    22   ar
    32    10    11   ar
    33    11    12   ar
    34    12    13    1
    35    29    24   ar
    36    13     3    1
    37    12     7   ar
    38    22    14   ar
    39    21    17   ar
    40    34    35    1
    41    20    23    1
@<TRIPOS>MOLECULE
*****
 37 41 0 0 0
SMALL
GASTEIGER

@<TRIPOS>ATOM
      1 C          49.0339   11.1166  -23.1223 C.2     1  UNL1        0.2506
      2 O          48.8598    9.9997  -23.6828 O.2     1  UNL1       -0.2699
      3 N          49.4178   12.2621  -23.9131 N.am    1  UNL1       -0.2680
      4 C          50.1544   13.3772  -23.3000 C.3     1  UNL1        0.1412
      5 C          51.1957   13.9739  -24.2510 C.3     1  UNL1        0.2268
      6 O          52.0530   12.9651  -24.7802 O.3     1  UNL1       -0.4739
      7 C          51.7047   12.0098  -25.7520 C.ar    1  UNL1        0.1362
      8 C          52.7577   11.3678  -26.4121 C.ar    1  UNL1        0.0366
      9 C          52.5123   10.4199  -27.4050 C.ar    1  UNL1        0.0031
     10 C          51.1976   10.0878  -27.7617 C.ar    1  UNL1       -0.0000
     11 C          50.1329   10.7136  -27.0925 C.ar    1  UNL1        0.0004
     12 C          50.3671   11.6598  -26.0782 C.ar    1  UNL1        0.0317
     13 C          49.1801   12.2515  -25.3601 C.3     1  UNL1        0.1236
     14 C          50.9354    9.0833  -28.8235 C.ar    1  UNL1        0.0015
     15 C          49.6702    8.4370  -28.9065 C.ar    1  UNL1        0.0016
     16 C          49.4120    7.4823  -29.9081 C.ar    1  UNL1        0.0206
     17 C          50.4323    7.1954  -30.8082 C.ar    1  UNL1        0.0985
     18 N          50.4064    6.3240  -31.8327 N.ar    1  UNL1       -0.2241
     19 C          51.6515    6.4456  -32.3640 C.ar    1  UNL1        0.1750
     20 N          52.4306    7.3445  -31.7156 N.ar    1  UNL1       -0.3349
     21 C          51.6446    7.8085  -30.7373 C.ar    1  UNL1        0.0757
     22 C          51.9431    8.7582  -29.7642 C.ar    1  UNL1        0.0185
     23 H          53.4166    7.6113  -31.9322 H       1  UNL1        0.1675
     24 C          47.5400   11.5468  -21.1271 C.ar    1  UNL1        0.0503
     25 C          47.4063   11.6989  -19.7329 C.ar    1  UNL1        0.0328
     26 C          48.5066   11.5331  -18.8840 C.ar    1  UNL1        0.1069
     27 C          49.7569   11.2195  -19.4234 C.ar    1  UNL1        0.0186
     28 C          49.9077   11.0661  -20.8010 C.ar    1  UNL1        0.0071
     29 C          48.8114   11.2257  -21.6631 C.ar    1  UNL1        0.0667
     30 S          48.3142   11.7486  -17.1470 S.O2    1  UNL1        0.0105
     31 C          49.8850   11.5129  -16.3480 C.3     1  UNL1        0.1816
     32 O          47.8053   13.1341  -16.8634 O.2     1  UNL1       -0.1686
     33 O          47.3258   10.7519  -16.6094 O.2     1  UNL1       -0.1686
     34 N          46.3890   11.6587  -21.9913 N.pl3   1  UNL1       -0.3325
     35 H          45.7434   10.8424  -22.0834 H       1  UNL1        0.1468
     36 C          45.4344   12.4636  -24.1128 C.3     1  UNL1        0.0229
     37 C          46.0602   12.8499  -22.7762 C.3     1  UNL1        0.0871
@<TRIPOS>BOND
     1    36    37    1
     2    37    34    1
     3    34    24    1
     4    24    25   ar
     5    25    26   ar
     6    26    30    1
     7    30    31    1
     8    30    32    2
     9    30    33    2
    10    26    27   ar
    11    27    28   ar
    12    28    29   ar
    13    29     1    1
    14     1     2    2
    15     1     3   am
    16     3     4    1
    17     4     5    1
    18     5     6    1
    19     6     7    1
    20     7     8   ar
    21     8     9   ar
    22     9    10   ar
    23    10    14    1
    24    14    15   ar
    25    15    16   ar
    26    16    17   ar
    27    17    18   ar
    28    18    19   ar
    29    19    20   ar
    30    20    21   ar
    31    21    22   ar
    32    10    11   ar
    33    11    12   ar
    34    12    13    1
    35    29    24   ar
    36    13     3    1
    37    12     7   ar
    38    22    14   ar
    39    21    17   ar
    40    34    35    1
    41    20    23    1
@<TRIPOS>MOLECULE
*****
 37 41 0 0 0
SMALL
GASTEIGER

@<TRIPOS>ATOM
      1 C          50.0566   11.7974  -20.6587 C.2     1  UNL1        0.2506
      2 O          50.5258   10.7869  -21.2507 O.2     1  UNL1       -0.2699
      3 N          49.2755   12.7613  -21.3975 N.am    1  UNL1       -0.2680
      4 C          49.1944   14.1578  -20.9452 C.3     1  UNL1        0.1412
      5 C          49.1692   15.1439  -22.1165 C.3     1  UNL1        0.2268
      6 O          50.2530   14.9116  -23.0132 O.3     1  UNL1       -0.4739
      7 C          50.3663   13.8367  -23.9132 C.ar    1  UNL1        0.1362
      8 C          51.2867   13.9810  -24.9565 C.ar    1  UNL1        0.0366
      9 C          51.4559   12.9775  -25.9100 C.ar    1  UNL1        0.0031
     10 C          50.7040   11.7961  -25.8399 C.ar    1  UNL1       -0.0000
     11 C          49.7897   11.6336  -24.7860 C.ar    1  UNL1        0.0004
     12 C          49.6212   12.6315  -23.8090 C.ar    1  UNL1        0.0317
     13 C          48.6654   12.3696  -22.6721 C.3     1  UNL1        0.1236
     14 C          50.8788   10.7298  -26.8585 C.ar    1  UNL1        0.0015
     15 C          52.1637   10.4643  -27.4097 C.ar    1  UNL1        0.0016
     16 C          52.3399    9.4570  -28.3769 C.ar    1  UNL1        0.0206
     17 C          51.2191    8.7349  -28.7719 C.ar    1  UNL1        0.0985
     18 N          51.1564    7.7394  -29.6744 N.ar    1  UNL1       -0.2241
     19 C          49.8384    7.4072  -29.6663 C.ar    1  UNL1        0.1750
     20 N          49.0992    8.1489  -28.8067 N.ar    1  UNL1       -0.3349
     21 C          49.9871    8.9809  -28.2502 C.ar    1  UNL1        0.0757
     22 C          49.7672    9.9665  -27.2921 C.ar    1  UNL1        0.0185
     23 H          48.0733    8.0834  -28.6232 H       1  UNL1        0.1675
     24 C          49.2712   11.7518  -18.2549 C.ar    1  UNL1        0.0503
     25 C          49.5495   11.9761  -16.8921 C.ar    1  UNL1        0.0328
     26 C          50.8218   12.3861  -16.4774 C.ar    1  UNL1        0.1069
     27 C          51.8295   12.5834  -17.4253 C.ar    1  UNL1        0.0186
     28 C          51.5713   12.3670  -18.7783 C.ar    1  UNL1        0.0071
     29 C          50.3007   11.9518  -19.2071 C.ar    1  UNL1        0.0667
     30 S          51.1356   12.6778  -14.7696 S.O2    1  UNL1        0.0105
     31 C          49.7966   13.6218  -14.0787 C.3     1  UNL1        0.1816
     32 O          51.2549   11.3654  -14.0468 O.2     1  UNL1       -0.1686
     33 O          52.4212   13.4389  -14.6034 O.2     1  UNL1       -0.1686
     34 N          47.9749   11.2701  -18.6696 N.pl3   1  UNL1       -0.3325
     35 H          47.8804   10.2790  -18.9864 H       1  UNL1        0.1468
     36 C          46.0066   11.9003  -20.0069 C.3     1  UNL1        0.0229
     37 C          46.7608   12.0878  -18.6942 C.3     1  UNL1        0.0871
@<TRIPOS>BOND
     1    36    37    1
     2    37    34    1
     3    34    24    1
     4    24    25   ar
     5    25    26   ar
     6    26    30    1
     7    30    31    1
     8    30    32    2
     9    30    33    2
    10    26    27   ar
    11    27    28   ar
    12    28    29   ar
    13    29     1    1
    14     1     2    2
    15     1     3   am
    16     3     4    1
    17     4     5    1
    18     5     6    1
    19     6     7    1
    20     7     8   ar
    21     8     9   ar
    22     9    10   ar
    23    10    14    1
    24    14    15   ar
    25    15    16   ar
    26    16    17   ar
    27    17    18   ar
    28    18    19   ar
    29    19    20   ar
    30    20    21   ar
    31    21    22   ar
    32    10    11   ar
    33    11    12   ar
    34    12    13    1
    35    29    24   ar
    36    13     3    1
    37    12     7   ar
    38    22    14   ar
    39    21    17   ar
    40    34    35    1
    41    20    23    1
@<TRIPOS>MOLECULE
*****
 37 41 0 0 0
SMALL
GASTEIGER

@<TRIPOS>ATOM
      1 C          49.9824   11.7815  -20.6959 C.2     1  UNL1        0.2506
      2 O          50.5318   10.8062  -21.2781 O.2     1  UNL1       -0.2699
      3 N          49.1913   12.7175  -21.4594 N.am    1  UNL1       -0.2680
      4 C          49.0162   14.1001  -20.9913 C.3     1  UNL1        0.1412
      5 C          48.9996   15.1039  -22.1476 C.3     1  UNL1        0.2268
      6 O          50.1376   14.9420  -22.9911 O.3     1  UNL1       -0.4739
      7 C          50.3509   13.8899  -23.8999 C.ar    1  UNL1        0.1362
      8 C          51.3141   14.0984  -24.8925 C.ar    1  UNL1        0.0366
      9 C          51.5821   13.1214  -25.8508 C.ar    1  UNL1        0.0031
     10 C          50.8890   11.9026  -25.8367 C.ar    1  UNL1       -0.0000
     11 C          49.9323   11.6761  -24.8335 C.ar    1  UNL1        0.0004
     12 C          49.6641   12.6472  -23.8517 C.ar    1  UNL1        0.0317
     13 C          48.6669   12.3178  -22.7692 C.3     1  UNL1        0.1236
     14 C          51.1690   10.8643  -26.8607 C.ar    1  UNL1        0.0015
     15 C          50.2180    9.8392  -27.1254 C.ar    1  UNL1        0.0016
     16 C          50.4743    8.8494  -28.0928 C.ar    1  UNL1        0.0206
     17 C          51.6837    8.9094  -28.7765 C.ar    1  UNL1        0.0985
     18 N          52.1332    8.0743  -29.7305 N.ar    1  UNL1       -0.2241
     19 C          53.3503    8.5952  -30.0386 C.ar    1  UNL1        0.1750
     20 N          53.6620    9.7016  -29.3216 N.ar    1  UNL1       -0.3349
     21 C          52.5985    9.8858  -28.5310 C.ar    1  UNL1        0.0757
     22 C          52.3866   10.8840  -27.5841 C.ar    1  UNL1        0.0185
     23 H          54.5326   10.2757  -29.3763 H       1  UNL1        0.1675
     24 C          49.0657   11.7067  -18.3398 C.ar    1  UNL1        0.0503
     25 C          49.2669   11.9189  -16.9616 C.ar    1  UNL1        0.0328
     26 C          50.5115   12.3326  -16.4732 C.ar    1  UNL1        0.1069
     27 C          51.5686   12.5458  -17.3620 C.ar    1  UNL1        0.0186
     28 C          51.3870   12.3415  -18.7292 C.ar    1  UNL1        0.0071
     29 C          50.1449   11.9226  -19.2316 C.ar    1  UNL1        0.0667
     30 S          50.7285   12.6090  -14.7479 S.O2    1  UNL1        0.0105
     31 C          50.2310   11.1556  -13.8526 C.3     1  UNL1        0.1816
     32 O          52.1734   12.9090  -14.4624 O.2     1  UNL1       -0.1686
     33 O          49.8957   13.7788  -14.3035 O.2     1  UNL1       -0.1686
     34 N          47.7976   11.2211  -18.8302 N.pl3   1  UNL1       -0.3325
     35 H          47.7441   10.2563  -19.2277 H       1  UNL1        0.1468
     36 C          45.8616   11.9200  -20.1804 C.3     1  UNL1        0.0229
     37 C          46.5587   12.0011  -18.8259 C.3     1  UNL1        0.0871
@<TRIPOS>BOND
     1    36    37    1
     2    37    34    1
     3    34    24    1
     4    24    25   ar
     5    25    26   ar
     6    26    30    1
     7    30    31    1
     8    30    32    2
     9    30    33    2
    10    26    27   ar
    11    27    28   ar
    12    28    29   ar
    13    29     1    1
    14     1     2    2
    15     1     3   am
    16     3     4    1
    17     4     5    1
    18     5     6    1
    19     6     7    1
    20     7     8   ar
    21     8     9   ar
    22     9    10   ar
    23    10    14    1
    24    14    15   ar
    25    15    16   ar
    26    16    17   ar
    27    17    18   ar
    28    18    19   ar
    29    19    20   ar
    30    20    21   ar
    31    21    22   ar
    32    10    11   ar
    33    11    12   ar
    34    12    13    1
    35    29    24   ar
    36    13     3    1
    37    12     7   ar
    38    22    14   ar
    39    21    17   ar
    40    34    35    1
    41    20    23    1
@<TRIPOS>MOLECULE
*****
 37 41 0 0 0
SMALL
GASTEIGER

@<TRIPOS>ATOM
      1 C          48.9080   12.8042  -20.3326 C.2     1  UNL1        0.2506
      2 O          48.0052   12.2042  -20.9781 O.2     1  UNL1       -0.2699
      3 N          49.8529   13.6415  -21.0333 N.am    1  UNL1       -0.2680
      4 C          51.1889   13.8885  -20.4714 C.3     1  UNL1        0.1412
      5 C          52.2683   13.9551  -21.5554 C.3     1  UNL1        0.2268
      6 O          52.2242   12.8090  -22.4023 O.3     1  UNL1       -0.4739
      7 C          51.2502   12.5403  -23.3807 C.ar    1  UNL1        0.1362
      8 C          51.5765   11.5876  -24.3515 C.ar    1  UNL1        0.0366
      9 C          50.6835   11.2680  -25.3739 C.ar    1  UNL1        0.0031
     10 C          49.4327   11.8972  -25.4479 C.ar    1  UNL1       -0.0000
     11 C          49.0880   12.8424  -24.4677 C.ar    1  UNL1        0.0004
     12 C          49.9735   13.1620  -23.4223 C.ar    1  UNL1        0.0317
     13 C          49.5188   14.1425  -22.3704 C.3     1  UNL1        0.1236
     14 C          48.4838   11.5623  -26.5400 C.ar    1  UNL1        0.0015
     15 C          47.2309   12.2306  -26.6353 C.ar    1  UNL1        0.0016
     16 C          46.3237   11.9195  -27.6655 C.ar    1  UNL1        0.0206
     17 C          46.6943   10.9411  -28.5816 C.ar    1  UNL1        0.0985
     18 N          45.9891   10.4881  -29.6336 N.ar    1  UNL1       -0.2241
     19 C          46.8147    9.5506  -30.1693 C.ar    1  UNL1        0.1750
     20 N          47.9828    9.4116  -29.4974 N.ar    1  UNL1       -0.3349
     21 C          47.8899   10.2975  -28.4991 C.ar    1  UNL1        0.0757
     22 C          48.8168   10.5734  -27.4978 C.ar    1  UNL1        0.0185
     23 H          48.7716    8.7619  -29.7121 H       1  UNL1        0.1675
     24 C          49.5784   11.5360  -18.2494 C.ar    1  UNL1        0.0503
     25 C          49.5346   11.4149  -16.8464 C.ar    1  UNL1        0.0328
     26 C          48.8913   12.3793  -16.0624 C.ar    1  UNL1        0.1069
     27 C          48.2770   13.4741  -16.6763 C.ar    1  UNL1        0.0186
     28 C          48.3098   13.6095  -18.0636 C.ar    1  UNL1        0.0071
     29 C          48.9553   12.6514  -18.8612 C.ar    1  UNL1        0.0667
     30 S          48.8354   12.1919  -14.3125 S.O2    1  UNL1        0.0105
     31 C          48.5736   13.7811  -13.5593 C.3     1  UNL1        0.1816
     32 O          47.7131   11.2643  -13.9396 O.2     1  UNL1       -0.1686
     33 O          50.1285   11.6098  -13.8140 O.2     1  UNL1       -0.1686
     34 N          50.2961   10.5703  -19.0474 N.pl3   1  UNL1       -0.3325
     35 H          51.3147   10.7183  -19.2266 H       1  UNL1        0.1468
     36 C          49.7121    9.4726  -21.1719 C.3     1  UNL1        0.0229
     37 C          49.6874    9.3827  -19.6493 C.3     1  UNL1        0.0871
@<TRIPOS>BOND
     1    36    37    1
     2    37    34    1
     3    34    24    1
     4    24    25   ar
     5    25    26   ar
     6    26    30    1
     7    30    31    1
     8    30    32    2
     9    30    33    2
    10    26    27   ar
    11    27    28   ar
    12    28    29   ar
    13    29     1    1
    14     1     2    2
    15     1     3   am
    16     3     4    1
    17     4     5    1
    18     5     6    1
    19     6     7    1
    20     7     8   ar
    21     8     9   ar
    22     9    10   ar
    23    10    14    1
    24    14    15   ar
    25    15    16   ar
    26    16    17   ar
    27    17    18   ar
    28    18    19   ar
    29    19    20   ar
    30    20    21   ar
    31    21    22   ar
    32    10    11   ar
    33    11    12   ar
    34    12    13    1
    35    29    24   ar
    36    13     3    1
    37    12     7   ar
    38    22    14   ar
    39    21    17   ar
    40    34    35    1
    41    20    23    1
