@<TRIPOS>MOLECULE
*****
 38 42 0 0 0
SMALL
GASTEIGER

@<TRIPOS>ATOM
      1 C           4.2900   77.5169   26.2022 C.3     1  UNL1        0.0498
      2 C           5.0732   76.4016   25.4998 C.3     1  UNL1        0.1673
      3 C           4.7893   75.0524   26.1698 C.3     1  UNL1        0.0498
      4 O           6.4842   76.6845   25.6292 O.3     1  UNL1       -0.4770
      5 C           7.3410   77.0606   24.5730 C.ar    1  UNL1        0.1407
      6 C           8.6657   77.4158   24.8485 C.ar    1  UNL1        0.0452
      7 C           9.5275   77.7841   23.8058 C.ar    1  UNL1        0.0450
      8 C           9.0631   77.7944   22.4829 C.ar    1  UNL1        0.0085
      9 C           7.7413   77.4365   22.1998 C.ar    1  UNL1        0.0052
     10 C           6.8821   77.0705   23.2436 C.ar    1  UNL1        0.0529
     11 C           5.4954   76.6767   23.0192 C.ar    1  UNL1        0.1005
     12 N           4.8485   76.5891   21.8419 N.ar    1  UNL1       -0.2271
     13 C           3.6005   76.2022   22.2063 C.ar    1  UNL1        0.1417
     14 N           3.4586   76.0479   23.5439 N.ar    1  UNL1       -0.3380
     15 C           4.6664   76.3460   24.0455 C.ar    1  UNL1        0.0891
     16 H           2.6073   75.7516   24.0708 H       1  UNL1        0.1672
     17 C           2.5060   75.9720   21.2301 C.ar    1  UNL1        0.0531
     18 C           2.5555   74.8664   20.3453 C.ar    1  UNL1        0.0720
     19 C           1.5173   74.6542   19.4291 C.ar    1  UNL1        0.0104
     20 C           0.4322   75.5276   19.3773 C.ar    1  UNL1        0.0014
     21 C           0.3741   76.6240   20.2362 C.ar    1  UNL1        0.0104
     22 C           1.4010   76.8568   21.1602 C.ar    1  UNL1        0.0720
     23 C           3.6394   73.9124   20.3826 C.1     1  UNL1        0.1005
     24 N           4.5080   73.1481   20.4123 N.1     1  UNL1       -0.1908
     25 C           1.3209   78.0402   21.9844 C.1     1  UNL1        0.1005
     26 N           1.2574   78.9887   22.6446 N.1     1  UNL1       -0.1908
     27 C          10.8881   78.1527   24.0933 C.1     1  UNL1       -0.0597
     28 C          12.0286   78.4627   24.3311 C.1     1  UNL1       -0.0598
     29 C          13.3944   78.8348   24.6124 C.ar    1  UNL1        0.0459
     30 C          14.3876   77.8495   24.5211 C.ar    1  UNL1        0.0082
     31 C          15.7211   78.1651   24.7845 C.ar    1  UNL1        0.0006
     32 C          16.0733   79.4665   25.1410 C.ar    1  UNL1       -0.0000
     33 C          15.0942   80.4585   25.2358 C.ar    1  UNL1        0.0045
     34 C          13.7416   80.1604   24.9738 C.ar    1  UNL1        0.0791
     35 C          12.6840   81.2413   25.0786 C.3     1  UNL1        0.4191
     36 F          12.0480   81.3877   23.8590 F       1  UNL1       -0.1658
     37 F          11.7288   80.9372   26.0334 F       1  UNL1       -0.1658
     38 F          13.2795   82.4405   25.4264 F       1  UNL1       -0.1658
@<TRIPOS>BOND
     1     1     2    1
     2     2     3    1
     3     2     4    1
     4     4     5    1
     5     5     6   ar
     6     6     7   ar
     7     7    27    1
     8    27    28    3
     9    28    29    1
    10    29    30   ar
    11    30    31   ar
    12    31    32   ar
    13    32    33   ar
    14    33    34   ar
    15    34    35    1
    16    35    36    1
    17    35    37    1
    18    35    38    1
    19     7     8   ar
    20     8     9   ar
    21     9    10   ar
    22    10    11    1
    23    11    12   ar
    24    12    13   ar
    25    13    17    1
    26    17    18   ar
    27    18    23    1
    28    23    24    3
    29    18    19   ar
    30    19    20   ar
    31    20    21   ar
    32    21    22   ar
    33    22    25    1
    34    25    26    3
    35    13    14   ar
    36    14    15   ar
    37    15     2    1
    38    10     5   ar
    39    15    11   ar
    40    34    29   ar
    41    22    17   ar
    42    14    16    1
@<TRIPOS>MOLECULE
*****
 38 42 0 0 0
SMALL
GASTEIGER

@<TRIPOS>ATOM
      1 C           4.2937   77.5085   26.2125 C.3     1  UNL1        0.0498
      2 C           5.0784   76.3973   25.5054 C.3     1  UNL1        0.1673
      3 C           4.7966   75.0449   26.1698 C.3     1  UNL1        0.0498
      4 O           6.4890   76.6817   25.6357 O.3     1  UNL1       -0.4770
      5 C           7.3450   77.0634   24.5810 C.ar    1  UNL1        0.1407
      6 C           8.6692   77.4194   24.8577 C.ar    1  UNL1        0.0452
      7 C           9.5304   77.7933   23.8164 C.ar    1  UNL1        0.0450
      8 C           9.0657   77.8084   22.4936 C.ar    1  UNL1        0.0085
      9 C           7.7444   77.4498   22.2093 C.ar    1  UNL1        0.0052
     10 C           6.8859   77.0782   23.2517 C.ar    1  UNL1        0.0529
     11 C           5.4997   76.6834   23.0259 C.ar    1  UNL1        0.1005
     12 N           4.8528   76.5997   21.8483 N.ar    1  UNL1       -0.2271
     13 C           3.6054   76.2094   22.2113 C.ar    1  UNL1        0.1417
     14 N           3.4640   76.0494   23.5482 N.ar    1  UNL1       -0.3380
     15 C           4.6714   76.3471   24.0508 C.ar    1  UNL1        0.0891
     16 H           2.6131   75.7497   24.0740 H       1  UNL1        0.1672
     17 C           2.5111   75.9817   21.2343 C.ar    1  UNL1        0.0531
     18 C           1.4077   76.8686   21.1742 C.ar    1  UNL1        0.0720
     19 C           0.3806   76.6486   20.2474 C.ar    1  UNL1        0.0104
     20 C           0.4328   75.5573   19.3817 C.ar    1  UNL1        0.0014
     21 C           1.5083   74.6720   19.4351 C.ar    1  UNL1        0.0104
     22 C           2.5465   74.8713   20.3542 C.ar    1  UNL1        0.0720
     23 C           1.3232   78.0335   22.0240 C.1     1  UNL1        0.1005
     24 N           1.2556   78.9668   22.7052 N.1     1  UNL1       -0.1908
     25 C           3.6060   73.8911   20.4088 C.1     1  UNL1        0.1005
     26 N           4.4552   73.1059   20.4531 N.1     1  UNL1       -0.1908
     27 C          10.8905   78.1627   24.1053 C.1     1  UNL1       -0.0597
     28 C          12.0305   78.4733   24.3442 C.1     1  UNL1       -0.0598
     29 C          13.3959   78.8463   24.6268 C.ar    1  UNL1        0.0459
     30 C          14.3888   77.8600   24.5427 C.ar    1  UNL1        0.0082
     31 C          15.7218   78.1764   24.8076 C.ar    1  UNL1        0.0006
     32 C          16.0739   79.4794   25.1585 C.ar    1  UNL1       -0.0000
     33 C          15.0950   80.4723   25.2461 C.ar    1  UNL1        0.0045
     34 C          13.7428   80.1735   24.9824 C.ar    1  UNL1        0.0791
     35 C          12.6855   81.2554   25.0794 C.3     1  UNL1        0.4191
     36 F          12.0515   81.3951   23.8579 F       1  UNL1       -0.1658
     37 F          11.7286   80.9571   26.0343 F       1  UNL1       -0.1658
     38 F          13.2809   82.4563   25.4213 F       1  UNL1       -0.1658
@<TRIPOS>BOND
     1     1     2    1
     2     2     3    1
     3     2     4    1
     4     4     5    1
     5     5     6   ar
     6     6     7   ar
     7     7    27    1
     8    27    28    3
     9    28    29    1
    10    29    30   ar
    11    30    31   ar
    12    31    32   ar
    13    32    33   ar
    14    33    34   ar
    15    34    35    1
    16    35    36    1
    17    35    37    1
    18    35    38    1
    19     7     8   ar
    20     8     9   ar
    21     9    10   ar
    22    10    11    1
    23    11    12   ar
    24    12    13   ar
    25    13    17    1
    26    17    18   ar
    27    18    23    1
    28    23    24    3
    29    18    19   ar
    30    19    20   ar
    31    20    21   ar
    32    21    22   ar
    33    22    25    1
    34    25    26    3
    35    13    14   ar
    36    14    15   ar
    37    15     2    1
    38    10     5   ar
    39    15    11   ar
    40    34    29   ar
    41    22    17   ar
    42    14    16    1
@<TRIPOS>MOLECULE
*****
 38 42 0 0 0
SMALL
GASTEIGER

@<TRIPOS>ATOM
      1 C           9.4937   76.0145   27.0525 C.3     1  UNL1        0.0498
      2 C           9.0898   77.3690   26.4585 C.3     1  UNL1        0.1673
      3 C           8.8592   78.3905   27.5780 C.3     1  UNL1        0.0498
      4 O           7.8495   77.1986   25.7371 O.3     1  UNL1       -0.4770
      5 C           7.7039   77.2741   24.3357 C.ar    1  UNL1        0.1407
      6 C           6.4679   76.9797   23.7506 C.ar    1  UNL1        0.0452
      7 C           6.3103   77.0585   22.3597 C.ar    1  UNL1        0.0450
      8 C           7.3923   77.4359   21.5519 C.ar    1  UNL1        0.0085
      9 C           8.6296   77.7357   22.1303 C.ar    1  UNL1        0.0052
     10 C           8.7846   77.6546   23.5199 C.ar    1  UNL1        0.0529
     11 C          10.0433   77.9625   24.1901 C.ar    1  UNL1        0.1005
     12 N          11.1959   78.3665   23.6239 N.ar    1  UNL1       -0.2271
     13 C          12.0319   78.4892   24.6851 C.ar    1  UNL1        0.1417
     14 N          11.4442   78.1831   25.8658 N.ar    1  UNL1       -0.3380
     15 C          10.1849   77.8570   25.5386 C.ar    1  UNL1        0.0891
     16 H          11.8672   78.2061   26.8201 H       1  UNL1        0.1672
     17 C          13.4474   78.9177   24.5564 C.ar    1  UNL1        0.0531
     18 C          13.8187   80.2571   24.8320 C.ar    1  UNL1        0.0720
     19 C          15.1570   80.6529   24.7112 C.ar    1  UNL1        0.0104
     20 C          16.1311   79.7373   24.3166 C.ar    1  UNL1        0.0014
     21 C          15.7789   78.4183   24.0343 C.ar    1  UNL1        0.0104
     22 C          14.4469   77.9998   24.1475 C.ar    1  UNL1        0.0720
     23 C          12.8545   81.2354   25.2786 C.1     1  UNL1        0.1005
     24 N          12.0819   82.0195   25.6361 N.1     1  UNL1       -0.1908
     25 C          14.1270   76.6387   23.7848 C.1     1  UNL1        0.1005
     26 N          13.8705   75.5483   23.4936 N.1     1  UNL1       -0.1908
     27 C           5.0387   76.7510   21.7612 C.1     1  UNL1       -0.0597
     28 C           3.9733   76.4963   21.2580 C.1     1  UNL1       -0.0598
     29 C           2.6977   76.1944   20.6539 C.ar    1  UNL1        0.0459
     30 C           2.6163   75.1063   19.7735 C.ar    1  UNL1        0.0082
     31 C           1.4031   74.7786   19.1670 C.ar    1  UNL1        0.0006
     32 C           0.2621   75.5343   19.4345 C.ar    1  UNL1       -0.0000
     33 C           0.3283   76.6213   20.3096 C.ar    1  UNL1        0.0045
     34 C           1.5442   76.9690   20.9327 C.ar    1  UNL1        0.0791
     35 C           1.6094   78.1496   21.8812 C.3     1  UNL1        0.4191
     36 F           1.9180   77.7053   23.1543 F       1  UNL1       -0.1658
     37 F           2.5713   79.0678   21.4961 F       1  UNL1       -0.1658
     38 F           0.3838   78.7903   21.9091 F       1  UNL1       -0.1658
@<TRIPOS>BOND
     1     1     2    1
     2     2     3    1
     3     2     4    1
     4     4     5    1
     5     5     6   ar
     6     6     7   ar
     7     7    27    1
     8    27    28    3
     9    28    29    1
    10    29    30   ar
    11    30    31   ar
    12    31    32   ar
    13    32    33   ar
    14    33    34   ar
    15    34    35    1
    16    35    36    1
    17    35    37    1
    18    35    38    1
    19     7     8   ar
    20     8     9   ar
    21     9    10   ar
    22    10    11    1
    23    11    12   ar
    24    12    13   ar
    25    13    17    1
    26    17    18   ar
    27    18    23    1
    28    23    24    3
    29    18    19   ar
    30    19    20   ar
    31    20    21   ar
    32    21    22   ar
    33    22    25    1
    34    25    26    3
    35    13    14   ar
    36    14    15   ar
    37    15     2    1
    38    10     5   ar
    39    15    11   ar
    40    34    29   ar
    41    22    17   ar
    42    14    16    1
@<TRIPOS>MOLECULE
*****
 38 42 0 0 0
SMALL
GASTEIGER

@<TRIPOS>ATOM
      1 C           9.5422   75.9683   27.0089 C.3     1  UNL1        0.0498
      2 C           9.1277   77.3297   26.4386 C.3     1  UNL1        0.1673
      3 C           8.8987   78.3324   27.5752 C.3     1  UNL1        0.0498
      4 O           7.8838   77.1641   25.7222 O.3     1  UNL1       -0.4770
      5 C           7.7292   77.2605   24.3230 C.ar    1  UNL1        0.1407
      6 C           6.4912   76.9687   23.7410 C.ar    1  UNL1        0.0452
      7 C           6.3246   77.0684   22.3524 C.ar    1  UNL1        0.0450
      8 C           7.3997   77.4640   21.5440 C.ar    1  UNL1        0.0085
      9 C           8.6390   77.7612   22.1195 C.ar    1  UNL1        0.0052
     10 C           8.8029   77.6593   23.5067 C.ar    1  UNL1        0.0529
     11 C          10.0642   77.9634   24.1739 C.ar    1  UNL1        0.1005
     12 N          11.2111   78.3822   23.6071 N.ar    1  UNL1       -0.2271
     13 C          12.0530   78.4927   24.6650 C.ar    1  UNL1        0.1417
     14 N          11.4742   78.1652   25.8443 N.ar    1  UNL1       -0.3380
     15 C          10.2146   77.8376   25.5197 C.ar    1  UNL1        0.0891
     16 H          11.9029   78.1757   26.7963 H       1  UNL1        0.1672
     17 C          13.4654   78.9306   24.5343 C.ar    1  UNL1        0.0531
     18 C          14.4656   78.0132   24.1273 C.ar    1  UNL1        0.0720
     19 C          15.7957   78.4350   24.0033 C.ar    1  UNL1        0.0104
     20 C          16.1465   79.7549   24.2818 C.ar    1  UNL1        0.0014
     21 C          15.1744   80.6664   24.6910 C.ar    1  UNL1        0.0104
     22 C          13.8381   80.2673   24.8227 C.ar    1  UNL1        0.0720
     23 C          14.1489   76.6442   23.7926 C.1     1  UNL1        0.1005
     24 N          13.8949   75.5474   23.5246 N.1     1  UNL1       -0.1908
     25 C          12.8823   81.2355   25.3080 C.1     1  UNL1        0.1005
     26 N          12.1166   82.0116   25.6963 N.1     1  UNL1       -0.1908
     27 C           5.0509   76.7635   21.7570 C.1     1  UNL1       -0.0597
     28 C           3.9846   76.5098   21.2552 C.1     1  UNL1       -0.0598
     29 C           2.7088   76.2078   20.6516 C.ar    1  UNL1        0.0459
     30 C           2.6266   75.1180   19.7733 C.ar    1  UNL1        0.0082
     31 C           1.4132   74.7901   19.1673 C.ar    1  UNL1        0.0006
     32 C           0.2727   75.5473   19.4333 C.ar    1  UNL1       -0.0000
     33 C           0.3398   76.6359   20.3064 C.ar    1  UNL1        0.0045
     34 C           1.5559   76.9838   20.9288 C.ar    1  UNL1        0.0791
     35 C           1.6221   78.1662   21.8750 C.3     1  UNL1        0.4191
     36 F           1.9507   77.7264   23.1447 F       1  UNL1       -0.1658
     37 F           2.5704   79.0928   21.4768 F       1  UNL1       -0.1658
     38 F           0.3909   78.7955   21.9176 F       1  UNL1       -0.1658
@<TRIPOS>BOND
     1     1     2    1
     2     2     3    1
     3     2     4    1
     4     4     5    1
     5     5     6   ar
     6     6     7   ar
     7     7    27    1
     8    27    28    3
     9    28    29    1
    10    29    30   ar
    11    30    31   ar
    12    31    32   ar
    13    32    33   ar
    14    33    34   ar
    15    34    35    1
    16    35    36    1
    17    35    37    1
    18    35    38    1
    19     7     8   ar
    20     8     9   ar
    21     9    10   ar
    22    10    11    1
    23    11    12   ar
    24    12    13   ar
    25    13    17    1
    26    17    18   ar
    27    18    23    1
    28    23    24    3
    29    18    19   ar
    30    19    20   ar
    31    20    21   ar
    32    21    22   ar
    33    22    25    1
    34    25    26    3
    35    13    14   ar
    36    14    15   ar
    37    15     2    1
    38    10     5   ar
    39    15    11   ar
    40    34    29   ar
    41    22    17   ar
    42    14    16    1
@<TRIPOS>MOLECULE
*****
 38 42 0 0 0
SMALL
GASTEIGER

@<TRIPOS>ATOM
      1 C           7.9750   79.4432   28.1241 C.3     1  UNL1        0.0498
      2 C           9.3321   78.8968   27.6656 C.3     1  UNL1        0.1673
      3 C           9.9311   77.9910   28.7475 C.3     1  UNL1        0.0498
      4 O          10.2272   80.0126   27.4613 O.3     1  UNL1       -0.4770
      5 C          10.7130   80.4503   26.2110 C.ar    1  UNL1        0.1407
      6 C          11.4863   81.6136   26.1369 C.ar    1  UNL1        0.0452
      7 C          11.9801   82.0536   24.9007 C.ar    1  UNL1        0.0450
      8 C          11.7015   81.3256   23.7352 C.ar    1  UNL1        0.0085
      9 C          10.9326   80.1596   23.8025 C.ar    1  UNL1        0.0052
     10 C          10.4393   79.7233   25.0386 C.ar    1  UNL1        0.0529
     11 C           9.6395   78.5117   25.1828 C.ar    1  UNL1        0.1005
     12 N           9.2739   77.6509   24.2145 N.ar    1  UNL1       -0.2271
     13 C           8.5387   76.7294   24.8856 C.ar    1  UNL1        0.1417
     14 N           8.4426   76.9859   26.2115 N.ar    1  UNL1       -0.3380
     15 C           9.1481   78.1131   26.3867 C.ar    1  UNL1        0.0891
     16 H           7.9439   76.4286   26.9402 H       1  UNL1        0.1672
     17 C           7.9073   75.5593   24.2252 C.ar    1  UNL1        0.0531
     18 C           6.4966   75.4314   24.1892 C.ar    1  UNL1        0.0720
     19 C           5.9083   74.3259   23.5613 C.ar    1  UNL1        0.0104
     20 C           6.7025   73.3437   22.9719 C.ar    1  UNL1        0.0014
     21 C           8.0918   73.4523   23.0068 C.ar    1  UNL1        0.0104
     22 C           8.7024   74.5485   23.6296 C.ar    1  UNL1        0.0720
     23 C           5.6286   76.4387   24.7533 C.1     1  UNL1        0.1005
     24 N           4.9331   77.2460   25.2051 N.1     1  UNL1       -0.1908
     25 C          10.1452   74.5813   23.6903 C.1     1  UNL1        0.1005
     26 N          11.3013   74.6072   23.7394 N.1     1  UNL1       -0.1908
     27 C          12.7718   83.2526   24.8278 C.1     1  UNL1       -0.0597
     28 C          13.4343   84.2581   24.7700 C.1     1  UNL1       -0.0598
     29 C          14.2265   85.4627   24.7040 C.ar    1  UNL1        0.0459
     30 C          14.3243   86.2616   25.8521 C.ar    1  UNL1        0.0082
     31 C          15.0796   87.4348   25.8330 C.ar    1  UNL1        0.0006
     32 C          15.7430   87.8195   24.6683 C.ar    1  UNL1       -0.0000
     33 C          15.6545   87.0331   23.5169 C.ar    1  UNL1        0.0045
     34 C          14.8967   85.8444   23.5152 C.ar    1  UNL1        0.0791
     35 C          14.8046   84.9958   22.2625 C.3     1  UNL1        0.4191
     36 F          15.5952   85.5465   21.2700 F       1  UNL1       -0.1658
     37 F          15.2298   83.6975   22.4869 F       1  UNL1       -0.1658
     38 F          13.4926   84.9539   21.8262 F       1  UNL1       -0.1658
@<TRIPOS>BOND
     1     1     2    1
     2     2     3    1
     3     2     4    1
     4     4     5    1
     5     5     6   ar
     6     6     7   ar
     7     7    27    1
     8    27    28    3
     9    28    29    1
    10    29    30   ar
    11    30    31   ar
    12    31    32   ar
    13    32    33   ar
    14    33    34   ar
    15    34    35    1
    16    35    36    1
    17    35    37    1
    18    35    38    1
    19     7     8   ar
    20     8     9   ar
    21     9    10   ar
    22    10    11    1
    23    11    12   ar
    24    12    13   ar
    25    13    17    1
    26    17    18   ar
    27    18    23    1
    28    23    24    3
    29    18    19   ar
    30    19    20   ar
    31    20    21   ar
    32    21    22   ar
    33    22    25    1
    34    25    26    3
    35    13    14   ar
    36    14    15   ar
    37    15     2    1
    38    10     5   ar
    39    15    11   ar
    40    34    29   ar
    41    22    17   ar
    42    14    16    1
@<TRIPOS>MOLECULE
*****
 38 42 0 0 0
SMALL
GASTEIGER

@<TRIPOS>ATOM
      1 C           7.9669   79.4465   28.1288 C.3     1  UNL1        0.0498
      2 C           9.3255   78.8993   27.6760 C.3     1  UNL1        0.1673
      3 C           9.9220   77.9975   28.7626 C.3     1  UNL1        0.0498
      4 O          10.2205   80.0148   27.4704 O.3     1  UNL1       -0.4770
      5 C          10.7096   80.4486   26.2199 C.ar    1  UNL1        0.1407
      6 C          11.4825   81.6120   26.1440 C.ar    1  UNL1        0.0452
      7 C          11.9796   82.0480   24.9077 C.ar    1  UNL1        0.0450
      8 C          11.7046   81.3159   23.7439 C.ar    1  UNL1        0.0085
      9 C          10.9361   80.1497   23.8131 C.ar    1  UNL1        0.0052
     10 C          10.4396   79.7174   25.0493 C.ar    1  UNL1        0.0529
     11 C           9.6401   78.5057   25.1954 C.ar    1  UNL1        0.1005
     12 N           9.2777   77.6415   24.2290 N.ar    1  UNL1       -0.2271
     13 C           8.5411   76.7218   24.9012 C.ar    1  UNL1        0.1417
     14 N           8.4411   76.9828   26.2260 N.ar    1  UNL1       -0.3380
     15 C           9.1456   78.1110   26.3993 C.ar    1  UNL1        0.0891
     16 H           7.9407   76.4278   26.9552 H       1  UNL1        0.1672
     17 C           7.9122   75.5492   24.2431 C.ar    1  UNL1        0.0531
     18 C           8.7153   74.5471   23.6442 C.ar    1  UNL1        0.0720
     19 C           8.1143   73.4420   23.0278 C.ar    1  UNL1        0.0104
     20 C           6.7261   73.3205   22.9949 C.ar    1  UNL1        0.0014
     21 C           5.9234   74.3028   23.5729 C.ar    1  UNL1        0.0104
     22 C           6.5019   75.4171   24.1942 C.ar    1  UNL1        0.0720
     23 C          10.1580   74.6075   23.6821 C.1     1  UNL1        0.1005
     24 N          11.3139   74.6556   23.7126 N.1     1  UNL1       -0.1908
     25 C           5.6239   76.4346   24.7236 C.1     1  UNL1        0.1005
     26 N           4.9206   77.2497   25.1484 N.1     1  UNL1       -0.1908
     27 C          12.7707   83.2472   24.8329 C.1     1  UNL1       -0.0597
     28 C          13.4320   84.2534   24.7729 C.1     1  UNL1       -0.0598
     29 C          14.2219   85.4594   24.7038 C.ar    1  UNL1        0.0459
     30 C          14.3235   86.2581   25.8516 C.ar    1  UNL1        0.0082
     31 C          15.0767   87.4325   25.8296 C.ar    1  UNL1        0.0006
     32 C          15.7342   87.8187   24.6620 C.ar    1  UNL1       -0.0000
     33 C          15.6419   87.0326   23.5108 C.ar    1  UNL1        0.0045
     34 C          14.8861   85.8426   23.5121 C.ar    1  UNL1        0.0791
     35 C          14.7899   84.9941   22.2596 C.3     1  UNL1        0.4191
     36 F          15.5961   85.5315   21.2723 F       1  UNL1       -0.1658
     37 F          15.1932   83.6897   22.4882 F       1  UNL1       -0.1658
     38 F          13.4806   84.9722   21.8138 F       1  UNL1       -0.1658
@<TRIPOS>BOND
     1     1     2    1
     2     2     3    1
     3     2     4    1
     4     4     5    1
     5     5     6   ar
     6     6     7   ar
     7     7    27    1
     8    27    28    3
     9    28    29    1
    10    29    30   ar
    11    30    31   ar
    12    31    32   ar
    13    32    33   ar
    14    33    34   ar
    15    34    35    1
    16    35    36    1
    17    35    37    1
    18    35    38    1
    19     7     8   ar
    20     8     9   ar
    21     9    10   ar
    22    10    11    1
    23    11    12   ar
    24    12    13   ar
    25    13    17    1
    26    17    18   ar
    27    18    23    1
    28    23    24    3
    29    18    19   ar
    30    19    20   ar
    31    20    21   ar
    32    21    22   ar
    33    22    25    1
    34    25    26    3
    35    13    14   ar
    36    14    15   ar
    37    15     2    1
    38    10     5   ar
    39    15    11   ar
    40    34    29   ar
    41    22    17   ar
    42    14    16    1
@<TRIPOS>MOLECULE
*****
 38 42 0 0 0
SMALL
GASTEIGER

@<TRIPOS>ATOM
      1 C          10.4764   77.0394   22.3674 C.3     1  UNL1        0.0498
      2 C           9.5459   78.1768   22.8043 C.3     1  UNL1        0.1673
      3 C           8.3681   78.3009   21.8310 C.3     1  UNL1        0.0498
      4 O          10.2923   79.4136   22.7734 O.3     1  UNL1       -0.4770
      5 C          10.6740   80.1645   23.9054 C.ar    1  UNL1        0.1407
      6 C          11.4921   81.2881   23.7477 C.ar    1  UNL1        0.0452
      7 C          11.8715   82.0456   24.8649 C.ar    1  UNL1        0.0450
      8 C          11.4285   81.6790   26.1436 C.ar    1  UNL1        0.0085
      9 C          10.6071   80.5594   26.3081 C.ar    1  UNL1        0.0052
     10 C          10.2310   79.8037   25.1905 C.ar    1  UNL1        0.0529
     11 C           9.3690   78.6307   25.2882 C.ar    1  UNL1        0.1005
     12 N           8.8102   78.1145   26.3989 N.ar    1  UNL1       -0.2271
     13 C           8.1339   77.0367   25.9287 C.ar    1  UNL1        0.1417
     14 N           8.2516   76.8750   24.5897 N.ar    1  UNL1       -0.3380
     15 C           9.0310   77.8934   24.1965 C.ar    1  UNL1        0.0891
     16 H           7.8240   76.1341   23.9910 H       1  UNL1        0.1672
     17 C           7.3451   76.1311   26.8014 C.ar    1  UNL1        0.0531
     18 C           7.9831   75.3849   27.8231 C.ar    1  UNL1        0.0720
     19 C           7.2313   74.5349   28.6445 C.ar    1  UNL1        0.0104
     20 C           5.8548   74.4131   28.4624 C.ar    1  UNL1        0.0014
     21 C           5.2150   75.1349   27.4560 C.ar    1  UNL1        0.0104
     22 C           5.9462   75.9905   26.6219 C.ar    1  UNL1        0.0720
     23 C           9.4003   75.5021   28.0763 C.1     1  UNL1        0.1005
     24 N          10.5358   75.5963   28.2794 N.1     1  UNL1       -0.1908
     25 C           5.2442   76.6681   25.5568 C.1     1  UNL1        0.1005
     26 N           4.6817   77.2116   24.7038 N.1     1  UNL1       -0.1908
     27 C          12.7163   83.1982   24.6993 C.1     1  UNL1       -0.0597
     28 C          13.4227   84.1655   24.5633 C.1     1  UNL1       -0.0598
     29 C          14.2669   85.3252   24.4031 C.ar    1  UNL1        0.0459
     30 C          14.3643   86.2327   25.4674 C.ar    1  UNL1        0.0082
     31 C          15.1689   87.3673   25.3559 C.ar    1  UNL1        0.0006
     32 C          15.8822   87.6048   24.1814 C.ar    1  UNL1       -0.0000
     33 C          15.7947   86.7092   23.1128 C.ar    1  UNL1        0.0045
     34 C          14.9877   85.5570   23.2052 C.ar    1  UNL1        0.0791
     35 C          14.8970   84.5892   22.0421 C.3     1  UNL1        0.4191
     36 F          15.6264   83.4494   22.3291 F       1  UNL1       -0.1658
     37 F          13.5895   84.2150   21.7834 F       1  UNL1       -0.1658
     38 F          15.4123   85.1826   20.9038 F       1  UNL1       -0.1658
@<TRIPOS>BOND
     1     1     2    1
     2     2     3    1
     3     2     4    1
     4     4     5    1
     5     5     6   ar
     6     6     7   ar
     7     7    27    1
     8    27    28    3
     9    28    29    1
    10    29    30   ar
    11    30    31   ar
    12    31    32   ar
    13    32    33   ar
    14    33    34   ar
    15    34    35    1
    16    35    36    1
    17    35    37    1
    18    35    38    1
    19     7     8   ar
    20     8     9   ar
    21     9    10   ar
    22    10    11    1
    23    11    12   ar
    24    12    13   ar
    25    13    17    1
    26    17    18   ar
    27    18    23    1
    28    23    24    3
    29    18    19   ar
    30    19    20   ar
    31    20    21   ar
    32    21    22   ar
    33    22    25    1
    34    25    26    3
    35    13    14   ar
    36    14    15   ar
    37    15     2    1
    38    10     5   ar
    39    15    11   ar
    40    34    29   ar
    41    22    17   ar
    42    14    16    1
@<TRIPOS>MOLECULE
*****
 38 42 0 0 0
SMALL
GASTEIGER

@<TRIPOS>ATOM
      1 C          10.4701   77.0410   22.3461 C.3     1  UNL1        0.0498
      2 C           9.5408   78.1740   22.7966 C.3     1  UNL1        0.1673
      3 C           8.3559   78.3021   21.8325 C.3     1  UNL1        0.0498
      4 O          10.2849   79.4123   22.7680 O.3     1  UNL1       -0.4770
      5 C          10.6734   80.1569   23.9018 C.ar    1  UNL1        0.1407
      6 C          11.4885   81.2829   23.7452 C.ar    1  UNL1        0.0452
      7 C          11.8746   82.0341   24.8643 C.ar    1  UNL1        0.0450
      8 C          11.4414   81.6589   26.1439 C.ar    1  UNL1        0.0085
      9 C          10.6230   80.5369   26.3074 C.ar    1  UNL1        0.0052
     10 C          10.2402   79.7874   25.1878 C.ar    1  UNL1        0.0529
     11 C           9.3809   78.6124   25.2845 C.ar    1  UNL1        0.1005
     12 N           8.8310   78.0884   26.3959 N.ar    1  UNL1       -0.2271
     13 C           8.1531   77.0123   25.9240 C.ar    1  UNL1        0.1417
     14 N           8.2615   76.8591   24.5832 N.ar    1  UNL1       -0.3380
     15 C           9.0364   77.8812   24.1907 C.ar    1  UNL1        0.0891
     16 H           7.8309   76.1211   23.9830 H       1  UNL1        0.1672
     17 C           7.3721   76.1000   26.7967 C.ar    1  UNL1        0.0531
     18 C           5.9722   75.9660   26.6233 C.ar    1  UNL1        0.0720
     19 C           5.2428   75.1007   27.4488 C.ar    1  UNL1        0.0104
     20 C           5.8845   74.3694   28.4470 C.ar    1  UNL1        0.0014
     21 C           7.2599   74.4974   28.6344 C.ar    1  UNL1        0.0104
     22 C           8.0099   75.3571   27.8214 C.ar    1  UNL1        0.0720
     23 C           5.2654   76.6738   25.5813 C.1     1  UNL1        0.1005
     24 N           4.6990   77.2407   24.7462 N.1     1  UNL1       -0.1908
     25 C           9.4207   75.4979   28.0974 C.1     1  UNL1        0.1005
     26 N          10.5510   75.6114   28.3187 N.1     1  UNL1       -0.1908
     27 C          12.7163   83.1892   24.6998 C.1     1  UNL1       -0.0597
     28 C          13.4199   84.1586   24.5645 C.1     1  UNL1       -0.0598
     29 C          14.2605   85.3210   24.4051 C.ar    1  UNL1        0.0459
     30 C          14.3547   86.2285   25.4697 C.ar    1  UNL1        0.0082
     31 C          15.1557   87.3656   25.3588 C.ar    1  UNL1        0.0006
     32 C          15.8688   87.6057   24.1847 C.ar    1  UNL1       -0.0000
     33 C          15.7846   86.7101   23.1158 C.ar    1  UNL1        0.0045
     34 C          14.9811   85.5554   23.2075 C.ar    1  UNL1        0.0791
     35 C          14.8938   84.5877   22.0440 C.3     1  UNL1        0.4191
     36 F          15.6252   83.4493   22.3318 F       1  UNL1       -0.1658
     37 F          13.5874   84.2109   21.7836 F       1  UNL1       -0.1658
     38 F          15.4094   85.1824   20.9065 F       1  UNL1       -0.1658
@<TRIPOS>BOND
     1     1     2    1
     2     2     3    1
     3     2     4    1
     4     4     5    1
     5     5     6   ar
     6     6     7   ar
     7     7    27    1
     8    27    28    3
     9    28    29    1
    10    29    30   ar
    11    30    31   ar
    12    31    32   ar
    13    32    33   ar
    14    33    34   ar
    15    34    35    1
    16    35    36    1
    17    35    37    1
    18    35    38    1
    19     7     8   ar
    20     8     9   ar
    21     9    10   ar
    22    10    11    1
    23    11    12   ar
    24    12    13   ar
    25    13    17    1
    26    17    18   ar
    27    18    23    1
    28    23    24    3
    29    18    19   ar
    30    19    20   ar
    31    20    21   ar
    32    21    22   ar
    33    22    25    1
    34    25    26    3
    35    13    14   ar
    36    14    15   ar
    37    15     2    1
    38    10     5   ar
    39    15    11   ar
    40    34    29   ar
    41    22    17   ar
    42    14    16    1
@<TRIPOS>MOLECULE
*****
 38 42 0 0 0
SMALL
GASTEIGER

@<TRIPOS>ATOM
      1 C           8.9424   78.8967   20.0802 C.3     1  UNL1        0.0498
      2 C           8.5993   78.7338   21.5656 C.3     1  UNL1        0.1673
      3 C           7.0834   78.8288   21.7724 C.3     1  UNL1        0.0498
      4 O           9.2257   79.8099   22.2987 O.3     1  UNL1       -0.4770
      5 C          10.3015   79.6649   23.2000 C.ar    1  UNL1        0.1407
      6 C          10.8920   80.8014   23.7626 C.ar    1  UNL1        0.0452
      7 C          11.9568   80.6685   24.6649 C.ar    1  UNL1        0.0450
      8 C          12.4305   79.3941   25.0075 C.ar    1  UNL1        0.0085
      9 C          11.8423   78.2535   24.4522 C.ar    1  UNL1        0.0052
     10 C          10.7797   78.3894   23.5498 C.ar    1  UNL1        0.0529
     11 C          10.1138   77.2430   22.9408 C.ar    1  UNL1        0.1005
     12 N          10.3805   75.9388   23.1408 N.ar    1  UNL1       -0.2271
     13 C           9.4913   75.3162   22.3273 C.ar    1  UNL1        0.1417
     14 N           8.6973   76.1762   21.6468 N.ar    1  UNL1       -0.3380
     15 C           9.0981   77.3915   22.0486 C.ar    1  UNL1        0.0891
     16 H           7.9349   75.9499   20.9703 H       1  UNL1        0.1672
     17 C           9.4033   73.8395   22.2024 C.ar    1  UNL1        0.0531
     18 C           8.1649   73.2177   21.9065 C.ar    1  UNL1        0.0720
     19 C           8.0907   71.8239   21.7872 C.ar    1  UNL1        0.0104
     20 C           9.2293   71.0390   21.9615 C.ar    1  UNL1        0.0014
     21 C          10.4526   71.6365   22.2610 C.ar    1  UNL1        0.0104
     22 C          10.5509   73.0283   22.3859 C.ar    1  UNL1        0.0720
     23 C           6.9637   73.9876   21.6815 C.1     1  UNL1        0.1005
     24 N           6.0011   74.6043   21.5012 N.1     1  UNL1       -0.1908
     25 C          11.8285   73.5908   22.7567 C.1     1  UNL1        0.1005
     26 N          12.8522   74.0421   23.0535 N.1     1  UNL1       -0.1908
     27 C          12.5643   81.8398   25.2384 C.1     1  UNL1       -0.0597
     28 C          13.0724   82.8202   25.7220 C.1     1  UNL1       -0.0598
     29 C          13.6797   83.9929   26.3042 C.ar    1  UNL1        0.0459
     30 C          13.9176   84.0059   27.6859 C.ar    1  UNL1        0.0082
     31 C          14.5028   85.1190   28.2907 C.ar    1  UNL1        0.0006
     32 C          14.8550   86.2274   27.5212 C.ar    1  UNL1       -0.0000
     33 C          14.6239   86.2284   26.1434 C.ar    1  UNL1        0.0045
     34 C          14.0338   85.1140   25.5130 C.ar    1  UNL1        0.0791
     35 C          13.7856   85.1215   24.0176 C.3     1  UNL1        0.4191
     36 F          14.5080   86.1458   23.4327 F       1  UNL1       -0.1658
     37 F          14.1651   83.9288   23.4261 F       1  UNL1       -0.1658
     38 F          12.4387   85.3188   23.7721 F       1  UNL1       -0.1658
@<TRIPOS>BOND
     1     1     2    1
     2     2     3    1
     3     2     4    1
     4     4     5    1
     5     5     6   ar
     6     6     7   ar
     7     7    27    1
     8    27    28    3
     9    28    29    1
    10    29    30   ar
    11    30    31   ar
    12    31    32   ar
    13    32    33   ar
    14    33    34   ar
    15    34    35    1
    16    35    36    1
    17    35    37    1
    18    35    38    1
    19     7     8   ar
    20     8     9   ar
    21     9    10   ar
    22    10    11    1
    23    11    12   ar
    24    12    13   ar
    25    13    17    1
    26    17    18   ar
    27    18    23    1
    28    23    24    3
    29    18    19   ar
    30    19    20   ar
    31    20    21   ar
    32    21    22   ar
    33    22    25    1
    34    25    26    3
    35    13    14   ar
    36    14    15   ar
    37    15     2    1
    38    10     5   ar
    39    15    11   ar
    40    34    29   ar
    41    22    17   ar
    42    14    16    1
