@<TRIPOS>MOLECULE
*****
 46 51 0 0 0
SMALL
GASTEIGER

@<TRIPOS>ATOM
      1 C          58.8497   90.2551    5.8354 C.ar    1  UNL1        0.0702
      2 C          57.7131   90.9172    5.3446 C.ar    1  UNL1        0.0191
      3 C          57.8313   91.8261    4.2921 C.ar    1  UNL1        0.0356
      4 C          59.0959   92.0909    3.7436 C.ar    1  UNL1        0.1318
      5 N          60.1845   91.4385    4.2382 N.ar    1  UNL1       -0.2279
      6 C          60.0933   90.5491    5.2618 C.ar    1  UNL1        0.1149
      7 N          59.2536   93.0067    2.6436 N.pl3   1  UNL1       -0.2932
      8 C          58.4457   92.8818    1.4221 C.3     1  UNL1        0.0923
      9 C          59.3240   92.9868    0.1610 C.3     1  UNL1        0.0252
     10 C          60.6192   93.8110    0.3779 C.3     1  UNL1        0.0472
     11 C          60.4111   94.8729    1.4736 C.3     1  UNL1        0.0252
     12 C          60.1099   94.1896    2.8172 C.3     1  UNL1        0.0923
     13 C          61.1236   94.4576   -0.9270 C.3     1  UNL1        0.2054
     14 O          62.4822   94.0918   -1.1836 O.3     1  UNL1       -0.4755
     15 C          63.4700   93.8188   -0.2227 C.ar    1  UNL1        0.1388
     16 C          64.7521   94.3986   -0.2553 C.ar    1  UNL1        0.0369
     17 C          65.6860   94.0926    0.7359 C.ar    1  UNL1        0.0033
     18 C          65.3553   93.2130    1.7679 C.ar    1  UNL1        0.0066
     19 C          64.0804   92.6241    1.8205 C.ar    1  UNL1        0.0785
     20 C          63.1409   92.9474    0.8240 C.ar    1  UNL1        0.0433
     21 C          63.7382   91.6969    2.9266 C.2     1  UNL1        0.3381
     22 O          62.7161   91.9143    3.6305 O.2     1  UNL1       -0.2451
     23 O          64.5286   90.5881    3.2270 O.3     1  UNL1       -0.4771
     24 H          65.4159   90.4118    2.7740 H       1  UNL1        0.2954
     25 C          59.8057   89.1685    7.9161 C.2     1  UNL1        0.2839
     26 O          60.5932   90.1209    8.1641 O.2     1  UNL1       -0.2665
     27 N          58.7719   89.3300    6.9335 N.am    1  UNL1       -0.2766
     28 H          57.8702   88.8258    7.0884 H       1  UNL1        0.1553
     29 C          60.5660   84.2261   11.2508 C.ar    1  UNL1        0.0002
     30 C          59.3413   83.9052   10.6045 C.ar    1  UNL1        0.0031
     31 C          58.7487   84.8012    9.6975 C.ar    1  UNL1        0.0375
     32 C          59.3965   86.0074    9.4540 C.ar    1  UNL1        0.1452
     33 O          59.0140   86.9690    8.6499 O.2     1  UNL1       -0.4492
     34 C          59.9177   87.9316    8.7090 C.ar    1  UNL1        0.1946
     35 C          60.9272   87.5852    9.6159 C.ar    1  UNL1        0.0202
     36 C          62.1301   88.3817   10.0225 C.3     1  UNL1        0.0345
     37 C          60.5750   86.3297   10.0700 C.ar    1  UNL1        0.0337
     38 C          61.1919   85.4654   10.9747 C.ar    1  UNL1        0.0028
     39 C          62.3608   81.4592   14.0231 C.ar    1  UNL1        0.1387
     40 C          63.0878   82.5524   13.5406 C.ar    1  UNL1        0.0369
     41 C          62.5082   83.4517   12.6416 C.ar    1  UNL1        0.0031
     42 C          61.1835   83.2714   12.2059 C.ar    1  UNL1        0.0002
     43 C          60.4532   82.1720   12.6912 C.ar    1  UNL1        0.0031
     44 C          61.0343   81.2739   13.5914 C.ar    1  UNL1        0.0369
     45 C          64.1450   80.9133   15.6871 C.3     1  UNL1        0.2525
     46 O          62.9882   80.5861   14.9240 O.3     1  UNL1       -0.4714
@<TRIPOS>BOND
     1    45    46    1
     2    46    39    1
     3    39    40   ar
     4    40    41   ar
     5    41    42   ar
     6    42    29    1
     7    29    30   ar
     8    30    31   ar
     9    31    32   ar
    10    32    33   ar
    11    33    34   ar
    12    34    25    1
    13    25    26    2
    14    25    27   am
    15    27     1    1
    16     1     2   ar
    17     2     3   ar
    18     3     4   ar
    19     4     7    1
    20     7     8    1
    21     8     9    1
    22     9    10    1
    23    10    13    1
    24    13    14    1
    25    14    15    1
    26    15    16   ar
    27    16    17   ar
    28    17    18   ar
    29    18    19   ar
    30    19    21    1
    31    21    22    2
    32    21    23    1
    33    19    20   ar
    34    10    11    1
    35    11    12    1
    36     4     5   ar
    37     5     6   ar
    38    34    35   ar
    39    35    36    1
    40    35    37   ar
    41    37    38   ar
    42    42    43   ar
    43    43    44   ar
    44    44    39   ar
    45    38    29   ar
    46    37    32   ar
    47     6     1   ar
    48    12     7    1
    49    20    15   ar
    50    27    28    1
    51    23    24    1
@<TRIPOS>MOLECULE
*****
 46 51 0 0 0
SMALL
GASTEIGER

@<TRIPOS>ATOM
      1 C          59.1264   90.5258    5.9559 C.ar    1  UNL1        0.0702
      2 C          57.9579   91.1034    5.4343 C.ar    1  UNL1        0.0191
      3 C          58.0198   91.8969    4.2878 C.ar    1  UNL1        0.0356
      4 C          59.2599   92.1323    3.6737 C.ar    1  UNL1        0.1318
      5 N          60.3803   91.5636    4.1996 N.ar    1  UNL1       -0.2279
      6 C          60.3440   90.7870    5.3145 C.ar    1  UNL1        0.1149
      7 N          59.3595   92.9284    2.4780 N.pl3   1  UNL1       -0.2932
      8 C          58.5383   92.6374    1.2942 C.3     1  UNL1        0.0923
      9 C          59.3908   92.6409    0.0113 C.3     1  UNL1        0.0252
     10 C          60.6520   93.5373    0.1108 C.3     1  UNL1        0.0472
     11 C          60.4152   94.7027    1.0891 C.3     1  UNL1        0.0252
     12 C          60.1658   94.1580    2.5047 C.3     1  UNL1        0.0923
     13 C          61.1065   94.0582   -1.2667 C.3     1  UNL1        0.2054
     14 O          62.5175   93.8935   -1.4322 O.3     1  UNL1       -0.4755
     15 C          63.4698   93.7640   -0.4076 C.ar    1  UNL1        0.1388
     16 C          64.6862   94.4721   -0.3977 C.ar    1  UNL1        0.0369
     17 C          65.5865   94.3054    0.6558 C.ar    1  UNL1        0.0033
     18 C          65.2867   93.4391    1.7083 C.ar    1  UNL1        0.0066
     19 C          64.0772   92.7237    1.7192 C.ar    1  UNL1        0.0785
     20 C          63.1699   92.9067    0.6593 C.ar    1  UNL1        0.0433
     21 C          63.7664   91.8119    2.8471 C.2     1  UNL1        0.3381
     22 O          62.8175   92.0863    3.6292 O.2     1  UNL1       -0.2451
     23 O          64.5089   90.6553    3.0830 O.3     1  UNL1       -0.4771
     24 H          65.3457   90.4284    2.5617 H       1  UNL1        0.2954
     25 C          60.2290   89.5761    8.0310 C.2     1  UNL1        0.2839
     26 O          61.1027   90.4824    8.0943 O.2     1  UNL1       -0.2665
     27 N          59.1068   89.7222    7.1481 N.am    1  UNL1       -0.2766
     28 H          58.1951   89.3091    7.4473 H       1  UNL1        0.1553
     29 C          60.4506   84.7012   11.5400 C.ar    1  UNL1        0.0002
     30 C          61.3426   85.5558   12.2432 C.ar    1  UNL1        0.0031
     31 C          61.6177   86.8527   11.7751 C.ar    1  UNL1        0.0375
     32 C          60.9917   87.2711   10.6060 C.ar    1  UNL1        0.1452
     33 O          61.1115   88.4320   10.0097 O.2     1  UNL1       -0.4492
     34 C          60.3425   88.4180    8.9349 C.ar    1  UNL1        0.1946
     35 C          59.7085   87.1747    8.8163 C.ar    1  UNL1        0.0202
     36 C          58.7764   86.7010    7.7422 C.3     1  UNL1        0.0345
     37 C          60.1319   86.4587    9.9183 C.ar    1  UNL1        0.0337
     38 C          59.8351   85.1668   10.3532 C.ar    1  UNL1        0.0028
     39 C          59.6297   80.7342   13.0067 C.ar    1  UNL1        0.1387
     40 C          60.8556   81.3511   13.2769 C.ar    1  UNL1        0.0369
     41 C          61.1246   82.6379   12.8027 C.ar    1  UNL1        0.0031
     42 C          60.1665   83.3338   12.0444 C.ar    1  UNL1        0.0002
     43 C          58.9343   82.7130   11.7731 C.ar    1  UNL1        0.0031
     44 C          58.6666   81.4260   12.2491 C.ar    1  UNL1        0.0369
     45 C          58.6790   79.1528   14.6936 C.3     1  UNL1        0.2525
     46 O          59.4090   79.4420   13.5057 O.3     1  UNL1       -0.4714
@<TRIPOS>BOND
     1    45    46    1
     2    46    39    1
     3    39    40   ar
     4    40    41   ar
     5    41    42   ar
     6    42    29    1
     7    29    30   ar
     8    30    31   ar
     9    31    32   ar
    10    32    33   ar
    11    33    34   ar
    12    34    25    1
    13    25    26    2
    14    25    27   am
    15    27     1    1
    16     1     2   ar
    17     2     3   ar
    18     3     4   ar
    19     4     7    1
    20     7     8    1
    21     8     9    1
    22     9    10    1
    23    10    13    1
    24    13    14    1
    25    14    15    1
    26    15    16   ar
    27    16    17   ar
    28    17    18   ar
    29    18    19   ar
    30    19    21    1
    31    21    22    2
    32    21    23    1
    33    19    20   ar
    34    10    11    1
    35    11    12    1
    36     4     5   ar
    37     5     6   ar
    38    34    35   ar
    39    35    36    1
    40    35    37   ar
    41    37    38   ar
    42    42    43   ar
    43    43    44   ar
    44    44    39   ar
    45    38    29   ar
    46    37    32   ar
    47     6     1   ar
    48    12     7    1
    49    20    15   ar
    50    27    28    1
    51    23    24    1
@<TRIPOS>MOLECULE
*****
 46 51 0 0 0
SMALL
GASTEIGER

@<TRIPOS>ATOM
      1 C          59.8587   90.3153    5.8621 C.ar    1  UNL1        0.0702
      2 C          58.5885   90.8082    5.5234 C.ar    1  UNL1        0.0191
      3 C          58.4378   91.6677    4.4342 C.ar    1  UNL1        0.0356
      4 C          59.5665   92.0541    3.6947 C.ar    1  UNL1        0.1318
      5 N          60.7890   91.5653    4.0439 N.ar    1  UNL1       -0.2279
      6 C          60.9596   90.7268    5.0999 C.ar    1  UNL1        0.1149
      7 N          59.4468   92.9227    2.5524 N.pl3   1  UNL1       -0.2932
      8 C          58.5483   92.5984    1.4353 C.3     1  UNL1        0.0923
      9 C          59.2573   92.7811    0.0800 C.3     1  UNL1        0.0252
     10 C          60.4064   93.8213    0.1199 C.3     1  UNL1        0.0472
     11 C          60.1349   94.8907    1.1941 C.3     1  UNL1        0.0252
     12 C          60.0995   94.2401    2.5863 C.3     1  UNL1        0.0923
     13 C          60.6511   94.4719   -1.2556 C.3     1  UNL1        0.2054
     14 O          62.0490   94.6713   -1.4823 O.3     1  UNL1       -0.4755
     15 C          63.0954   94.3151   -0.6153 C.ar    1  UNL1        0.1388
     16 C          64.3952   94.8441   -0.7247 C.ar    1  UNL1        0.0369
     17 C          65.3888   94.4557    0.1753 C.ar    1  UNL1        0.0033
     18 C          65.1011   93.5436    1.1919 C.ar    1  UNL1        0.0066
     19 C          63.8097   93.0044    1.3203 C.ar    1  UNL1        0.0785
     20 C          62.8108   93.4105    0.4161 C.ar    1  UNL1        0.0433
     21 C          63.5142   92.0419    2.4094 C.2     1  UNL1        0.3381
     22 O          64.0073   92.2234    3.5546 O.2     1  UNL1       -0.2451
     23 O          62.7119   90.9204    2.2014 O.3     1  UNL1       -0.4771
     24 H          62.3704   90.6561    1.2865 H       1  UNL1        0.2954
     25 C          60.1465   89.9087    8.3472 C.2     1  UNL1        0.2839
     26 O          59.5903   90.9889    8.6826 O.2     1  UNL1       -0.2665
     27 N          60.0577   89.4471    6.9910 N.am    1  UNL1       -0.2766
     28 H          60.0276   88.4156    6.8289 H       1  UNL1        0.1553
     29 C          62.6594   86.3509   12.4889 C.ar    1  UNL1        0.0002
     30 C          63.2536   87.5950   12.8347 C.ar    1  UNL1        0.0031
     31 C          62.9554   88.7622   12.1101 C.ar    1  UNL1        0.0375
     32 C          62.0639   88.6612   11.0477 C.ar    1  UNL1        0.1452
     33 O          61.6565   89.6223   10.2553 O.2     1  UNL1       -0.4492
     34 C          60.8089   89.1003    9.3860 C.ar    1  UNL1        0.1946
     35 C          60.6773   87.7245    9.6129 C.ar    1  UNL1        0.0202
     36 C          59.8526   86.7282    8.8552 C.3     1  UNL1        0.0345
     37 C          61.4855   87.4700   10.7031 C.ar    1  UNL1        0.0337
     38 C          61.7574   86.2922   11.3995 C.ar    1  UNL1        0.0028
     39 C          63.5959   82.7925   14.7302 C.ar    1  UNL1        0.1387
     40 C          64.2740   83.0813   13.5414 C.ar    1  UNL1        0.0369
     41 C          63.9725   84.2350   12.8125 C.ar    1  UNL1        0.0031
     42 C          62.9808   85.1246   13.2622 C.ar    1  UNL1        0.0002
     43 C          62.2995   84.8334   14.4573 C.ar    1  UNL1        0.0031
     44 C          62.6030   83.6794   15.1858 C.ar    1  UNL1        0.0369
     45 C          63.5607   80.3095   15.0200 C.3     1  UNL1        0.2525
     46 O          63.9361   81.6221   15.4246 O.3     1  UNL1       -0.4714
@<TRIPOS>BOND
     1    45    46    1
     2    46    39    1
     3    39    40   ar
     4    40    41   ar
     5    41    42   ar
     6    42    29    1
     7    29    30   ar
     8    30    31   ar
     9    31    32   ar
    10    32    33   ar
    11    33    34   ar
    12    34    25    1
    13    25    26    2
    14    25    27   am
    15    27     1    1
    16     1     2   ar
    17     2     3   ar
    18     3     4   ar
    19     4     7    1
    20     7     8    1
    21     8     9    1
    22     9    10    1
    23    10    13    1
    24    13    14    1
    25    14    15    1
    26    15    16   ar
    27    16    17   ar
    28    17    18   ar
    29    18    19   ar
    30    19    21    1
    31    21    22    2
    32    21    23    1
    33    19    20   ar
    34    10    11    1
    35    11    12    1
    36     4     5   ar
    37     5     6   ar
    38    34    35   ar
    39    35    36    1
    40    35    37   ar
    41    37    38   ar
    42    42    43   ar
    43    43    44   ar
    44    44    39   ar
    45    38    29   ar
    46    37    32   ar
    47     6     1   ar
    48    12     7    1
    49    20    15   ar
    50    27    28    1
    51    23    24    1
@<TRIPOS>MOLECULE
*****
 46 51 0 0 0
SMALL
GASTEIGER

@<TRIPOS>ATOM
      1 C          61.2293   89.1410   10.3328 C.ar    1  UNL1        0.0702
      2 C          61.7489   89.7297   11.4966 C.ar    1  UNL1        0.0191
      3 C          62.1373   88.9306   12.5729 C.ar    1  UNL1        0.0356
      4 C          61.9835   87.5376   12.4931 C.ar    1  UNL1        0.1318
      5 N          61.4743   86.9895   11.3549 N.ar    1  UNL1       -0.2279
      6 C          61.0901   87.7476   10.2943 C.ar    1  UNL1        0.1149
      7 N          62.3922   86.6801   13.5754 N.pl3   1  UNL1       -0.2932
      8 C          63.8082   86.3602   13.8052 C.3     1  UNL1        0.0923
      9 C          64.0076   84.8496   14.0317 C.3     1  UNL1        0.0252
     10 C          62.7550   84.1415   14.6093 C.3     1  UNL1        0.0472
     11 C          61.9187   85.1198   15.4549 C.3     1  UNL1        0.0252
     12 C          61.3936   86.2623   14.5708 C.3     1  UNL1        0.0923
     13 C          63.1198   82.8838   15.4220 C.3     1  UNL1        0.2054
     14 O          63.0844   81.7168   14.5960 O.3     1  UNL1       -0.4755
     15 C          62.0447   81.3359   13.7316 C.ar    1  UNL1        0.1388
     16 C          60.7326   81.0846   14.1748 C.ar    1  UNL1        0.0369
     17 C          59.7418   80.7183   13.2624 C.ar    1  UNL1        0.0033
     18 C          60.0430   80.6018   11.9045 C.ar    1  UNL1        0.0066
     19 C          61.3461   80.8497   11.4403 C.ar    1  UNL1        0.0785
     20 C          62.3360   81.2302   12.3652 C.ar    1  UNL1        0.0433
     21 C          61.6520   80.7301    9.9938 C.2     1  UNL1        0.3381
     22 O          61.7550   81.7693    9.2890 O.2     1  UNL1       -0.2451
     23 O          61.8155   79.4900    9.3774 O.3     1  UNL1       -0.4771
     24 H          61.6438   78.6157    9.8567 H       1  UNL1        0.2954
     25 C          60.2154   89.3791    8.0222 C.2     1  UNL1        0.2839
     26 O          59.6163   88.2711    8.0695 O.2     1  UNL1       -0.2665
     27 N          60.7964   89.9319    9.2126 N.am    1  UNL1       -0.2766
     28 H          60.8041   90.9716    9.3129 H       1  UNL1        0.1553
     29 C          59.9472   92.3621    2.8110 C.ar    1  UNL1        0.0002
     30 C          61.3539   92.3387    3.0132 C.ar    1  UNL1        0.0031
     31 C          61.9085   91.7255    4.1502 C.ar    1  UNL1        0.0375
     32 C          61.0399   91.1448    5.0679 C.ar    1  UNL1        0.1452
     33 O          61.3528   90.5277    6.1809 O.2     1  UNL1       -0.4492
     34 C          60.2309   90.1225    6.7500 C.ar    1  UNL1        0.1946
     35 C          59.1321   90.5175    5.9764 C.ar    1  UNL1        0.0202
     36 C          57.6737   90.3042    6.2492 C.3     1  UNL1        0.0345
     37 C          59.6838   91.1610    4.8865 C.ar    1  UNL1        0.0337
     38 C          59.0986   91.7596    3.7706 C.ar    1  UNL1        0.0028
     39 C          58.2764   94.2437   -0.6862 C.ar    1  UNL1        0.1387
     40 C          57.8324   92.9814   -0.2791 C.ar    1  UNL1        0.0369
     41 C          58.3722   92.3688    0.8551 C.ar    1  UNL1        0.0031
     42 C          59.3726   93.0116    1.6056 C.ar    1  UNL1        0.0002
     43 C          59.8186   94.2805    1.1955 C.ar    1  UNL1        0.0031
     44 C          59.2768   94.8924    0.0612 C.ar    1  UNL1        0.0369
     45 C          56.3016   94.8908   -2.0760 C.3     1  UNL1        0.2525
     46 O          57.7022   94.8154   -1.8313 O.3     1  UNL1       -0.4714
@<TRIPOS>BOND
     1    45    46    1
     2    46    39    1
     3    39    40   ar
     4    40    41   ar
     5    41    42   ar
     6    42    29    1
     7    29    30   ar
     8    30    31   ar
     9    31    32   ar
    10    32    33   ar
    11    33    34   ar
    12    34    25    1
    13    25    26    2
    14    25    27   am
    15    27     1    1
    16     1     2   ar
    17     2     3   ar
    18     3     4   ar
    19     4     7    1
    20     7     8    1
    21     8     9    1
    22     9    10    1
    23    10    13    1
    24    13    14    1
    25    14    15    1
    26    15    16   ar
    27    16    17   ar
    28    17    18   ar
    29    18    19   ar
    30    19    21    1
    31    21    22    2
    32    21    23    1
    33    19    20   ar
    34    10    11    1
    35    11    12    1
    36     4     5   ar
    37     5     6   ar
    38    34    35   ar
    39    35    36    1
    40    35    37   ar
    41    37    38   ar
    42    42    43   ar
    43    43    44   ar
    44    44    39   ar
    45    38    29   ar
    46    37    32   ar
    47     6     1   ar
    48    12     7    1
    49    20    15   ar
    50    27    28    1
    51    23    24    1
