@<TRIPOS>MOLECULE
*****
 53 59 0 0 0
SMALL
GASTEIGER

@<TRIPOS>ATOM
      1 C          60.8691   87.1628   10.6821 C.ar    1  UNL1        0.0487
      2 C          62.0302   87.3392   11.4501 C.ar    1  UNL1        0.0176
      3 C          62.0683   86.9291   12.7859 C.ar    1  UNL1        0.0382
      4 C          60.9356   86.3366   13.3810 C.ar    1  UNL1        0.1388
      5 C          59.7785   86.1669   12.6117 C.ar    1  UNL1        0.0382
      6 C          59.7411   86.5768   11.2766 C.ar    1  UNL1        0.0176
      7 N          60.2793   89.0910    7.0408 N.pl3   1  UNL1       -0.3034
      8 C          61.2759   89.6112    7.9842 C.3     1  UNL1        0.1123
      9 C          61.8952   88.4570    8.7691 C.3     1  UNL1        0.1129
     10 N          60.8336   87.5954    9.3081 N.pl3   1  UNL1       -0.2968
     11 C          59.8094   87.0821    8.3861 C.3     1  UNL1        0.1503
     12 BR         60.5834   85.7483    7.1991 Br      1  UNL1       -0.0577
     13 C          59.2109   88.2359    7.5727 C.3     1  UNL1        0.1225
     14 C          60.0510   90.6326    3.0744 C.ar    1  UNL1        0.0699
     15 C          58.9237   90.6548    3.9130 C.ar    1  UNL1        0.0190
     16 C          58.9962   90.1484    5.2136 C.ar    1  UNL1        0.0160
     17 C          60.2001   89.6183    5.7034 C.ar    1  UNL1        0.0481
     18 C          61.3286   89.6009    4.8704 C.ar    1  UNL1        0.0160
     19 C          61.2564   90.1049    3.5689 C.ar    1  UNL1        0.0190
     20 N          59.8494   92.5211   -0.0195 N.ar    1  UNL1       -0.2024
     21 N          59.8829   91.2853   -0.4953 N.ar    1  UNL1       -0.1442
     22 C          59.9590   90.4650    0.5752 C.ar    1  UNL1        0.2073
     23 N          59.9704   91.1593    1.7357 N.ar    1  UNL1       -0.2398
     24 C          59.9074   92.4412    1.3246 C.ar    1  UNL1        0.3522
     25 O          59.9365   93.4391    2.0943 O.2     1  UNL1       -0.2444
     26 C          59.7861   93.7191   -0.8651 C.3     1  UNL1        0.1099
     27 C          61.0600   93.8358   -1.7131 C.3     1  UNL1        0.0265
     28 C          57.3023   93.1218   -0.9760 C.3     1  UNL1        0.0021
     29 C          58.5047   93.6969   -1.7245 C.3     1  UNL1        0.0245
     30 O          60.9013   85.8968   14.7163 O.3     1  UNL1       -0.4727
     31 C          61.7773   84.9481   15.3300 C.3     1  UNL1        0.2374
     32 C          61.1976   83.5269   15.2525 C.3     1  UNL1        0.1909
     33 C          62.2381   82.4510   15.1285 C.3     1  UNL1        0.1783
     34 O          62.3453   82.1902   13.7685 O.3     1  UNL1       -0.3267
     35 C          61.1063   82.5781   13.2054 C.3     1  UNL1        0.2296
     36 O          60.4110   83.4189   14.1065 O.3     1  UNL1       -0.3255
     37 C          60.2871   81.3223   12.8798 C.ar    1  UNL1        0.0409
     38 C          60.9079   80.0635   13.0399 C.ar    1  UNL1        0.0022
     39 C          60.2403   78.8820   12.7169 C.ar    1  UNL1        0.0113
     40 C          58.9411   78.9269   12.2173 C.ar    1  UNL1        0.0585
     41 CL         58.1086   77.4404   11.8007 Cl      1  UNL1       -0.0822
     42 C          58.3093   80.1563   12.0340 C.ar    1  UNL1        0.0226
     43 C          58.9661   81.3536   12.3467 C.ar    1  UNL1        0.0591
     44 CL         58.0765   82.8374   12.0110 Cl      1  UNL1       -0.0824
     45 C          61.4125   83.3642   11.9120 C.3     1  UNL1        0.1679
     46 N          62.4276   82.7015   11.0859 N.ar    1  UNL1       -0.3084
     47 C          63.7568   82.7844   11.2702 C.ar    1  UNL1        0.0979
     48 C          64.3731   82.0002   10.3238 C.ar    1  UNL1        0.1188
     49 N          63.4411   81.4155    9.5461 N.ar    1  UNL1       -0.2293
     50 C          62.2627   81.8729   10.0261 C.ar    1  UNL1        0.1201
     51 C          60.9292   81.3975    9.4975 C.3     1  UNL1        0.0569
     52 C          60.9806   79.8918    9.2295 C.3     1  UNL1        0.0079
     53 C          60.5338   82.1624    8.2291 C.3     1  UNL1        0.0079
@<TRIPOS>BOND
     1    28    29    1
     2    29    26    1
     3    26    27    1
     4    26    20    1
     5    20    21   ar
     6    21    22   ar
     7    22    23   ar
     8    23    14    1
     9    14    15   ar
    10    15    16   ar
    11    16    17   ar
    12    17     7    1
    13     7     8    1
    14     8     9    1
    15     9    10    1
    16    10     1    1
    17     1     2   ar
    18     2     3   ar
    19     3     4   ar
    20     4    30    1
    21    30    31    1
    22    31    32    1
    23    32    33    1
    24    33    34    1
    25    34    35    1
    26    35    45    1
    27    45    46    1
    28    46    47   ar
    29    47    48   ar
    30    48    49   ar
    31    49    50   ar
    32    50    51    1
    33    51    52    1
    34    51    53    1
    35    35    37    1
    36    37    38   ar
    37    38    39   ar
    38    39    40   ar
    39    40    41    1
    40    40    42   ar
    41    42    43   ar
    42    43    44    1
    43    35    36    1
    44     4     5   ar
    45     5     6   ar
    46    10    11    1
    47    11    12    1
    48    11    13    1
    49    17    18   ar
    50    18    19   ar
    51    23    24   ar
    52    24    25    2
    53    24    20   ar
    54    19    14   ar
    55    13     7    1
    56     6     1   ar
    57    36    32    1
    58    50    46   ar
    59    43    37   ar
@<TRIPOS>MOLECULE
*****
 53 59 0 0 0
SMALL
GASTEIGER

@<TRIPOS>ATOM
      1 C          60.5143   86.1081   10.4072 C.ar    1  UNL1        0.0487
      2 C          61.6231   86.1347   11.2668 C.ar    1  UNL1        0.0176
      3 C          61.5858   85.4702   12.4962 C.ar    1  UNL1        0.0382
      4 C          60.4285   84.7679   12.8907 C.ar    1  UNL1        0.1388
      5 C          59.3237   84.7482   12.0314 C.ar    1  UNL1        0.0382
      6 C          59.3616   85.4123   10.8027 C.ar    1  UNL1        0.0176
      7 N          60.0119   88.6364    7.1391 N.pl3   1  UNL1       -0.3034
      8 C          60.8041   89.0865    8.2897 C.3     1  UNL1        0.1123
      9 C          61.5151   87.8937    8.9249 C.3     1  UNL1        0.1129
     10 N          60.5561   86.8020    9.1451 N.pl3   1  UNL1       -0.2968
     11 C          59.7335   86.3504    8.0129 C.3     1  UNL1        0.1503
     12 BR         60.8364   85.4064    6.7170 Br      1  UNL1       -0.0577
     13 C          59.0460   87.5515    7.3527 C.3     1  UNL1        0.1225
     14 C          59.9568   90.9045    3.5317 C.ar    1  UNL1        0.0699
     15 C          58.8171   90.8427    4.3516 C.ar    1  UNL1        0.0190
     16 C          58.8328   90.0982    5.5342 C.ar    1  UNL1        0.0160
     17 C          59.9915   89.4086    5.9242 C.ar    1  UNL1        0.0481
     18 C          61.1325   89.4739    5.1108 C.ar    1  UNL1        0.0160
     19 C          61.1170   90.2163    3.9268 C.ar    1  UNL1        0.0190
     20 N          59.8982   92.2933    0.1780 N.ar    1  UNL1       -0.2024
     21 N          59.8782   93.4052    0.8979 N.ar    1  UNL1       -0.1442
     22 C          59.8981   93.0229    2.1933 C.ar    1  UNL1        0.2073
     23 N          59.9350   91.6765    2.3153 N.ar    1  UNL1       -0.2398
     24 C          59.9272   91.2541    1.0356 C.ar    1  UNL1        0.3522
     25 O          59.9114   90.0435    0.6845 O.2     1  UNL1       -0.2444
     26 C          59.8663   92.2711   -1.2891 C.3     1  UNL1        0.1099
     27 C          58.5799   92.9339   -1.8004 C.3     1  UNL1        0.0265
     28 C          62.4126   92.1688   -1.4996 C.3     1  UNL1        0.0021
     29 C          61.1384   92.9328   -1.8592 C.3     1  UNL1        0.0245
     30 O          60.3195   84.0743   14.1091 O.3     1  UNL1       -0.4727
     31 C          61.3877   83.5092   14.8734 C.3     1  UNL1        0.2374
     32 C          62.0220   82.3157   14.1419 C.3     1  UNL1        0.1909
     33 C          62.6224   82.6667   12.8108 C.3     1  UNL1        0.1783
     34 O          61.6424   82.3753   11.8707 O.3     1  UNL1       -0.3267
     35 C          60.8174   81.3936   12.4692 C.3     1  UNL1        0.2296
     36 O          61.0323   81.3727   13.8676 O.3     1  UNL1       -0.3255
     37 C          61.1274   80.0273   11.8436 C.ar    1  UNL1        0.0409
     38 C          60.8943   78.8716   12.6219 C.ar    1  UNL1        0.0022
     39 C          61.1984   77.5997   12.1362 C.ar    1  UNL1        0.0113
     40 C          61.7512   77.4494   10.8668 C.ar    1  UNL1        0.0585
     41 CL         62.1437   75.8499   10.2636 Cl      1  UNL1       -0.0822
     42 C          62.0067   78.5738   10.0827 C.ar    1  UNL1        0.0226
     43 C          61.7140   79.8595   10.5561 C.ar    1  UNL1        0.0591
     44 CL         62.1418   81.1953    9.4891 Cl      1  UNL1       -0.0824
     45 C          59.3512   81.7879   12.1874 C.3     1  UNL1        0.1679
     46 N          58.6869   80.8458   11.2801 N.ar    1  UNL1       -0.3084
     47 C          58.2075   79.6384   11.6262 C.ar    1  UNL1        0.0979
     48 C          57.6256   79.0713   10.5170 C.ar    1  UNL1        0.1188
     49 N          57.7274   79.9163    9.4725 N.ar    1  UNL1       -0.2293
     50 C          58.3922   80.9860    9.9646 C.ar    1  UNL1        0.1201
     51 C          58.6511   82.2300    9.1467 C.3     1  UNL1        0.0569
     52 C          57.3668   83.0532    9.0277 C.3     1  UNL1        0.0079
     53 C          59.1996   81.8746    7.7599 C.3     1  UNL1        0.0079
@<TRIPOS>BOND
     1    28    29    1
     2    29    26    1
     3    26    27    1
     4    26    20    1
     5    20    21   ar
     6    21    22   ar
     7    22    23   ar
     8    23    14    1
     9    14    15   ar
    10    15    16   ar
    11    16    17   ar
    12    17     7    1
    13     7     8    1
    14     8     9    1
    15     9    10    1
    16    10     1    1
    17     1     2   ar
    18     2     3   ar
    19     3     4   ar
    20     4    30    1
    21    30    31    1
    22    31    32    1
    23    32    33    1
    24    33    34    1
    25    34    35    1
    26    35    45    1
    27    45    46    1
    28    46    47   ar
    29    47    48   ar
    30    48    49   ar
    31    49    50   ar
    32    50    51    1
    33    51    52    1
    34    51    53    1
    35    35    37    1
    36    37    38   ar
    37    38    39   ar
    38    39    40   ar
    39    40    41    1
    40    40    42   ar
    41    42    43   ar
    42    43    44    1
    43    35    36    1
    44     4     5   ar
    45     5     6   ar
    46    10    11    1
    47    11    12    1
    48    11    13    1
    49    17    18   ar
    50    18    19   ar
    51    23    24   ar
    52    24    25    2
    53    24    20   ar
    54    19    14   ar
    55    13     7    1
    56     6     1   ar
    57    36    32    1
    58    50    46   ar
    59    43    37   ar
@<TRIPOS>MOLECULE
*****
 53 59 0 0 0
SMALL
GASTEIGER

@<TRIPOS>ATOM
      1 C          61.2607   86.7184   11.7179 C.ar    1  UNL1        0.0487
      2 C          60.1561   86.4112   12.5269 C.ar    1  UNL1        0.0176
      3 C          60.3132   85.6387   13.6814 C.ar    1  UNL1        0.0382
      4 C          61.5860   85.1530   14.0448 C.ar    1  UNL1        0.1388
      5 C          62.6839   85.4587   13.2319 C.ar    1  UNL1        0.0382
      6 C          62.5263   86.2310   12.0783 C.ar    1  UNL1        0.0176
      7 N          60.5159   88.2193    7.9077 N.pl3   1  UNL1       -0.3034
      8 C          59.3925   87.9382    8.8091 C.3     1  UNL1        0.1123
      9 C          59.8160   88.1880   10.2548 C.3     1  UNL1        0.1129
     10 N          61.0906   87.5081   10.5247 N.pl3   1  UNL1       -0.2968
     11 C          62.2239   87.7551    9.6206 C.3     1  UNL1        0.1503
     12 BR         62.8933   89.5661    9.8635 Br      1  UNL1       -0.0577
     13 C          61.7906   87.5380    8.1658 C.3     1  UNL1        0.1225
     14 C          59.8555   90.3118    4.2544 C.ar    1  UNL1        0.0699
     15 C          61.1598   89.9812    4.6600 C.ar    1  UNL1        0.0190
     16 C          61.3784   89.2964    5.8585 C.ar    1  UNL1        0.0160
     17 C          60.2963   88.9209    6.6698 C.ar    1  UNL1        0.0481
     18 C          58.9929   89.2440    6.2639 C.ar    1  UNL1        0.0160
     19 C          58.7735   89.9309    5.0667 C.ar    1  UNL1        0.0190
     20 N          59.9164   92.2165    1.1645 N.ar    1  UNL1       -0.2024
     21 N          58.6442   91.8485    1.1937 N.ar    1  UNL1       -0.1442
     22 C          58.4829   91.1178    2.3183 C.ar    1  UNL1        0.2073
     23 N          59.6368   91.0151    3.0160 N.ar    1  UNL1       -0.2398
     24 C          60.5122   91.7082    2.2613 C.ar    1  UNL1        0.3522
     25 O          61.7381   91.8346    2.5261 O.2     1  UNL1       -0.2444
     26 C          60.5099   93.0145    0.0851 C.3     1  UNL1        0.1099
     27 C          61.6017   92.2075   -0.6306 C.3     1  UNL1        0.0265
     28 C          59.1209   92.5083   -2.0013 C.3     1  UNL1        0.0021
     29 C          59.4106   93.5059   -0.8798 C.3     1  UNL1        0.0245
     30 O          61.8207   84.3741   15.1919 O.3     1  UNL1       -0.4727
     31 C          62.6317   83.2000   15.2807 C.3     1  UNL1        0.2374
     32 C          61.8356   81.9452   14.8885 C.3     1  UNL1        0.1909
     33 C          62.6922   80.7977   14.4356 C.3     1  UNL1        0.1783
     34 O          62.7247   80.8804   13.0495 O.3     1  UNL1       -0.3267
     35 C          61.5483   81.5746   12.6797 C.3     1  UNL1        0.2296
     36 O          61.0145   82.2487   13.8034 O.3     1  UNL1       -0.3255
     37 C          60.5356   80.5760   12.1039 C.ar    1  UNL1        0.0409
     38 C          59.3067   80.4104   12.7809 C.ar    1  UNL1        0.0022
     39 C          58.3589   79.4855   12.3426 C.ar    1  UNL1        0.0113
     40 C          58.6168   78.6961   11.2246 C.ar    1  UNL1        0.0585
     41 CL         57.4283   77.5254   10.6830 Cl      1  UNL1       -0.0822
     42 C          59.8280   78.8269   10.5461 C.ar    1  UNL1        0.0226
     43 C          60.7945   79.7458   10.9753 C.ar    1  UNL1        0.0591
     44 CL         62.3034   79.7671   10.0649 Cl      1  UNL1       -0.0824
     45 C          61.9423   82.6122   11.6060 C.3     1  UNL1        0.1679
     46 N          60.7840   83.0889   10.8423 N.ar    1  UNL1       -0.3084
     47 C          59.5944   83.4328   11.3659 C.ar    1  UNL1        0.0979
     48 C          58.7813   83.8621   10.3435 C.ar    1  UNL1        0.1188
     49 N          59.4521   83.7989    9.1767 N.ar    1  UNL1       -0.2293
     50 C          60.6679   83.3102    9.5101 C.ar    1  UNL1        0.1201
     51 C          61.7868   83.1574    8.5059 C.3     1  UNL1        0.0569
     52 C          62.8827   84.1883    8.7847 C.3     1  UNL1        0.0079
     53 C          61.2636   83.2944    7.0715 C.3     1  UNL1        0.0079
@<TRIPOS>BOND
     1    28    29    1
     2    29    26    1
     3    26    27    1
     4    26    20    1
     5    20    21   ar
     6    21    22   ar
     7    22    23   ar
     8    23    14    1
     9    14    15   ar
    10    15    16   ar
    11    16    17   ar
    12    17     7    1
    13     7     8    1
    14     8     9    1
    15     9    10    1
    16    10     1    1
    17     1     2   ar
    18     2     3   ar
    19     3     4   ar
    20     4    30    1
    21    30    31    1
    22    31    32    1
    23    32    33    1
    24    33    34    1
    25    34    35    1
    26    35    45    1
    27    45    46    1
    28    46    47   ar
    29    47    48   ar
    30    48    49   ar
    31    49    50   ar
    32    50    51    1
    33    51    52    1
    34    51    53    1
    35    35    37    1
    36    37    38   ar
    37    38    39   ar
    38    39    40   ar
    39    40    41    1
    40    40    42   ar
    41    42    43   ar
    42    43    44    1
    43    35    36    1
    44     4     5   ar
    45     5     6   ar
    46    10    11    1
    47    11    12    1
    48    11    13    1
    49    17    18   ar
    50    18    19   ar
    51    23    24   ar
    52    24    25    2
    53    24    20   ar
    54    19    14   ar
    55    13     7    1
    56     6     1   ar
    57    36    32    1
    58    50    46   ar
    59    43    37   ar
@<TRIPOS>MOLECULE
*****
 53 59 0 0 0
SMALL
GASTEIGER

@<TRIPOS>ATOM
      1 C          60.6671   86.8693   10.2324 C.ar    1  UNL1        0.0487
      2 C          59.4665   86.6549   10.9263 C.ar    1  UNL1        0.0176
      3 C          59.4760   86.0966   12.2079 C.ar    1  UNL1        0.0382
      4 C          60.6949   85.7362   12.8181 C.ar    1  UNL1        0.1388
      5 C          61.8894   85.9482   12.1198 C.ar    1  UNL1        0.0382
      6 C          61.8794   86.5064   10.8390 C.ar    1  UNL1        0.0176
      7 N          60.2049   89.1966    6.8125 N.pl3   1  UNL1       -0.3034
      8 C          61.2640   89.5230    7.7746 C.3     1  UNL1        0.1123
      9 C          61.7811   88.2427    8.4268 C.3     1  UNL1        0.1129
     10 N          60.6499   87.4374    8.9083 N.pl3   1  UNL1       -0.2968
     11 C          59.5644   87.1183    7.9689 C.3     1  UNL1        0.1503
     12 BR         60.1834   85.8410    6.6376 Br      1  UNL1       -0.0577
     13 C          59.0675   88.3990    7.2877 C.3     1  UNL1        0.1225
     14 C          60.0588   91.1385    3.0219 C.ar    1  UNL1        0.0699
     15 C          58.9557   91.1891    3.8910 C.ar    1  UNL1        0.0190
     16 C          59.0011   90.5516    5.1338 C.ar    1  UNL1        0.0160
     17 C          60.1541   89.8590    5.5353 C.ar    1  UNL1        0.0481
     18 C          61.2590   89.8124    4.6722 C.ar    1  UNL1        0.0160
     19 C          61.2136   90.4476    3.4282 C.ar    1  UNL1        0.0190
     20 N          59.3709   92.5247   -0.2621 N.ar    1  UNL1       -0.2024
     21 N          60.5417   93.0882   -0.0049 N.ar    1  UNL1       -0.1442
     22 C          60.9197   92.6464    1.2143 C.ar    1  UNL1        0.2073
     23 N          60.0066   91.8006    1.7433 N.ar    1  UNL1       -0.2398
     24 C          59.0495   91.7538    0.7956 C.ar    1  UNL1        0.3522
     25 O          57.9748   91.1031    0.8993 O.2     1  UNL1       -0.2444
     26 C          58.6034   92.7628   -1.4902 C.3     1  UNL1        0.1099
     27 C          58.0013   91.4468   -2.0013 C.3     1  UNL1        0.0265
     28 C          56.1472   93.4287   -1.7393 C.3     1  UNL1        0.0021
     29 C          57.5327   93.8469   -1.2470 C.3     1  UNL1        0.0245
     30 O          60.7823   85.1738   14.1041 O.3     1  UNL1       -0.4727
     31 C          61.7804   84.2661   14.5777 C.3     1  UNL1        0.2374
     32 C          61.3225   82.8074   14.4210 C.3     1  UNL1        0.1909
     33 C          62.4048   81.8765   13.9544 C.3     1  UNL1        0.1783
     34 O          62.2531   81.7883   12.5767 O.3     1  UNL1       -0.3267
     35 C          60.8962   82.0974   12.3202 C.3     1  UNL1        0.2296
     36 O          60.3301   82.7451   13.4437 O.3     1  UNL1       -0.3255
     37 C          60.1396   80.8038   11.9909 C.ar    1  UNL1        0.0409
     38 C          58.8952   80.5825   12.6217 C.ar    1  UNL1        0.0022
     39 C          58.1750   79.4072   12.4073 C.ar    1  UNL1        0.0113
     40 C          58.6822   78.4197   11.5665 C.ar    1  UNL1        0.0585
     41 CL         57.7801   76.9377   11.3083 Cl      1  UNL1       -0.0822
     42 C          59.9156   78.6042   10.9429 C.ar    1  UNL1        0.0226
     43 C          60.6561   79.7752   11.1512 C.ar    1  UNL1        0.0591
     44 CL         62.2243   79.8542   10.3509 Cl      1  UNL1       -0.0824
     45 C          60.8615   83.0571   11.1109 C.3     1  UNL1        0.1679
     46 N          59.5531   83.0682   10.4475 N.ar    1  UNL1       -0.3084
     47 C          58.4371   83.6364   10.9367 C.ar    1  UNL1        0.0979
     48 C          57.4299   83.4718   10.0152 C.ar    1  UNL1        0.1188
     49 N          57.9042   82.8090    8.9422 N.ar    1  UNL1       -0.2293
     50 C          59.2000   82.5636    9.2402 C.ar    1  UNL1        0.1201
     51 C          60.1494   81.9084    8.2640 C.3     1  UNL1        0.0569
     52 C          60.4586   82.8678    7.1127 C.3     1  UNL1        0.0079
     53 C          59.5732   80.5905    7.7336 C.3     1  UNL1        0.0079
@<TRIPOS>BOND
     1    28    29    1
     2    29    26    1
     3    26    27    1
     4    26    20    1
     5    20    21   ar
     6    21    22   ar
     7    22    23   ar
     8    23    14    1
     9    14    15   ar
    10    15    16   ar
    11    16    17   ar
    12    17     7    1
    13     7     8    1
    14     8     9    1
    15     9    10    1
    16    10     1    1
    17     1     2   ar
    18     2     3   ar
    19     3     4   ar
    20     4    30    1
    21    30    31    1
    22    31    32    1
    23    32    33    1
    24    33    34    1
    25    34    35    1
    26    35    45    1
    27    45    46    1
    28    46    47   ar
    29    47    48   ar
    30    48    49   ar
    31    49    50   ar
    32    50    51    1
    33    51    52    1
    34    51    53    1
    35    35    37    1
    36    37    38   ar
    37    38    39   ar
    38    39    40   ar
    39    40    41    1
    40    40    42   ar
    41    42    43   ar
    42    43    44    1
    43    35    36    1
    44     4     5   ar
    45     5     6   ar
    46    10    11    1
    47    11    12    1
    48    11    13    1
    49    17    18   ar
    50    18    19   ar
    51    23    24   ar
    52    24    25    2
    53    24    20   ar
    54    19    14   ar
    55    13     7    1
    56     6     1   ar
    57    36    32    1
    58    50    46   ar
    59    43    37   ar
@<TRIPOS>MOLECULE
*****
 53 59 0 0 0
SMALL
GASTEIGER

@<TRIPOS>ATOM
      1 C          60.9553   87.0218   11.1505 C.ar    1  UNL1        0.0487
      2 C          59.7913   86.7248   11.8758 C.ar    1  UNL1        0.0176
      3 C          59.8524   85.9296   13.0239 C.ar    1  UNL1        0.0382
      4 C          61.0869   85.4103   13.4650 C.ar    1  UNL1        0.1388
      5 C          62.2443   85.7059   12.7353 C.ar    1  UNL1        0.0382
      6 C          62.1827   86.5010   11.5881 C.ar    1  UNL1        0.0176
      7 N          60.4243   88.6241    7.3458 N.pl3   1  UNL1       -0.3034
      8 C          59.2647   88.4510    8.2285 C.3     1  UNL1        0.1123
      9 C          59.6896   88.6436    9.6825 C.3     1  UNL1        0.1129
     10 N          60.8844   87.8351    9.9632 N.pl3   1  UNL1       -0.2968
     11 C          62.0503   87.9734    9.0777 C.3     1  UNL1        0.1503
     12 BR         62.8966   89.7046    9.3486 Br      1  UNL1       -0.0577
     13 C          61.6190   87.8143    7.6149 C.3     1  UNL1        0.1225
     14 C          60.0376   90.8060    3.7056 C.ar    1  UNL1        0.0699
     15 C          61.2611   90.2067    4.0502 C.ar    1  UNL1        0.0190
     16 C          61.3903   89.4920    5.2442 C.ar    1  UNL1        0.0160
     17 C          60.2957   89.3553    6.1123 C.ar    1  UNL1        0.0481
     18 C          59.0715   89.9471    5.7675 C.ar    1  UNL1        0.0160
     19 C          58.9421   90.6639    4.5748 C.ar    1  UNL1        0.0190
     20 N          59.7736   92.0915    0.3208 N.ar    1  UNL1       -0.2024
     21 N          59.6349   93.2119    1.0138 N.ar    1  UNL1       -0.1442
     22 C          59.7163   92.8681    2.3176 C.ar    1  UNL1        0.2073
     23 N          59.9103   91.5386    2.4715 N.ar    1  UNL1       -0.2398
     24 C          59.9341   91.0851    1.2026 C.ar    1  UNL1        0.3522
     25 O          60.0538   89.8720    0.8812 O.2     1  UNL1       -0.2444
     26 C          59.7248   92.0278   -1.1447 C.3     1  UNL1        0.1099
     27 C          58.3695   92.5395   -1.6516 C.3     1  UNL1        0.0265
     28 C          62.2670   92.2524   -1.3032 C.3     1  UNL1        0.0021
     29 C          60.9131   92.8031   -1.7510 C.3     1  UNL1        0.0245
     30 O          61.2257   84.6072   14.6110 O.3     1  UNL1       -0.4727
     31 C          62.2362   83.6251   14.8532 C.3     1  UNL1        0.2374
     32 C          61.7160   82.2095   14.5572 C.3     1  UNL1        0.1909
     33 C          62.7272   81.3145   13.8999 C.3     1  UNL1        0.1783
     34 O          62.4724   81.4007   12.5373 O.3     1  UNL1       -0.3267
     35 C          61.1124   81.7752   12.4251 C.3     1  UNL1        0.2296
     36 O          60.6533   82.2945   13.6587 O.3     1  UNL1       -0.3255
     37 C          60.2878   80.5526   12.0010 C.ar    1  UNL1        0.0409
     38 C          59.0820   80.2927   12.6896 C.ar    1  UNL1        0.0022
     39 C          58.3060   79.1727   12.3907 C.ar    1  UNL1        0.0113
     40 C          58.7178   78.2793   11.4049 C.ar    1  UNL1        0.0585
     41 CL         57.7461   76.8654   11.0397 Cl      1  UNL1       -0.0822
     42 C          59.9117   78.5022   10.7200 C.ar    1  UNL1        0.0226
     43 C          60.7075   79.6180   11.0108 C.ar    1  UNL1        0.0591
     44 CL         62.2192   79.7480   10.1144 Cl      1  UNL1       -0.0824
     45 C          61.0239   82.8770   11.3467 C.3     1  UNL1        0.1679
     46 N          59.6785   82.9859   10.7724 N.ar    1  UNL1       -0.3084
     47 C          58.5952   83.4607   11.4117 C.ar    1  UNL1        0.0979
     48 C          57.5346   83.4397   10.5370 C.ar    1  UNL1        0.1188
     49 N          57.9422   82.9612    9.3452 N.ar    1  UNL1       -0.2293
     50 C          59.2527   82.6795    9.5226 C.ar    1  UNL1        0.1201
     51 C          60.1404   82.1961    8.3993 C.3     1  UNL1        0.0569
     52 C          60.4370   83.3474    7.4359 C.3     1  UNL1        0.0079
     53 C          59.4995   81.0176    7.6573 C.3     1  UNL1        0.0079
@<TRIPOS>BOND
     1    28    29    1
     2    29    26    1
     3    26    27    1
     4    26    20    1
     5    20    21   ar
     6    21    22   ar
     7    22    23   ar
     8    23    14    1
     9    14    15   ar
    10    15    16   ar
    11    16    17   ar
    12    17     7    1
    13     7     8    1
    14     8     9    1
    15     9    10    1
    16    10     1    1
    17     1     2   ar
    18     2     3   ar
    19     3     4   ar
    20     4    30    1
    21    30    31    1
    22    31    32    1
    23    32    33    1
    24    33    34    1
    25    34    35    1
    26    35    45    1
    27    45    46    1
    28    46    47   ar
    29    47    48   ar
    30    48    49   ar
    31    49    50   ar
    32    50    51    1
    33    51    52    1
    34    51    53    1
    35    35    37    1
    36    37    38   ar
    37    38    39   ar
    38    39    40   ar
    39    40    41    1
    40    40    42   ar
    41    42    43   ar
    42    43    44    1
    43    35    36    1
    44     4     5   ar
    45     5     6   ar
    46    10    11    1
    47    11    12    1
    48    11    13    1
    49    17    18   ar
    50    18    19   ar
    51    23    24   ar
    52    24    25    2
    53    24    20   ar
    54    19    14   ar
    55    13     7    1
    56     6     1   ar
    57    36    32    1
    58    50    46   ar
    59    43    37   ar
@<TRIPOS>MOLECULE
*****
 53 59 0 0 0
SMALL
GASTEIGER

@<TRIPOS>ATOM
      1 C          61.1953   86.8982   11.7258 C.ar    1  UNL1        0.0487
      2 C          60.0620   86.4051   12.3903 C.ar    1  UNL1        0.0176
      3 C          60.1954   85.6541   13.5618 C.ar    1  UNL1        0.0382
      4 C          61.4739   85.3776   14.0882 C.ar    1  UNL1        0.1388
      5 C          62.6012   85.8682   13.4190 C.ar    1  UNL1        0.0382
      6 C          62.4674   86.6189   12.2483 C.ar    1  UNL1        0.0176
      7 N          60.4457   88.3469    7.8964 N.pl3   1  UNL1       -0.3034
      8 C          59.3357   88.1928    8.8440 C.3     1  UNL1        0.1123
      9 C          59.8320   88.4464   10.2657 C.3     1  UNL1        0.1129
     10 N          61.0514   87.6646   10.5141 N.pl3   1  UNL1       -0.2968
     11 C          62.1680   87.7838    9.5646 C.3     1  UNL1        0.1503
     12 BR         63.0016   89.5348    9.7260 Br      1  UNL1       -0.0577
     13 C          61.6645   87.5634    8.1332 C.3     1  UNL1        0.1225
     14 C          59.8559   90.3486    4.1807 C.ar    1  UNL1        0.0699
     15 C          58.7596   90.0318    5.0008 C.ar    1  UNL1        0.0190
     16 C          58.9509   89.3741    6.2190 C.ar    1  UNL1        0.0160
     17 C          60.2431   89.0286    6.6446 C.ar    1  UNL1        0.0481
     18 C          61.3397   89.3496    5.8307 C.ar    1  UNL1        0.0160
     19 C          61.1491   90.0052    4.6113 C.ar    1  UNL1        0.0190
     20 N          59.9530   92.2009    1.0599 N.ar    1  UNL1       -0.2024
     21 N          58.6823   91.8274    1.0770 N.ar    1  UNL1       -0.1442
     22 C          58.5079   91.1151    2.2115 C.ar    1  UNL1        0.2073
     23 N          59.6520   91.0297    2.9274 N.ar    1  UNL1       -0.2398
     24 C          60.5351   91.7141    2.1737 C.ar    1  UNL1        0.3522
     25 O          61.7564   91.8508    2.4541 O.2     1  UNL1       -0.2444
     26 C          60.5585   92.9832   -0.0242 C.3     1  UNL1        0.1099
     27 C          61.6739   92.1748   -0.7008 C.3     1  UNL1        0.0265
     28 C          59.0582   92.3340   -1.9904 C.3     1  UNL1        0.0021
     29 C          59.4730   93.4407   -1.0209 C.3     1  UNL1        0.0245
     30 O          61.6851   84.6330   15.2623 O.3     1  UNL1       -0.4727
     31 C          62.5582   83.5121   15.4222 C.3     1  UNL1        0.2374
     32 C          61.8478   82.1993   15.0564 C.3     1  UNL1        0.1909
     33 C          62.7399   81.1880   14.3955 C.3     1  UNL1        0.1783
     34 O          62.5484   81.3567   13.0303 O.3     1  UNL1       -0.3267
     35 C          61.2623   81.9307   12.8921 C.3     1  UNL1        0.2296
     36 O          60.8410   82.4700   14.1307 O.3     1  UNL1       -0.3255
     37 C          60.2836   80.8578   12.3970 C.ar    1  UNL1        0.0409
     38 C          60.8049   79.5911   12.0512 C.ar    1  UNL1        0.0022
     39 C          59.9817   78.5835   11.5481 C.ar    1  UNL1        0.0113
     40 C          58.6206   78.8170   11.3681 C.ar    1  UNL1        0.0585
     41 CL         57.5902   77.5523   10.7239 Cl      1  UNL1       -0.0822
     42 C          58.0814   80.0630   11.6860 C.ar    1  UNL1        0.0226
     43 C          58.8936   81.0891   12.1864 C.ar    1  UNL1        0.0591
     44 CL         58.0967   82.6314   12.4900 Cl      1  UNL1       -0.0824
     45 C          61.3735   83.0693   11.8549 C.3     1  UNL1        0.1679
     46 N          62.4945   82.8708   10.9297 N.ar    1  UNL1       -0.3084
     47 C          63.7393   82.5048   11.2820 C.ar    1  UNL1        0.0979
     48 C          64.4938   82.3864   10.1387 C.ar    1  UNL1        0.1188
     49 N          63.7316   82.6684    9.0640 N.ar    1  UNL1       -0.2293
     50 C          62.5191   82.9740    9.5785 C.ar    1  UNL1        0.1201
     51 C          61.3184   83.2715    8.7105 C.3     1  UNL1        0.0569
     52 C          60.5193   81.9893    8.4676 C.3     1  UNL1        0.0079
     53 C          61.7419   83.9081    7.3817 C.3     1  UNL1        0.0079
@<TRIPOS>BOND
     1    28    29    1
     2    29    26    1
     3    26    27    1
     4    26    20    1
     5    20    21   ar
     6    21    22   ar
     7    22    23   ar
     8    23    14    1
     9    14    15   ar
    10    15    16   ar
    11    16    17   ar
    12    17     7    1
    13     7     8    1
    14     8     9    1
    15     9    10    1
    16    10     1    1
    17     1     2   ar
    18     2     3   ar
    19     3     4   ar
    20     4    30    1
    21    30    31    1
    22    31    32    1
    23    32    33    1
    24    33    34    1
    25    34    35    1
    26    35    45    1
    27    45    46    1
    28    46    47   ar
    29    47    48   ar
    30    48    49   ar
    31    49    50   ar
    32    50    51    1
    33    51    52    1
    34    51    53    1
    35    35    37    1
    36    37    38   ar
    37    38    39   ar
    38    39    40   ar
    39    40    41    1
    40    40    42   ar
    41    42    43   ar
    42    43    44    1
    43    35    36    1
    44     4     5   ar
    45     5     6   ar
    46    10    11    1
    47    11    12    1
    48    11    13    1
    49    17    18   ar
    50    18    19   ar
    51    23    24   ar
    52    24    25    2
    53    24    20   ar
    54    19    14   ar
    55    13     7    1
    56     6     1   ar
    57    36    32    1
    58    50    46   ar
    59    43    37   ar
@<TRIPOS>MOLECULE
*****
 53 59 0 0 0
SMALL
GASTEIGER

@<TRIPOS>ATOM
      1 C          60.5474   87.0429   10.5191 C.ar    1  UNL1        0.0487
      2 C          59.3150   86.7874   11.1396 C.ar    1  UNL1        0.0176
      3 C          59.2643   86.3447   12.4646 C.ar    1  UNL1        0.0382
      4 C          60.4543   86.1438   13.1938 C.ar    1  UNL1        0.1388
      5 C          61.6811   86.3961   12.5687 C.ar    1  UNL1        0.0382
      6 C          61.7312   86.8387   11.2445 C.ar    1  UNL1        0.0176
      7 N          60.1703   89.0102    6.8705 N.pl3   1  UNL1       -0.3034
      8 C          61.1056   89.5235    7.8783 C.3     1  UNL1        0.1123
      9 C          61.6815   88.3628    8.6863 C.3     1  UNL1        0.1129
     10 N          60.5932   87.4910    9.1504 N.pl3   1  UNL1       -0.2968
     11 C          59.6290   86.9843    8.1624 C.3     1  UNL1        0.1503
     12 BR         60.4796   85.6672    7.0096 Br      1  UNL1       -0.0577
     13 C          59.0756   88.1450    7.3271 C.3     1  UNL1        0.1225
     14 C          60.1646   90.6348    2.9307 C.ar    1  UNL1        0.0699
     15 C          61.2935   89.9553    3.4192 C.ar    1  UNL1        0.0190
     16 C          61.2978   89.4232    4.7115 C.ar    1  UNL1        0.0160
     17 C          60.1698   89.5524    5.5368 C.ar    1  UNL1        0.0481
     18 C          59.0392   90.2245    5.0491 C.ar    1  UNL1        0.0160
     19 C          59.0348   90.7590    3.7578 C.ar    1  UNL1        0.0190
     20 N          60.0811   92.5565   -0.1481 N.ar    1  UNL1       -0.2024
     21 N          60.2921   91.3409   -0.6304 N.ar    1  UNL1       -0.1442
     22 C          60.3447   90.5107    0.4338 C.ar    1  UNL1        0.2073
     23 N          60.1654   91.1781    1.5962 N.ar    1  UNL1       -0.2398
     24 C          60.0105   92.4550    1.1939 C.ar    1  UNL1        0.3522
     25 O          59.8566   93.4342    1.9726 O.2     1  UNL1       -0.2444
     26 C          59.9789   93.7589   -0.9836 C.3     1  UNL1        0.1099
     27 C          61.1728   93.8382   -1.9448 C.3     1  UNL1        0.0265
     28 C          57.4631   93.3253   -0.8375 C.3     1  UNL1        0.0021
     29 C          58.6240   93.7805   -1.7217 C.3     1  UNL1        0.0245
     30 O          60.4810   85.7041   14.5293 O.3     1  UNL1       -0.4727
     31 C          61.4850   84.8944   15.1462 C.3     1  UNL1        0.2374
     32 C          61.2212   83.4005   14.9001 C.3     1  UNL1        0.1909
     33 C          62.3850   82.6682   14.2962 C.3     1  UNL1        0.1783
     34 O          62.1502   82.6581   12.9274 O.3     1  UNL1       -0.3267
     35 C          60.7491   82.7891   12.7782 C.3     1  UNL1        0.2296
     36 O          60.1802   83.2681   13.9821 O.3     1  UNL1       -0.3255
     37 C          60.1553   81.4282   12.3915 C.ar    1  UNL1        0.0409
     38 C          58.7796   81.2117   12.6281 C.ar    1  UNL1        0.0022
     39 C          58.1823   79.9828   12.3466 C.ar    1  UNL1        0.0113
     40 C          58.9438   78.9368   11.8315 C.ar    1  UNL1        0.0585
     41 CL         58.1927   77.3890   11.4899 Cl      1  UNL1       -0.0822
     42 C          60.3074   79.1170   11.6028 C.ar    1  UNL1        0.0226
     43 C          60.9260   80.3419   11.8854 C.ar    1  UNL1        0.0591
     44 CL         62.6646   80.4159   11.6067 Cl      1  UNL1       -0.0824
     45 C          60.4983   83.8181   11.6544 C.3     1  UNL1        0.1679
     46 N          60.9748   83.3442   10.3504 N.ar    1  UNL1       -0.3084
     47 C          62.2528   83.3663    9.9336 C.ar    1  UNL1        0.0979
     48 C          62.3070   82.8063    8.6791 C.ar    1  UNL1        0.1188
     49 N          61.0714   82.4231    8.3024 N.ar    1  UNL1       -0.2293
     50 C          60.2761   82.7765    9.3372 C.ar    1  UNL1        0.1201
     51 C          58.8014   82.4493    9.3788 C.3     1  UNL1        0.0569
     52 C          58.5021   81.2695    8.4514 C.3     1  UNL1        0.0079
     53 C          57.9543   83.6689    8.9977 C.3     1  UNL1        0.0079
@<TRIPOS>BOND
     1    28    29    1
     2    29    26    1
     3    26    27    1
     4    26    20    1
     5    20    21   ar
     6    21    22   ar
     7    22    23   ar
     8    23    14    1
     9    14    15   ar
    10    15    16   ar
    11    16    17   ar
    12    17     7    1
    13     7     8    1
    14     8     9    1
    15     9    10    1
    16    10     1    1
    17     1     2   ar
    18     2     3   ar
    19     3     4   ar
    20     4    30    1
    21    30    31    1
    22    31    32    1
    23    32    33    1
    24    33    34    1
    25    34    35    1
    26    35    45    1
    27    45    46    1
    28    46    47   ar
    29    47    48   ar
    30    48    49   ar
    31    49    50   ar
    32    50    51    1
    33    51    52    1
    34    51    53    1
    35    35    37    1
    36    37    38   ar
    37    38    39   ar
    38    39    40   ar
    39    40    41    1
    40    40    42   ar
    41    42    43   ar
    42    43    44    1
    43    35    36    1
    44     4     5   ar
    45     5     6   ar
    46    10    11    1
    47    11    12    1
    48    11    13    1
    49    17    18   ar
    50    18    19   ar
    51    23    24   ar
    52    24    25    2
    53    24    20   ar
    54    19    14   ar
    55    13     7    1
    56     6     1   ar
    57    36    32    1
    58    50    46   ar
    59    43    37   ar
@<TRIPOS>MOLECULE
*****
 53 59 0 0 0
SMALL
GASTEIGER

@<TRIPOS>ATOM
      1 C          59.9158   86.1586   10.2818 C.ar    1  UNL1        0.0487
      2 C          58.6857   85.5522   10.5786 C.ar    1  UNL1        0.0176
      3 C          58.5034   84.8657   11.7827 C.ar    1  UNL1        0.0382
      4 C          59.5581   84.7694   12.7135 C.ar    1  UNL1        0.1388
      5 C          60.7846   85.3723   12.4106 C.ar    1  UNL1        0.0382
      6 C          60.9661   86.0585   11.2072 C.ar    1  UNL1        0.0176
      7 N          59.7703   88.6863    6.9781 N.pl3   1  UNL1       -0.3034
      8 C          60.4023   89.1497    8.2190 C.3     1  UNL1        0.1123
      9 C          61.0545   87.9705    8.9374 C.3     1  UNL1        0.1129
     10 N          60.0998   86.8575    9.0353 N.pl3   1  UNL1       -0.2968
     11 C          59.4353   86.3919    7.8088 C.3     1  UNL1        0.1503
     12 BR         60.7121   85.4764    6.6605 Br      1  UNL1       -0.0577
     13 C          58.8094   87.5799    7.0685 C.3     1  UNL1        0.1225
     14 C          60.1049   91.0003    3.4152 C.ar    1  UNL1        0.0699
     15 C          61.1877   90.2263    3.8660 C.ar    1  UNL1        0.0190
     16 C          61.0804   89.4680    5.0350 C.ar    1  UNL1        0.0160
     17 C          59.8850   89.4620    5.7707 C.ar    1  UNL1        0.0481
     18 C          58.8004   90.2286    5.3192 C.ar    1  UNL1        0.0160
     19 C          58.9076   90.9891    4.1516 C.ar    1  UNL1        0.0190
     20 N          60.3827   92.4040    0.0787 N.ar    1  UNL1       -0.2024
     21 N          60.3742   93.5120    0.8046 N.ar    1  UNL1       -0.1442
     22 C          60.2733   93.1239    2.0945 C.ar    1  UNL1        0.2073
     23 N          60.2210   91.7772    2.2073 N.ar    1  UNL1       -0.2398
     24 C          60.2850   91.3613    0.9270 C.ar    1  UNL1        0.3522
     25 O          60.2242   90.1553    0.5653 O.2     1  UNL1       -0.2444
     26 C          60.4608   92.3897   -1.3868 C.3     1  UNL1        0.1099
     27 C          59.2857   93.1738   -1.9868 C.3     1  UNL1        0.0265
     28 C          62.9756   91.9608   -1.5597 C.3     1  UNL1        0.0021
     29 C          61.8295   92.9291   -1.8522 C.3     1  UNL1        0.0245
     30 O          59.4474   84.0991   13.9448 O.3     1  UNL1       -0.4727
     31 C          59.7120   82.7166   14.1960 C.3     1  UNL1        0.2374
     32 C          59.1657   81.8327   13.0636 C.3     1  UNL1        0.1909
     33 C          59.9578   80.5774   12.8352 C.3     1  UNL1        0.1783
     34 O          60.8440   80.8766   11.8085 O.3     1  UNL1       -0.3267
     35 C          60.2471   81.9356   11.0840 C.3     1  UNL1        0.2296
     36 O          59.2321   82.5392   11.8635 O.3     1  UNL1       -0.3255
     37 C          59.6788   81.3868    9.7687 C.ar    1  UNL1        0.0409
     38 C          58.4832   81.9534    9.2734 C.ar    1  UNL1        0.0022
     39 C          57.8832   81.4723    8.1096 C.ar    1  UNL1        0.0113
     40 C          58.4550   80.4083    7.4163 C.ar    1  UNL1        0.0585
     41 CL         57.6918   79.7975    5.9600 Cl      1  UNL1       -0.0822
     42 C          59.6264   79.8192    7.8907 C.ar    1  UNL1        0.0226
     43 C          60.2398   80.2847    9.0612 C.ar    1  UNL1        0.0591
     44 CL         61.6803   79.4130    9.5818 Cl      1  UNL1       -0.0824
     45 C          61.3503   82.9766   10.7941 C.3     1  UNL1        0.1679
     46 N          62.6931   82.3868   10.8257 N.ar    1  UNL1       -0.3084
     47 C          63.4076   82.0194    9.7477 C.ar    1  UNL1        0.0979
     48 C          64.6248   81.5463   10.1780 C.ar    1  UNL1        0.1188
     49 N          64.6877   81.6190   11.5219 N.ar    1  UNL1       -0.2293
     50 C          63.4886   82.1234   11.8910 C.ar    1  UNL1        0.1201
     51 C          63.1537   82.4584   13.3260 C.3     1  UNL1        0.0569
     52 C          63.9631   83.6748   13.7807 C.3     1  UNL1        0.0079
     53 C          63.4099   81.2598   14.2469 C.3     1  UNL1        0.0079
@<TRIPOS>BOND
     1    28    29    1
     2    29    26    1
     3    26    27    1
     4    26    20    1
     5    20    21   ar
     6    21    22   ar
     7    22    23   ar
     8    23    14    1
     9    14    15   ar
    10    15    16   ar
    11    16    17   ar
    12    17     7    1
    13     7     8    1
    14     8     9    1
    15     9    10    1
    16    10     1    1
    17     1     2   ar
    18     2     3   ar
    19     3     4   ar
    20     4    30    1
    21    30    31    1
    22    31    32    1
    23    32    33    1
    24    33    34    1
    25    34    35    1
    26    35    45    1
    27    45    46    1
    28    46    47   ar
    29    47    48   ar
    30    48    49   ar
    31    49    50   ar
    32    50    51    1
    33    51    52    1
    34    51    53    1
    35    35    37    1
    36    37    38   ar
    37    38    39   ar
    38    39    40   ar
    39    40    41    1
    40    40    42   ar
    41    42    43   ar
    42    43    44    1
    43    35    36    1
    44     4     5   ar
    45     5     6   ar
    46    10    11    1
    47    11    12    1
    48    11    13    1
    49    17    18   ar
    50    18    19   ar
    51    23    24   ar
    52    24    25    2
    53    24    20   ar
    54    19    14   ar
    55    13     7    1
    56     6     1   ar
    57    36    32    1
    58    50    46   ar
    59    43    37   ar
@<TRIPOS>MOLECULE
*****
 53 59 0 0 0
SMALL
GASTEIGER

@<TRIPOS>ATOM
      1 C          60.6241   86.1863   10.1914 C.ar    1  UNL1        0.0487
      2 C          61.8147   85.6490   10.7043 C.ar    1  UNL1        0.0176
      3 C          61.8171   84.9560   11.9183 C.ar    1  UNL1        0.0382
      4 C          60.6209   84.7928   12.6469 C.ar    1  UNL1        0.1388
      5 C          59.4369   85.3345   12.1330 C.ar    1  UNL1        0.0382
      6 C          59.4351   86.0269   10.9195 C.ar    1  UNL1        0.0176
      7 N          60.0426   88.7938    6.9996 N.pl3   1  UNL1       -0.3034
      8 C          60.8870   89.2046    8.1275 C.3     1  UNL1        0.1123
      9 C          61.5998   87.9858    8.7091 C.3     1  UNL1        0.1129
     10 N          60.6299   86.9068    8.9436 N.pl3   1  UNL1       -0.2968
     11 C          59.7558   86.4946    7.8351 C.3     1  UNL1        0.1503
     12 BR         60.7900   85.5596    6.4775 Br      1  UNL1       -0.0577
     13 C          59.0657   87.7219    7.2279 C.3     1  UNL1        0.1225
     14 C          59.8905   91.1408    3.4458 C.ar    1  UNL1        0.0699
     15 C          58.7735   91.0608    4.2948 C.ar    1  UNL1        0.0190
     16 C          58.8210   90.2905    5.4599 C.ar    1  UNL1        0.0160
     17 C          59.9896   89.5926    5.8030 C.ar    1  UNL1        0.0481
     18 C          61.1081   89.6761    4.9606 C.ar    1  UNL1        0.0160
     19 C          61.0607   90.4443    3.7941 C.ar    1  UNL1        0.0190
     20 N          59.3548   92.7160    0.2192 N.ar    1  UNL1       -0.2024
     21 N          60.1814   93.5880    0.7769 N.ar    1  UNL1       -0.1442
     22 C          60.4667   93.1115    2.0083 C.ar    1  UNL1        0.2073
     23 N          59.8360   91.9395    2.2478 N.ar    1  UNL1       -0.2398
     24 C          59.1452   91.7270    1.1103 C.ar    1  UNL1        0.3522
     25 O          58.3731   90.7494    0.9171 O.2     1  UNL1       -0.2444
     26 C          58.7866   92.8753   -1.1246 C.3     1  UNL1        0.1099
     27 C          59.1568   91.6714   -2.0016 C.3     1  UNL1        0.0265
     28 C          56.4662   92.0030   -1.7515 C.3     1  UNL1        0.0021
     29 C          57.2618   93.0942   -1.0353 C.3     1  UNL1        0.0245
     30 O          60.5461   84.1059   13.8717 O.3     1  UNL1       -0.4727
     31 C          59.8733   82.8694   14.1223 C.3     1  UNL1        0.2374
     32 C          58.9953   82.4638   12.9279 C.3     1  UNL1        0.1909
     33 C          58.4859   81.0527   12.9983 C.3     1  UNL1        0.1783
     34 O          59.3795   80.2955   12.2520 O.3     1  UNL1       -0.3267
     35 C          59.9715   81.1958   11.3347 C.3     1  UNL1        0.2296
     36 O          59.7567   82.5277   11.7617 O.3     1  UNL1       -0.3255
     37 C          59.3725   80.9605    9.9418 C.ar    1  UNL1        0.0409
     38 C          58.3175   80.0289    9.8206 C.ar    1  UNL1        0.0022
     39 C          57.7574   79.7288    8.5787 C.ar    1  UNL1        0.0113
     40 C          58.2418   80.3426    7.4263 C.ar    1  UNL1        0.0585
     41 CL         57.5437   79.9541    5.8648 Cl      1  UNL1       -0.0822
     42 C          59.2930   81.2544    7.5141 C.ar    1  UNL1        0.0226
     43 C          59.8724   81.5636    8.7516 C.ar    1  UNL1        0.0591
     44 CL         61.2313   82.6851    8.7138 Cl      1  UNL1       -0.0824
     45 C          61.4885   80.9073   11.3176 C.3     1  UNL1        0.1679
     46 N          62.0255   80.6766   12.6631 N.ar    1  UNL1       -0.3084
     47 C          61.6908   79.6549   13.4703 C.ar    1  UNL1        0.0979
     48 C          62.4285   79.7589   14.6260 C.ar    1  UNL1        0.1188
     49 N          63.2337   80.8367   14.5518 N.ar    1  UNL1       -0.2293
     50 C          62.9561   81.3856   13.3476 C.ar    1  UNL1        0.1201
     51 C          63.7051   82.5812   12.8063 C.3     1  UNL1        0.0569
     52 C          64.5249   82.1726   11.5806 C.3     1  UNL1        0.0079
     53 C          64.6058   83.2012   13.8808 C.3     1  UNL1        0.0079
@<TRIPOS>BOND
     1    28    29    1
     2    29    26    1
     3    26    27    1
     4    26    20    1
     5    20    21   ar
     6    21    22   ar
     7    22    23   ar
     8    23    14    1
     9    14    15   ar
    10    15    16   ar
    11    16    17   ar
    12    17     7    1
    13     7     8    1
    14     8     9    1
    15     9    10    1
    16    10     1    1
    17     1     2   ar
    18     2     3   ar
    19     3     4   ar
    20     4    30    1
    21    30    31    1
    22    31    32    1
    23    32    33    1
    24    33    34    1
    25    34    35    1
    26    35    45    1
    27    45    46    1
    28    46    47   ar
    29    47    48   ar
    30    48    49   ar
    31    49    50   ar
    32    50    51    1
    33    51    52    1
    34    51    53    1
    35    35    37    1
    36    37    38   ar
    37    38    39   ar
    38    39    40   ar
    39    40    41    1
    40    40    42   ar
    41    42    43   ar
    42    43    44    1
    43    35    36    1
    44     4     5   ar
    45     5     6   ar
    46    10    11    1
    47    11    12    1
    48    11    13    1
    49    17    18   ar
    50    18    19   ar
    51    23    24   ar
    52    24    25    2
    53    24    20   ar
    54    19    14   ar
    55    13     7    1
    56     6     1   ar
    57    36    32    1
    58    50    46   ar
    59    43    37   ar
