@<TRIPOS>MOLECULE
*****
 45 50 0 0 0
SMALL
GASTEIGER

@<TRIPOS>ATOM
      1 C         -64.0260  -52.1652  -24.1830 C.ar    1  UNL1        0.0702
      2 C         -63.5391  -52.8047  -23.0322 C.ar    1  UNL1        0.0191
      3 C         -64.2522  -53.8602  -22.4622 C.ar    1  UNL1        0.0356
      4 C         -65.4676  -54.2643  -23.0353 C.ar    1  UNL1        0.1318
      5 N         -65.9260  -53.6211  -24.1451 N.ar    1  UNL1       -0.2279
      6 C         -65.2492  -52.5901  -24.7162 C.ar    1  UNL1        0.1149
      7 N         -66.2168  -55.3651  -22.4876 N.pl3   1  UNL1       -0.2932
      8 C         -66.9481  -56.2718  -23.3899 C.3     1  UNL1        0.0923
      9 C         -67.8884  -57.2122  -22.6170 C.3     1  UNL1        0.0252
     10 C         -68.4478  -56.5358  -21.3524 C.3     1  UNL1        0.0472
     11 C         -67.2872  -56.1981  -20.3875 C.3     1  UNL1        0.0252
     12 C         -65.9856  -55.7592  -21.0911 C.3     1  UNL1        0.0923
     13 C         -69.3336  -55.3192  -21.7137 C.3     1  UNL1        0.2054
     14 O         -70.6595  -55.7193  -22.0688 O.3     1  UNL1       -0.4755
     15 C         -71.2784  -55.5341  -23.3186 C.ar    1  UNL1        0.1388
     16 C         -72.5701  -56.0128  -23.6187 C.ar    1  UNL1        0.0369
     17 C         -73.1247  -55.7947  -24.8810 C.ar    1  UNL1        0.0033
     18 C         -72.4060  -55.1013  -25.8562 C.ar    1  UNL1        0.0066
     19 C         -71.1155  -54.6193  -25.5786 C.ar    1  UNL1        0.0785
     20 C         -70.5625  -54.8438  -24.3055 C.ar    1  UNL1        0.0433
     21 C         -70.3463  -53.8865  -26.6087 C.2     1  UNL1        0.3381
     22 O         -69.7134  -54.5144  -27.5004 O.2     1  UNL1       -0.2451
     23 O         -70.3142  -52.4943  -26.6030 O.3     1  UNL1       -0.4771
     24 H         -69.7907  -51.9830  -27.3036 H       1  UNL1        0.2954
     25 C         -63.8729  -49.7340  -24.8964 C.2     1  UNL1        0.2839
     26 O         -64.8966  -49.4099  -24.2362 O.2     1  UNL1       -0.2665
     27 N         -63.3315  -51.0604  -24.7869 N.am    1  UNL1       -0.2766
     28 H         -62.3413  -51.2123  -25.0854 H       1  UNL1        0.1553
     29 C         -63.9764  -49.5651  -28.0953 C.3     1  UNL1        0.0345
     30 C         -63.2445  -48.6609  -27.1499 C.ar    1  UNL1        0.0202
     31 C         -63.2026  -48.7376  -25.7532 C.ar    1  UNL1        0.1946
     32 O         -62.4510  -47.7647  -25.2694 O.2     1  UNL1       -0.4492
     33 C         -62.0038  -47.0603  -26.2801 C.ar    1  UNL1        0.1452
     34 C         -61.1760  -45.9443  -26.2305 C.ar    1  UNL1        0.0375
     35 C         -60.8128  -45.3372  -27.4451 C.ar    1  UNL1        0.0031
     36 C         -61.2798  -45.8514  -28.6849 C.ar    1  UNL1        0.0002
     37 C         -62.1215  -46.9897  -28.6911 C.ar    1  UNL1        0.0028
     38 C         -62.4621  -47.5668  -27.4667 C.ar    1  UNL1        0.0337
     39 C         -60.8894  -45.2016  -29.9617 C.ar    1  UNL1        0.0000
     40 C         -59.5748  -45.3180  -30.4513 C.ar    1  UNL1        0.0004
     41 C         -59.2099  -44.7060  -31.6542 C.ar    1  UNL1        0.0058
     42 C         -60.1501  -43.9713  -32.3815 C.ar    1  UNL1        0.0301
     43 I         -59.5959  -43.0490  -34.1954 I       1  UNL1       -0.0425
     44 C         -61.4581  -43.8486  -31.9051 C.ar    1  UNL1        0.0058
     45 C         -61.8280  -44.4595  -30.7032 C.ar    1  UNL1        0.0004
@<TRIPOS>BOND
     1    29    30    1
     2    30    31   ar
     3    31    25    1
     4    25    26    2
     5    25    27   am
     6    27     1    1
     7     1     2   ar
     8     2     3   ar
     9     3     4   ar
    10     4     7    1
    11     7     8    1
    12     8     9    1
    13     9    10    1
    14    10    13    1
    15    13    14    1
    16    14    15    1
    17    15    16   ar
    18    16    17   ar
    19    17    18   ar
    20    18    19   ar
    21    19    21    1
    22    21    22    2
    23    21    23    1
    24    19    20   ar
    25    10    11    1
    26    11    12    1
    27     4     5   ar
    28     5     6   ar
    29    31    32   ar
    30    32    33   ar
    31    33    34   ar
    32    34    35   ar
    33    35    36   ar
    34    36    39    1
    35    39    40   ar
    36    40    41   ar
    37    41    42   ar
    38    42    43    1
    39    42    44   ar
    40    44    45   ar
    41    36    37   ar
    42    37    38   ar
    43    38    30   ar
    44     6     1   ar
    45    38    33   ar
    46    12     7    1
    47    45    39   ar
    48    20    15   ar
    49    27    28    1
    50    23    24    1
@<TRIPOS>MOLECULE
*****
 45 50 0 0 0
SMALL
GASTEIGER

@<TRIPOS>ATOM
      1 C         -64.0570  -52.1557  -24.1881 C.ar    1  UNL1        0.0702
      2 C         -63.5701  -52.8186  -23.0506 C.ar    1  UNL1        0.0191
      3 C         -64.3026  -53.8601  -22.4792 C.ar    1  UNL1        0.0356
      4 C         -65.5367  -54.2266  -23.0375 C.ar    1  UNL1        0.1318
      5 N         -65.9943  -53.5611  -24.1344 N.ar    1  UNL1       -0.2279
      6 C         -65.2989  -52.5432  -24.7065 C.ar    1  UNL1        0.1149
      7 N         -66.3067  -55.3121  -22.4882 N.pl3   1  UNL1       -0.2932
      8 C         -67.1821  -56.1055  -23.3688 C.3     1  UNL1        0.0923
      9 C         -68.1092  -57.0348  -22.5670 C.3     1  UNL1        0.0252
     10 C         -68.4975  -56.4127  -21.2135 C.3     1  UNL1        0.0472
     11 C         -67.2301  -56.2178  -20.3488 C.3     1  UNL1        0.0252
     12 C         -65.9730  -55.8158  -21.1488 C.3     1  UNL1        0.0923
     13 C         -69.3255  -55.1197  -21.4087 C.3     1  UNL1        0.2054
     14 O         -69.3058  -54.2993  -20.2380 O.3     1  UNL1       -0.4755
     15 C         -70.2178  -54.3530  -19.1682 C.ar    1  UNL1        0.1388
     16 C         -70.1341  -55.3027  -18.1296 C.ar    1  UNL1        0.0369
     17 C         -71.0742  -55.3002  -17.0976 C.ar    1  UNL1        0.0033
     18 C         -72.1043  -54.3583  -17.0851 C.ar    1  UNL1        0.0066
     19 C         -72.2077  -53.4055  -18.1129 C.ar    1  UNL1        0.0785
     20 C         -71.2581  -53.4148  -19.1499 C.ar    1  UNL1        0.0433
     21 C         -73.2990  -52.4062  -18.1080 C.2     1  UNL1        0.3381
     22 O         -74.4054  -52.6659  -18.6541 O.2     1  UNL1       -0.2451
     23 O         -73.1141  -51.1675  -17.4991 O.3     1  UNL1       -0.4771
     24 H         -73.8547  -50.4763  -17.4901 H       1  UNL1        0.2954
     25 C         -63.8533  -49.7248  -24.8894 C.2     1  UNL1        0.2839
     26 O         -64.8626  -49.3804  -24.2175 O.2     1  UNL1       -0.2665
     27 N         -63.3424  -51.0642  -24.7927 N.am    1  UNL1       -0.2766
     28 H         -62.3590  -51.2377  -25.1017 H       1  UNL1        0.1553
     29 C         -63.9986  -49.5234  -28.0849 C.3     1  UNL1        0.0345
     30 C         -63.2280  -48.6487  -27.1424 C.ar    1  UNL1        0.0202
     31 C         -63.1680  -48.7395  -25.7473 C.ar    1  UNL1        0.1946
     32 O         -62.3825  -47.7924  -25.2660 O.2     1  UNL1       -0.4492
     33 C         -61.9305  -47.0914  -26.2770 C.ar    1  UNL1        0.1452
     34 C         -61.0712  -45.9994  -26.2297 C.ar    1  UNL1        0.0375
     35 C         -60.7089  -45.3914  -27.4441 C.ar    1  UNL1        0.0031
     36 C         -61.2081  -45.8809  -28.6813 C.ar    1  UNL1        0.0002
     37 C         -62.0812  -46.9952  -28.6852 C.ar    1  UNL1        0.0028
     38 C         -62.4201  -47.5739  -27.4611 C.ar    1  UNL1        0.0337
     39 C         -60.8182  -45.2304  -29.9580 C.ar    1  UNL1        0.0000
     40 C         -59.5016  -45.3394  -30.4439 C.ar    1  UNL1        0.0004
     41 C         -59.1373  -44.7267  -31.6467 C.ar    1  UNL1        0.0058
     42 C         -60.0800  -43.9987  -32.3775 C.ar    1  UNL1        0.0301
     43 I         -59.5267  -43.0755  -34.1912 I       1  UNL1       -0.0425
     44 C         -61.3900  -43.8835  -31.9047 C.ar    1  UNL1        0.0058
     45 C         -61.7594  -44.4950  -30.7030 C.ar    1  UNL1        0.0004
@<TRIPOS>BOND
     1    29    30    1
     2    30    31   ar
     3    31    25    1
     4    25    26    2
     5    25    27   am
     6    27     1    1
     7     1     2   ar
     8     2     3   ar
     9     3     4   ar
    10     4     7    1
    11     7     8    1
    12     8     9    1
    13     9    10    1
    14    10    13    1
    15    13    14    1
    16    14    15    1
    17    15    16   ar
    18    16    17   ar
    19    17    18   ar
    20    18    19   ar
    21    19    21    1
    22    21    22    2
    23    21    23    1
    24    19    20   ar
    25    10    11    1
    26    11    12    1
    27     4     5   ar
    28     5     6   ar
    29    31    32   ar
    30    32    33   ar
    31    33    34   ar
    32    34    35   ar
    33    35    36   ar
    34    36    39    1
    35    39    40   ar
    36    40    41   ar
    37    41    42   ar
    38    42    43    1
    39    42    44   ar
    40    44    45   ar
    41    36    37   ar
    42    37    38   ar
    43    38    30   ar
    44     6     1   ar
    45    38    33   ar
    46    12     7    1
    47    45    39   ar
    48    20    15   ar
    49    27    28    1
    50    23    24    1
@<TRIPOS>MOLECULE
*****
 45 50 0 0 0
SMALL
GASTEIGER

@<TRIPOS>ATOM
      1 C         -64.2337  -52.2277  -24.2793 C.ar    1  UNL1        0.0702
      2 C         -63.8680  -52.8078  -23.0545 C.ar    1  UNL1        0.0191
      3 C         -64.6475  -53.8239  -22.4999 C.ar    1  UNL1        0.0356
      4 C         -65.8083  -54.2475  -23.1646 C.ar    1  UNL1        0.1318
      5 N         -66.1495  -53.6617  -24.3462 N.ar    1  UNL1       -0.2279
      6 C         -65.4064  -52.6698  -24.9040 C.ar    1  UNL1        0.1149
      7 N         -66.6222  -55.3097  -22.6332 N.pl3   1  UNL1       -0.2932
      8 C         -68.0141  -55.4628  -23.0919 C.3     1  UNL1        0.0923
      9 C         -68.7926  -56.4718  -22.2306 C.3     1  UNL1        0.0252
     10 C         -68.3092  -56.4567  -20.7692 C.3     1  UNL1        0.0472
     11 C         -66.8262  -56.8916  -20.7081 C.3     1  UNL1        0.0252
     12 C         -65.9737  -56.4048  -21.8990 C.3     1  UNL1        0.0923
     13 C         -68.5867  -55.0881  -20.1019 C.3     1  UNL1        0.2054
     14 O         -69.4236  -55.2227  -18.9507 O.3     1  UNL1       -0.4755
     15 C         -68.9965  -55.4950  -17.6381 C.ar    1  UNL1        0.1388
     16 C         -69.8562  -55.9812  -16.6320 C.ar    1  UNL1        0.0369
     17 C         -69.3662  -56.2294  -15.3486 C.ar    1  UNL1        0.0033
     18 C         -68.0222  -55.9989  -15.0506 C.ar    1  UNL1        0.0066
     19 C         -67.1496  -55.5109  -16.0382 C.ar    1  UNL1        0.0785
     20 C         -67.6502  -55.2618  -17.3283 C.ar    1  UNL1        0.0433
     21 C         -65.7244  -55.2609  -15.7286 C.2     1  UNL1        0.3381
     22 O         -65.3970  -54.3571  -14.9127 O.2     1  UNL1       -0.2451
     23 O         -64.7297  -56.0228  -16.3364 O.3     1  UNL1       -0.4771
     24 H         -63.7510  -55.8597  -16.1315 H       1  UNL1        0.2954
     25 C         -63.8766  -49.7864  -24.8753 C.2     1  UNL1        0.2839
     26 O         -64.8175  -49.4012  -24.1302 O.2     1  UNL1       -0.2665
     27 N         -63.4688  -51.1641  -24.8720 N.am    1  UNL1       -0.2766
     28 H         -62.5205  -51.3960  -25.2456 H       1  UNL1        0.1553
     29 C         -64.0613  -49.5126  -28.0634 C.3     1  UNL1        0.0345
     30 C         -63.2401  -48.6910  -27.1159 C.ar    1  UNL1        0.0202
     31 C         -63.1630  -48.8132  -25.7240 C.ar    1  UNL1        0.1946
     32 O         -62.3309  -47.9103  -25.2363 O.2     1  UNL1       -0.4492
     33 C         -61.8648  -47.2081  -26.2400 C.ar    1  UNL1        0.1452
     34 C         -60.9593  -46.1545  -26.1844 C.ar    1  UNL1        0.0375
     35 C         -60.5898  -45.5372  -27.3920 C.ar    1  UNL1        0.0031
     36 C         -61.1279  -45.9794  -28.6307 C.ar    1  UNL1        0.0002
     37 C         -62.0475  -47.0556  -28.6431 C.ar    1  UNL1        0.0028
     38 C         -62.3921  -47.6448  -27.4257 C.ar    1  UNL1        0.0337
     39 C         -60.7300  -45.3195  -29.9000 C.ar    1  UNL1        0.0000
     40 C         -61.6532  -44.5391  -30.6210 C.ar    1  UNL1        0.0004
     41 C         -61.2759  -43.9181  -31.8155 C.ar    1  UNL1        0.0058
     42 C         -59.9755  -44.0685  -32.3045 C.ar    1  UNL1        0.0301
     43 I         -59.4099  -43.1307  -34.1069 I       1  UNL1       -0.0425
     44 C         -59.0503  -44.8412  -31.5974 C.ar    1  UNL1        0.0058
     45 C         -59.4227  -45.4634  -30.4022 C.ar    1  UNL1        0.0004
@<TRIPOS>BOND
     1    29    30    1
     2    30    31   ar
     3    31    25    1
     4    25    26    2
     5    25    27   am
     6    27     1    1
     7     1     2   ar
     8     2     3   ar
     9     3     4   ar
    10     4     7    1
    11     7     8    1
    12     8     9    1
    13     9    10    1
    14    10    13    1
    15    13    14    1
    16    14    15    1
    17    15    16   ar
    18    16    17   ar
    19    17    18   ar
    20    18    19   ar
    21    19    21    1
    22    21    22    2
    23    21    23    1
    24    19    20   ar
    25    10    11    1
    26    11    12    1
    27     4     5   ar
    28     5     6   ar
    29    31    32   ar
    30    32    33   ar
    31    33    34   ar
    32    34    35   ar
    33    35    36   ar
    34    36    39    1
    35    39    40   ar
    36    40    41   ar
    37    41    42   ar
    38    42    43    1
    39    42    44   ar
    40    44    45   ar
    41    36    37   ar
    42    37    38   ar
    43    38    30   ar
    44     6     1   ar
    45    38    33   ar
    46    12     7    1
    47    45    39   ar
    48    20    15   ar
    49    27    28    1
    50    23    24    1
@<TRIPOS>MOLECULE
*****
 45 50 0 0 0
SMALL
GASTEIGER

@<TRIPOS>ATOM
      1 C         -64.0231  -52.1566  -24.1824 C.ar    1  UNL1        0.0702
      2 C         -63.5274  -52.8299  -23.0548 C.ar    1  UNL1        0.0191
      3 C         -64.2606  -53.8694  -22.4808 C.ar    1  UNL1        0.0356
      4 C         -65.5040  -54.2235  -23.0262 C.ar    1  UNL1        0.1318
      5 N         -65.9699  -53.5481  -24.1135 N.ar    1  UNL1       -0.2279
      6 C         -65.2740  -52.5318  -24.6880 C.ar    1  UNL1        0.1149
      7 N         -66.2753  -55.3066  -22.4741 N.pl3   1  UNL1       -0.2932
      8 C         -67.1760  -56.0807  -23.3463 C.3     1  UNL1        0.0923
      9 C         -68.0979  -57.0087  -22.5371 C.3     1  UNL1        0.0252
     10 C         -68.4536  -56.3975  -21.1697 C.3     1  UNL1        0.0472
     11 C         -67.1679  -56.2258  -20.3273 C.3     1  UNL1        0.0252
     12 C         -65.9218  -55.8286  -21.1469 C.3     1  UNL1        0.0923
     13 C         -69.2708  -55.0935  -21.3350 C.3     1  UNL1        0.2054
     14 O         -69.2400  -54.2980  -20.1475 O.3     1  UNL1       -0.4755
     15 C         -70.2265  -54.2597  -19.1452 C.ar    1  UNL1        0.1388
     16 C         -71.4304  -53.5373  -19.2743 C.ar    1  UNL1        0.0369
     17 C         -72.3669  -53.5415  -18.2391 C.ar    1  UNL1        0.0033
     18 C         -72.1199  -54.2604  -17.0684 C.ar    1  UNL1        0.0066
     19 C         -70.9246  -54.9839  -16.9182 C.ar    1  UNL1        0.0785
     20 C         -69.9851  -54.9740  -17.9644 C.ar    1  UNL1        0.0433
     21 C         -70.6544  -55.7454  -15.6786 C.2     1  UNL1        0.3381
     22 O         -70.7579  -57.0020  -15.6655 O.2     1  UNL1       -0.2451
     23 O         -70.2827  -55.0804  -14.5129 O.3     1  UNL1       -0.4771
     24 H         -70.0955  -55.5922  -13.6589 H       1  UNL1        0.2954
     25 C         -63.8279  -49.7329  -24.9108 C.2     1  UNL1        0.2839
     26 O         -64.8508  -49.3887  -24.2594 O.2     1  UNL1       -0.2665
     27 N         -63.3078  -51.0667  -24.7891 N.am    1  UNL1       -0.2766
     28 H         -62.3181  -51.2358  -25.0801 H       1  UNL1        0.1553
     29 C         -64.0242  -49.4930  -28.1008 C.3     1  UNL1        0.0345
     30 C         -63.2191  -48.6451  -27.1627 C.ar    1  UNL1        0.0202
     31 C         -63.1369  -48.7527  -25.7698 C.ar    1  UNL1        0.1946
     32 O         -62.3235  -47.8276  -25.2922 O.2     1  UNL1       -0.4492
     33 C         -61.8744  -47.1250  -26.3033 C.ar    1  UNL1        0.1452
     34 C         -60.9916  -46.0517  -26.2593 C.ar    1  UNL1        0.0375
     35 C         -60.6376  -45.4379  -27.4733 C.ar    1  UNL1        0.0031
     36 C         -61.1683  -45.9031  -28.7068 C.ar    1  UNL1        0.0002
     37 C         -62.0647  -46.9988  -28.7074 C.ar    1  UNL1        0.0028
     38 C         -62.3944  -47.5839  -27.4838 C.ar    1  UNL1        0.0337
     39 C         -60.7869  -45.2467  -29.9830 C.ar    1  UNL1        0.0000
     40 C         -61.7372  -44.5228  -30.7274 C.ar    1  UNL1        0.0004
     41 C         -61.3754  -43.9049  -31.9283 C.ar    1  UNL1        0.0058
     42 C         -60.0638  -44.0023  -32.4005 C.ar    1  UNL1        0.0301
     43 I         -59.5218  -43.0694  -34.2127 I       1  UNL1       -0.0425
     44 C         -59.1118  -44.7186  -31.6701 C.ar    1  UNL1        0.0058
     45 C         -59.4686  -45.3375  -30.4683 C.ar    1  UNL1        0.0004
@<TRIPOS>BOND
     1    29    30    1
     2    30    31   ar
     3    31    25    1
     4    25    26    2
     5    25    27   am
     6    27     1    1
     7     1     2   ar
     8     2     3   ar
     9     3     4   ar
    10     4     7    1
    11     7     8    1
    12     8     9    1
    13     9    10    1
    14    10    13    1
    15    13    14    1
    16    14    15    1
    17    15    16   ar
    18    16    17   ar
    19    17    18   ar
    20    18    19   ar
    21    19    21    1
    22    21    22    2
    23    21    23    1
    24    19    20   ar
    25    10    11    1
    26    11    12    1
    27     4     5   ar
    28     5     6   ar
    29    31    32   ar
    30    32    33   ar
    31    33    34   ar
    32    34    35   ar
    33    35    36   ar
    34    36    39    1
    35    39    40   ar
    36    40    41   ar
    37    41    42   ar
    38    42    43    1
    39    42    44   ar
    40    44    45   ar
    41    36    37   ar
    42    37    38   ar
    43    38    30   ar
    44     6     1   ar
    45    38    33   ar
    46    12     7    1
    47    45    39   ar
    48    20    15   ar
    49    27    28    1
    50    23    24    1
@<TRIPOS>MOLECULE
*****
 45 50 0 0 0
SMALL
GASTEIGER

@<TRIPOS>ATOM
      1 C         -62.2408  -42.3103  -21.8397 C.ar    1  UNL1        0.0702
      2 C         -61.0513  -42.4076  -22.5786 C.ar    1  UNL1        0.0191
      3 C         -60.4334  -43.6470  -22.7520 C.ar    1  UNL1        0.0356
      4 C         -60.9984  -44.7904  -22.1670 C.ar    1  UNL1        0.1318
      5 N         -62.1469  -44.6695  -21.4445 N.ar    1  UNL1       -0.2279
      6 C         -62.7649  -43.4730  -21.2614 C.ar    1  UNL1        0.1149
      7 N         -60.4008  -46.0880  -22.3459 N.pl3   1  UNL1       -0.2932
      8 C         -59.5651  -46.3503  -23.5308 C.3     1  UNL1        0.0923
      9 C         -59.2375  -47.8457  -23.6802 C.3     1  UNL1        0.0252
     10 C         -60.3853  -48.7291  -23.1587 C.3     1  UNL1        0.0472
     11 C         -60.5854  -48.4808  -21.6454 C.3     1  UNL1        0.0252
     12 C         -60.3624  -47.0174  -21.2085 C.3     1  UNL1        0.0923
     13 C         -61.6697  -48.5317  -23.9993 C.3     1  UNL1        0.2054
     14 O         -61.3675  -48.2948  -25.3764 O.3     1  UNL1       -0.4755
     15 C         -62.2169  -47.6949  -26.3240 C.ar    1  UNL1        0.1388
     16 C         -62.5098  -46.3158  -26.3344 C.ar    1  UNL1        0.0369
     17 C         -63.3628  -45.7858  -27.3039 C.ar    1  UNL1        0.0033
     18 C         -63.9326  -46.6158  -28.2708 C.ar    1  UNL1        0.0066
     19 C         -63.6565  -47.9937  -28.2758 C.ar    1  UNL1        0.0785
     20 C         -62.7975  -48.5209  -27.2953 C.ar    1  UNL1        0.0433
     21 C         -64.2596  -48.8801  -29.2956 C.2     1  UNL1        0.3381
     22 O         -64.1395  -50.1321  -29.2052 O.2     1  UNL1       -0.2451
     23 O         -64.9668  -48.3393  -30.3663 O.3     1  UNL1       -0.4771
     24 H         -65.3836  -48.9373  -31.0699 H       1  UNL1        0.2954
     25 C         -62.3978  -40.0274  -20.7413 C.2     1  UNL1        0.2839
     26 O         -61.2173  -40.0867  -20.3034 O.2     1  UNL1       -0.2665
     27 N         -62.8954  -41.0489  -21.6207 N.am    1  UNL1       -0.2766
     28 H         -63.7361  -40.8292  -22.2017 H       1  UNL1        0.1553
     29 C         -65.5757  -40.0689  -20.3270 C.3     1  UNL1        0.0345
     30 C         -64.6474  -38.8984  -20.2030 C.ar    1  UNL1        0.0202
     31 C         -63.2598  -38.8847  -20.3839 C.ar    1  UNL1        0.1946
     32 O         -62.7907  -37.6649  -20.1901 O.2     1  UNL1       -0.4492
     33 C         -63.8023  -36.8868  -19.8920 C.ar    1  UNL1        0.1452
     34 C         -63.7660  -35.5253  -19.6121 C.ar    1  UNL1        0.0375
     35 C         -64.9790  -34.8795  -19.3169 C.ar    1  UNL1        0.0031
     36 C         -66.2040  -35.5998  -19.3055 C.ar    1  UNL1        0.0002
     37 C         -66.1969  -36.9854  -19.5957 C.ar    1  UNL1        0.0028
     38 C         -64.9745  -37.5942  -19.8842 C.ar    1  UNL1        0.0337
     39 C         -67.4793  -34.9067  -18.9922 C.ar    1  UNL1        0.0000
     40 C         -67.5208  -33.8887  -18.0210 C.ar    1  UNL1        0.0004
     41 C         -68.7226  -33.2370  -17.7285 C.ar    1  UNL1        0.0058
     42 C         -69.8955  -33.5928  -18.3997 C.ar    1  UNL1        0.0301
     43 I         -71.7068  -32.6079  -17.9554 I       1  UNL1       -0.0425
     44 C         -69.8665  -34.6022  -19.3657 C.ar    1  UNL1        0.0058
     45 C         -68.6670  -35.2562  -19.6622 C.ar    1  UNL1        0.0004
@<TRIPOS>BOND
     1    29    30    1
     2    30    31   ar
     3    31    25    1
     4    25    26    2
     5    25    27   am
     6    27     1    1
     7     1     2   ar
     8     2     3   ar
     9     3     4   ar
    10     4     7    1
    11     7     8    1
    12     8     9    1
    13     9    10    1
    14    10    13    1
    15    13    14    1
    16    14    15    1
    17    15    16   ar
    18    16    17   ar
    19    17    18   ar
    20    18    19   ar
    21    19    21    1
    22    21    22    2
    23    21    23    1
    24    19    20   ar
    25    10    11    1
    26    11    12    1
    27     4     5   ar
    28     5     6   ar
    29    31    32   ar
    30    32    33   ar
    31    33    34   ar
    32    34    35   ar
    33    35    36   ar
    34    36    39    1
    35    39    40   ar
    36    40    41   ar
    37    41    42   ar
    38    42    43    1
    39    42    44   ar
    40    44    45   ar
    41    36    37   ar
    42    37    38   ar
    43    38    30   ar
    44     6     1   ar
    45    38    33   ar
    46    12     7    1
    47    45    39   ar
    48    20    15   ar
    49    27    28    1
    50    23    24    1
@<TRIPOS>MOLECULE
*****
 45 50 0 0 0
SMALL
GASTEIGER

@<TRIPOS>ATOM
      1 C         -62.5863  -41.5870  -21.5037 C.ar    1  UNL1        0.0702
      2 C         -62.3163  -42.0091  -22.8149 C.ar    1  UNL1        0.0191
      3 C         -61.5316  -43.1413  -23.0391 C.ar    1  UNL1        0.0356
      4 C         -60.9992  -43.8424  -21.9465 C.ar    1  UNL1        0.1318
      5 N         -61.2652  -43.4071  -20.6834 N.ar    1  UNL1       -0.2279
      6 C         -62.0253  -42.3067  -20.4415 C.ar    1  UNL1        0.1149
      7 N         -60.2059  -45.0281  -22.1407 N.pl3   1  UNL1       -0.2932
      8 C         -58.8173  -44.9078  -22.6186 C.3     1  UNL1        0.0923
      9 C         -58.2271  -46.2728  -23.0114 C.3     1  UNL1        0.0252
     10 C         -59.3081  -47.2134  -23.5740 C.3     1  UNL1        0.0472
     11 C         -60.3666  -47.4993  -22.4832 C.3     1  UNL1        0.0252
     12 C         -60.6692  -46.2974  -21.5635 C.3     1  UNL1        0.0923
     13 C         -59.9024  -46.6588  -24.8910 C.3     1  UNL1        0.2054
     14 O         -61.0118  -47.4412  -25.3395 O.3     1  UNL1       -0.4755
     15 C         -61.9773  -47.0513  -26.2855 C.ar    1  UNL1        0.1388
     16 C         -62.4294  -45.7231  -26.4245 C.ar    1  UNL1        0.0369
     17 C         -63.3916  -45.4051  -27.3845 C.ar    1  UNL1        0.0033
     18 C         -63.9140  -46.3983  -28.2146 C.ar    1  UNL1        0.0066
     19 C         -63.4796  -47.7290  -28.0897 C.ar    1  UNL1        0.0785
     20 C         -62.5112  -48.0423  -27.1196 C.ar    1  UNL1        0.0433
     21 C         -64.0315  -48.7877  -28.9638 C.2     1  UNL1        0.3381
     22 O         -63.7726  -50.0011  -28.7388 O.2     1  UNL1       -0.2451
     23 O         -64.8433  -48.4535  -30.0447 O.3     1  UNL1       -0.4771
     24 H         -65.2262  -49.1707  -30.6492 H       1  UNL1        0.2954
     25 C         -62.8176  -39.1503  -20.8313 C.2     1  UNL1        0.2839
     26 O         -61.5802  -38.9369  -20.9409 O.2     1  UNL1       -0.2665
     27 N         -63.3721  -40.4138  -21.2323 N.am    1  UNL1       -0.2766
     28 H         -64.3990  -40.4609  -21.4220 H       1  UNL1        0.1553
     29 C         -66.0227  -39.1571  -20.8397 C.3     1  UNL1        0.0345
     30 C         -65.1067  -38.0849  -20.3311 C.ar    1  UNL1        0.0202
     31 C         -63.7072  -38.0863  -20.3285 C.ar    1  UNL1        0.1946
     32 O         -63.2551  -36.9637  -19.7986 O.2     1  UNL1       -0.4492
     33 C         -64.2890  -36.2345  -19.4566 C.ar    1  UNL1        0.1452
     34 C         -64.2757  -34.9763  -18.8650 C.ar    1  UNL1        0.0375
     35 C         -65.5103  -34.3669  -18.5818 C.ar    1  UNL1        0.0031
     36 C         -66.7335  -35.0203  -18.8922 C.ar    1  UNL1        0.0002
     37 C         -66.7026  -36.3014  -19.4940 C.ar    1  UNL1        0.0028
     38 C         -65.4593  -36.8767  -19.7608 C.ar    1  UNL1        0.0337
     39 C         -68.0317  -34.3666  -18.5884 C.ar    1  UNL1        0.0000
     40 C         -68.0964  -33.2895  -17.6846 C.ar    1  UNL1        0.0004
     41 C         -69.3198  -32.6750  -17.4009 C.ar    1  UNL1        0.0058
     42 C         -70.4914  -33.1274  -18.0138 C.ar    1  UNL1        0.0301
     43 I         -72.3351  -32.1984  -17.5831 I       1  UNL1       -0.0425
     44 C         -70.4393  -34.1962  -18.9126 C.ar    1  UNL1        0.0058
     45 C         -69.2182  -34.8132  -19.2001 C.ar    1  UNL1        0.0004
@<TRIPOS>BOND
     1    29    30    1
     2    30    31   ar
     3    31    25    1
     4    25    26    2
     5    25    27   am
     6    27     1    1
     7     1     2   ar
     8     2     3   ar
     9     3     4   ar
    10     4     7    1
    11     7     8    1
    12     8     9    1
    13     9    10    1
    14    10    13    1
    15    13    14    1
    16    14    15    1
    17    15    16   ar
    18    16    17   ar
    19    17    18   ar
    20    18    19   ar
    21    19    21    1
    22    21    22    2
    23    21    23    1
    24    19    20   ar
    25    10    11    1
    26    11    12    1
    27     4     5   ar
    28     5     6   ar
    29    31    32   ar
    30    32    33   ar
    31    33    34   ar
    32    34    35   ar
    33    35    36   ar
    34    36    39    1
    35    39    40   ar
    36    40    41   ar
    37    41    42   ar
    38    42    43    1
    39    42    44   ar
    40    44    45   ar
    41    36    37   ar
    42    37    38   ar
    43    38    30   ar
    44     6     1   ar
    45    38    33   ar
    46    12     7    1
    47    45    39   ar
    48    20    15   ar
    49    27    28    1
    50    23    24    1
@<TRIPOS>MOLECULE
*****
 45 50 0 0 0
SMALL
GASTEIGER

@<TRIPOS>ATOM
      1 C         -62.0606  -41.4604  -22.3330 C.ar    1  UNL1        0.0702
      2 C         -60.7727  -41.8244  -21.9095 C.ar    1  UNL1        0.0191
      3 C         -60.2204  -43.0412  -22.3122 C.ar    1  UNL1        0.0356
      4 C         -60.9680  -43.9055  -23.1264 C.ar    1  UNL1        0.1318
      5 N         -62.2201  -43.5360  -23.5152 N.ar    1  UNL1       -0.2279
      6 C         -62.7786  -42.3570  -23.1341 C.ar    1  UNL1        0.1149
      7 N         -60.4199  -45.1572  -23.5801 N.pl3   1  UNL1       -0.2932
      8 C         -61.2290  -46.0409  -24.4377 C.3     1  UNL1        0.0923
      9 C         -60.5843  -47.4280  -24.5995 C.3     1  UNL1        0.0252
     10 C         -59.8111  -47.8414  -23.3343 C.3     1  UNL1        0.0472
     11 C         -58.6482  -46.8515  -23.0897 C.3     1  UNL1        0.0252
     12 C         -58.9741  -45.3882  -23.4564 C.3     1  UNL1        0.0923
     13 C         -60.7622  -47.9991  -22.1235 C.3     1  UNL1        0.2054
     14 O         -60.7444  -49.3330  -21.6093 O.3     1  UNL1       -0.4755
     15 C         -60.8858  -50.5158  -22.3578 C.ar    1  UNL1        0.1388
     16 C         -59.7926  -51.2192  -22.9035 C.ar    1  UNL1        0.0369
     17 C         -60.0044  -52.3874  -23.6377 C.ar    1  UNL1        0.0033
     18 C         -61.2992  -52.8690  -23.8377 C.ar    1  UNL1        0.0066
     19 C         -62.4028  -52.1807  -23.3054 C.ar    1  UNL1        0.0785
     20 C         -62.1821  -51.0039  -22.5681 C.ar    1  UNL1        0.0433
     21 C         -63.7785  -52.6833  -23.5163 C.2     1  UNL1        0.3381
     22 O         -64.4982  -52.2079  -24.4361 O.2     1  UNL1       -0.2451
     23 O         -64.2920  -53.6877  -22.6998 O.3     1  UNL1       -0.4771
     24 H         -65.2325  -54.0389  -22.8358 H       1  UNL1        0.2954
     25 C         -62.6422  -39.7228  -20.5765 C.2     1  UNL1        0.2839
     26 O         -61.8538  -40.2228  -19.7296 O.2     1  UNL1       -0.2665
     27 N         -62.6723  -40.2257  -21.9221 N.am    1  UNL1       -0.2766
     28 H         -63.0881  -39.6178  -22.6638 H       1  UNL1        0.1553
     29 C         -65.8368  -39.7449  -20.3189 C.3     1  UNL1        0.0345
     30 C         -64.9034  -38.5954  -20.0854 C.ar    1  UNL1        0.0202
     31 C         -63.5085  -38.5902  -20.1981 C.ar    1  UNL1        0.1946
     32 O         -63.0365  -37.3893  -19.9143 O.2     1  UNL1       -0.4492
     33 C         -64.0532  -36.6154  -19.6226 C.ar    1  UNL1        0.1452
     34 C         -64.0161  -35.2720  -19.2660 C.ar    1  UNL1        0.0375
     35 C         -65.2352  -34.6273  -18.9942 C.ar    1  UNL1        0.0031
     36 C         -66.4669  -35.3308  -19.0820 C.ar    1  UNL1        0.0002
     37 C         -66.4603  -36.6983  -19.4481 C.ar    1  UNL1        0.0028
     38 C         -65.2318  -37.3065  -19.7107 C.ar    1  UNL1        0.0337
     39 C         -67.7485  -34.6391  -18.7926 C.ar    1  UNL1        0.0000
     40 C         -67.8000  -33.5902  -17.8553 C.ar    1  UNL1        0.0004
     41 C         -69.0078  -32.9399  -17.5852 C.ar    1  UNL1        0.0058
     42 C         -70.1769  -33.3279  -18.2451 C.ar    1  UNL1        0.0301
     43 I         -71.9972  -32.3450  -17.8348 I       1  UNL1       -0.0425
     44 C         -70.1380  -34.3682  -19.1775 C.ar    1  UNL1        0.0058
     45 C         -68.9324  -35.0209  -19.4515 C.ar    1  UNL1        0.0004
@<TRIPOS>BOND
     1    29    30    1
     2    30    31   ar
     3    31    25    1
     4    25    26    2
     5    25    27   am
     6    27     1    1
     7     1     2   ar
     8     2     3   ar
     9     3     4   ar
    10     4     7    1
    11     7     8    1
    12     8     9    1
    13     9    10    1
    14    10    13    1
    15    13    14    1
    16    14    15    1
    17    15    16   ar
    18    16    17   ar
    19    17    18   ar
    20    18    19   ar
    21    19    21    1
    22    21    22    2
    23    21    23    1
    24    19    20   ar
    25    10    11    1
    26    11    12    1
    27     4     5   ar
    28     5     6   ar
    29    31    32   ar
    30    32    33   ar
    31    33    34   ar
    32    34    35   ar
    33    35    36   ar
    34    36    39    1
    35    39    40   ar
    36    40    41   ar
    37    41    42   ar
    38    42    43    1
    39    42    44   ar
    40    44    45   ar
    41    36    37   ar
    42    37    38   ar
    43    38    30   ar
    44     6     1   ar
    45    38    33   ar
    46    12     7    1
    47    45    39   ar
    48    20    15   ar
    49    27    28    1
    50    23    24    1
@<TRIPOS>MOLECULE
*****
 45 50 0 0 0
SMALL
GASTEIGER

@<TRIPOS>ATOM
      1 C         -62.2317  -42.2115  -21.9702 C.ar    1  UNL1        0.0702
      2 C         -61.1068  -42.3258  -22.8021 C.ar    1  UNL1        0.0191
      3 C         -60.5054  -43.5694  -23.0006 C.ar    1  UNL1        0.0356
      4 C         -61.0205  -44.6999  -22.3483 C.ar    1  UNL1        0.1318
      5 N         -62.1058  -44.5625  -21.5366 N.ar    1  UNL1       -0.2279
      6 C         -62.7066  -43.3615  -21.3275 C.ar    1  UNL1        0.1149
      7 N         -60.4397  -46.0019  -22.5495 N.pl3   1  UNL1       -0.2932
      8 C         -59.5628  -46.2392  -23.7096 C.3     1  UNL1        0.0923
      9 C         -59.2564  -47.7346  -23.8987 C.3     1  UNL1        0.0252
     10 C         -60.4395  -48.6132  -23.4535 C.3     1  UNL1        0.0472
     11 C         -60.6946  -48.4133  -21.9412 C.3     1  UNL1        0.0252
     12 C         -60.4627  -46.9705  -21.4448 C.3     1  UNL1        0.0923
     13 C         -61.6862  -48.3622  -24.3357 C.3     1  UNL1        0.2054
     14 O         -61.4009  -48.5660  -25.7217 O.3     1  UNL1       -0.4755
     15 C         -61.7387  -47.6995  -26.7774 C.ar    1  UNL1        0.1388
     16 C         -63.0458  -47.5839  -27.2930 C.ar    1  UNL1        0.0369
     17 C         -63.3116  -46.7040  -28.3436 C.ar    1  UNL1        0.0033
     18 C         -62.2865  -45.9315  -28.8922 C.ar    1  UNL1        0.0066
     19 C         -60.9760  -46.0346  -28.3953 C.ar    1  UNL1        0.0785
     20 C         -60.7153  -46.9239  -27.3378 C.ar    1  UNL1        0.0433
     21 C         -59.8837  -45.2214  -28.9742 C.2     1  UNL1        0.3381
     22 O         -59.6846  -44.0421  -28.5748 O.2     1  UNL1       -0.2451
     23 O         -59.0640  -45.7518  -29.9672 O.3     1  UNL1       -0.4771
     24 H         -58.3135  -45.2035  -30.3702 H       1  UNL1        0.2954
     25 C         -62.4293  -40.0083  -20.7254 C.2     1  UNL1        0.2839
     26 O         -61.3019  -40.1436  -20.1782 O.2     1  UNL1       -0.2665
     27 N         -62.8660  -40.9449  -21.7237 N.am    1  UNL1       -0.2766
     28 H         -63.6361  -40.6525  -22.3673 H       1  UNL1        0.1553
     29 C         -65.6017  -40.0468  -20.2706 C.3     1  UNL1        0.0345
     30 C         -64.6728  -38.8743  -20.1725 C.ar    1  UNL1        0.0202
     31 C         -63.2876  -38.8619  -20.3711 C.ar    1  UNL1        0.1946
     32 O         -62.8170  -37.6396  -20.1980 O.2     1  UNL1       -0.4492
     33 C         -63.8254  -36.8585  -19.8966 C.ar    1  UNL1        0.1452
     34 C         -63.7866  -35.4938  -19.6337 C.ar    1  UNL1        0.0375
     35 C         -64.9963  -34.8451  -19.3310 C.ar    1  UNL1        0.0031
     36 C         -66.2205  -35.5660  -19.2955 C.ar    1  UNL1        0.0002
     37 C         -66.2160  -36.9550  -19.5689 C.ar    1  UNL1        0.0028
     38 C         -64.9969  -37.5666  -19.8654 C.ar    1  UNL1        0.0337
     39 C         -67.4922  -34.8699  -18.9745 C.ar    1  UNL1        0.0000
     40 C         -67.5237  -33.8454  -18.0099 C.ar    1  UNL1        0.0004
     41 C         -68.7223  -33.1909  -17.7101 C.ar    1  UNL1        0.0058
     42 C         -69.9019  -33.5505  -18.3674 C.ar    1  UNL1        0.0301
     43 I         -71.7081  -32.5614  -17.9123 I       1  UNL1       -0.0425
     44 C         -69.8828  -34.5664  -19.3268 C.ar    1  UNL1        0.0058
     45 C         -68.6866  -35.2232  -19.6306 C.ar    1  UNL1        0.0004
@<TRIPOS>BOND
     1    29    30    1
     2    30    31   ar
     3    31    25    1
     4    25    26    2
     5    25    27   am
     6    27     1    1
     7     1     2   ar
     8     2     3   ar
     9     3     4   ar
    10     4     7    1
    11     7     8    1
    12     8     9    1
    13     9    10    1
    14    10    13    1
    15    13    14    1
    16    14    15    1
    17    15    16   ar
    18    16    17   ar
    19    17    18   ar
    20    18    19   ar
    21    19    21    1
    22    21    22    2
    23    21    23    1
    24    19    20   ar
    25    10    11    1
    26    11    12    1
    27     4     5   ar
    28     5     6   ar
    29    31    32   ar
    30    32    33   ar
    31    33    34   ar
    32    34    35   ar
    33    35    36   ar
    34    36    39    1
    35    39    40   ar
    36    40    41   ar
    37    41    42   ar
    38    42    43    1
    39    42    44   ar
    40    44    45   ar
    41    36    37   ar
    42    37    38   ar
    43    38    30   ar
    44     6     1   ar
    45    38    33   ar
    46    12     7    1
    47    45    39   ar
    48    20    15   ar
    49    27    28    1
    50    23    24    1
@<TRIPOS>MOLECULE
*****
 45 50 0 0 0
SMALL
GASTEIGER

@<TRIPOS>ATOM
      1 C         -62.6081  -41.5923  -21.4553 C.ar    1  UNL1        0.0702
      2 C         -61.4780  -41.9140  -20.6874 C.ar    1  UNL1        0.0191
      3 C         -60.7453  -43.0682  -20.9681 C.ar    1  UNL1        0.0356
      4 C         -61.1570  -43.9137  -22.0096 C.ar    1  UNL1        0.1318
      5 N         -62.2636  -43.5869  -22.7336 N.ar    1  UNL1       -0.2279
      6 C         -62.9931  -42.4692  -22.4771 C.ar    1  UNL1        0.1149
      7 N         -60.4109  -45.0993  -22.3420 N.pl3   1  UNL1       -0.2932
      8 C         -59.1721  -44.9854  -23.1317 C.3     1  UNL1        0.0923
      9 C         -58.6665  -46.3590  -23.6043 C.3     1  UNL1        0.0252
     10 C         -59.8327  -47.3281  -23.8698 C.3     1  UNL1        0.0472
     11 C         -60.6062  -47.5826  -22.5550 C.3     1  UNL1        0.0252
     12 C         -60.7078  -46.3505  -21.6311 C.3     1  UNL1        0.0923
     13 C         -60.7237  -46.8266  -25.0317 C.3     1  UNL1        0.2054
     14 O         -59.9533  -46.5404  -26.2015 O.3     1  UNL1       -0.4755
     15 C         -60.1767  -45.4888  -27.1089 C.ar    1  UNL1        0.1388
     16 C         -60.7708  -44.2645  -26.7405 C.ar    1  UNL1        0.0369
     17 C         -60.9642  -43.2625  -27.6929 C.ar    1  UNL1        0.0033
     18 C         -60.5713  -43.4636  -29.0171 C.ar    1  UNL1        0.0066
     19 C         -59.9807  -44.6781  -29.4058 C.ar    1  UNL1        0.0785
     20 C         -59.7902  -45.6836  -28.4414 C.ar    1  UNL1        0.0433
     21 C         -59.5648  -44.8998  -30.8084 C.2     1  UNL1        0.3381
     22 O         -60.2918  -44.5052  -31.7602 O.2     1  UNL1       -0.2451
     23 O         -58.3647  -45.5471  -31.0911 O.3     1  UNL1       -0.4771
     24 H         -58.0707  -45.7039  -32.0478 H       1  UNL1        0.2954
     25 C         -62.8518  -39.1447  -20.8286 C.2     1  UNL1        0.2839
     26 O         -61.6218  -38.9171  -20.9837 O.2     1  UNL1       -0.2665
     27 N         -63.4012  -40.4241  -21.1834 N.am    1  UNL1       -0.2766
     28 H         -64.4330  -40.4892  -21.3379 H       1  UNL1        0.1553
     29 C         -66.0566  -39.1282  -20.8725 C.3     1  UNL1        0.0345
     30 C         -65.1388  -38.0704  -20.3377 C.ar    1  UNL1        0.0202
     31 C         -63.7395  -38.0820  -20.3196 C.ar    1  UNL1        0.1946
     32 O         -63.2854  -36.9707  -19.7679 O.2     1  UNL1       -0.4492
     33 C         -64.3179  -36.2392  -19.4265 C.ar    1  UNL1        0.1452
     34 C         -64.3023  -34.9902  -18.8159 C.ar    1  UNL1        0.0375
     35 C         -65.5356  -34.3761  -18.5372 C.ar    1  UNL1        0.0031
     36 C         -66.7599  -35.0160  -18.8709 C.ar    1  UNL1        0.0002
     37 C         -66.7314  -36.2881  -19.4915 C.ar    1  UNL1        0.0028
     38 C         -65.4892  -36.8683  -19.7532 C.ar    1  UNL1        0.0337
     39 C         -68.0567  -34.3575  -18.5717 C.ar    1  UNL1        0.0000
     40 C         -69.2425  -34.7983  -19.1889 C.ar    1  UNL1        0.0004
     41 C         -70.4624  -34.1772  -18.9048 C.ar    1  UNL1        0.0058
     42 C         -70.5139  -33.1104  -18.0037 C.ar    1  UNL1        0.0301
     43 I         -72.3559  -32.1755  -17.5780 I       1  UNL1       -0.0425
     44 C         -69.3431  -32.6640  -17.3850 C.ar    1  UNL1        0.0058
     45 C         -68.1210  -33.2824  -17.6652 C.ar    1  UNL1        0.0004
@<TRIPOS>BOND
     1    29    30    1
     2    30    31   ar
     3    31    25    1
     4    25    26    2
     5    25    27   am
     6    27     1    1
     7     1     2   ar
     8     2     3   ar
     9     3     4   ar
    10     4     7    1
    11     7     8    1
    12     8     9    1
    13     9    10    1
    14    10    13    1
    15    13    14    1
    16    14    15    1
    17    15    16   ar
    18    16    17   ar
    19    17    18   ar
    20    18    19   ar
    21    19    21    1
    22    21    22    2
    23    21    23    1
    24    19    20   ar
    25    10    11    1
    26    11    12    1
    27     4     5   ar
    28     5     6   ar
    29    31    32   ar
    30    32    33   ar
    31    33    34   ar
    32    34    35   ar
    33    35    36   ar
    34    36    39    1
    35    39    40   ar
    36    40    41   ar
    37    41    42   ar
    38    42    43    1
    39    42    44   ar
    40    44    45   ar
    41    36    37   ar
    42    37    38   ar
    43    38    30   ar
    44     6     1   ar
    45    38    33   ar
    46    12     7    1
    47    45    39   ar
    48    20    15   ar
    49    27    28    1
    50    23    24    1
