@<TRIPOS>MOLECULE
*****
 38 42 0 0 0
SMALL
GASTEIGER

@<TRIPOS>ATOM
      1 N          47.8625   13.1320  -23.9415 N.3     1  UNL1       -0.2679
      2 C          48.2059   12.1957  -22.8350 C.3     1  UNL1        0.0978
      3 C          46.9489   11.7755  -22.0464 C.3     1  UNL1        0.0224
      4 C          47.3248   10.7968  -20.9363 C.3     1  UNL1        0.0065
      5 C          47.8670    9.4998  -21.5429 C.3     1  UNL1        0.0277
      6 C          48.9146    9.7465  -22.6038 C.ar    1  UNL1       -0.0073
      7 C          49.7337    8.6837  -23.0099 C.ar    1  UNL1       -0.0015
      8 C          50.6769    8.8694  -24.0193 C.ar    1  UNL1        0.0203
      9 C          50.7929   10.1198  -24.6220 C.ar    1  UNL1        0.0985
     10 N          49.9854   11.1395  -24.2323 N.ar    1  UNL1       -0.2471
     11 C          49.0335   10.9922  -23.2682 C.ar    1  UNL1        0.0695
     12 C          46.5856   12.8654  -24.6382 C.3     1  UNL1        0.0886
     13 O          45.9162   13.9206  -31.0557 O.3     1  UNL1       -0.5058
     14 C          46.1697   12.7352  -30.3653 C.ar    1  UNL1        0.1306
     15 C          46.3495   11.5391  -31.0732 C.ar    1  UNL1        0.0363
     16 C          46.6200   10.3520  -30.3921 C.ar    1  UNL1        0.0028
     17 C          46.7194   10.3502  -29.0002 C.ar    1  UNL1       -0.0043
     18 C          46.5543   11.5401  -28.2757 C.ar    1  UNL1       -0.0206
     19 C          46.2481   12.7382  -28.9584 C.ar    1  UNL1        0.0234
     20 C          46.1143   14.0366  -28.1954 C.3     1  UNL1        0.0983
     21 N          45.8007   13.8116  -26.7776 N.3     1  UNL1       -0.2934
     22 C          46.7850   12.9053  -26.1663 C.3     1  UNL1        0.0748
     23 C          46.6182   11.4990  -26.7711 C.3     1  UNL1        0.0433
     24 H          45.8564   13.9439  -32.0670 H       1  UNL1        0.2922
     25 H          45.8607   14.7432  -26.3024 H       1  UNL1        0.1236
     26 C          48.2253   14.5663  -23.8275 C.3     1  UNL1        0.0725
     27 C          47.0249   15.5046  -23.6077 C.3     1  UNL1        0.0188
     28 C          47.4593   16.9367  -23.2376 C.3     1  UNL1        0.0185
     29 C          46.5173   18.0139  -23.7970 C.3     1  UNL1        0.0686
     30 N          46.8270   18.3027  -25.2031 N.3     1  UNL1       -0.2975
     31 H          45.9444   18.6285  -25.6637 H       1  UNL1        0.1232
     32 C          47.8252   19.3762  -25.2988 C.3     1  UNL1        0.0685
     33 C          48.9423   19.0180  -26.3035 C.3     1  UNL1        0.0158
     34 C          48.4695   17.9813  -27.3600 C.3     1  UNL1        0.0014
     35 C          48.7756   16.5439  -26.9268 C.3     1  UNL1        0.0000
     36 C          50.2910   16.3147  -26.7516 C.3     1  UNL1        0.0000
     37 C          51.0657   17.5950  -26.3790 C.3     1  UNL1        0.0000
     38 C          50.2071   18.5441  -25.5367 C.3     1  UNL1        0.0014
@<TRIPOS>BOND
     1    13    14    1
     2    14    15   ar
     3    15    16   ar
     4    16    17   ar
     5    17    18   ar
     6    18    19   ar
     7    19    20    1
     8    20    21    1
     9    21    22    1
    10    22    12    1
    11    12     1    1
    12     1    26    1
    13    26    27    1
    14    27    28    1
    15    28    29    1
    16    29    30    1
    17    30    32    1
    18    32    33    1
    19    33    34    1
    20    34    35    1
    21    35    36    1
    22    36    37    1
    23    37    38    1
    24     1     2    1
    25     2     3    1
    26     3     4    1
    27     4     5    1
    28     5     6    1
    29     6     7   ar
    30     7     8   ar
    31     8     9   ar
    32     9    10   ar
    33    10    11   ar
    34    22    23    1
    35    19    14   ar
    36    38    33    1
    37    11     2    1
    38    23    18    1
    39    11     6   ar
    40    13    24    1
    41    21    25    1
    42    30    31    1
@<TRIPOS>MOLECULE
*****
 38 42 0 0 0
SMALL
GASTEIGER

@<TRIPOS>ATOM
      1 N          48.0719   12.7314  -24.8019 N.3     1  UNL1       -0.2679
      2 C          48.3331   12.0447  -23.5060 C.3     1  UNL1        0.0978
      3 C          47.0325   11.8586  -22.6986 C.3     1  UNL1        0.0224
      4 C          47.3240   11.1301  -21.3887 C.3     1  UNL1        0.0065
      5 C          47.8202    9.7107  -21.6780 C.3     1  UNL1        0.0277
      6 C          48.9119    9.6772  -22.7224 C.ar    1  UNL1       -0.0073
      7 C          49.6899    8.5184  -22.8550 C.ar    1  UNL1       -0.0015
      8 C          50.6727    8.4409  -23.8403 C.ar    1  UNL1        0.0203
      9 C          50.8696    9.5244  -24.6933 C.ar    1  UNL1        0.0985
     10 N          50.1016   10.6370  -24.5669 N.ar    1  UNL1       -0.2471
     11 C          49.1135   10.7425  -23.6344 C.ar    1  UNL1        0.0695
     12 C          46.6498   12.9713  -25.1287 C.3     1  UNL1        0.0886
     13 O          46.7848    9.7185  -30.7984 O.3     1  UNL1       -0.5058
     14 C          46.4472   11.0464  -30.5363 C.ar    1  UNL1        0.1306
     15 C          46.0356   11.8823  -31.5832 C.ar    1  UNL1        0.0363
     16 C          45.6800   13.2070  -31.3278 C.ar    1  UNL1        0.0028
     17 C          45.7264   13.7060  -30.0255 C.ar    1  UNL1       -0.0043
     18 C          46.1245   12.8805  -28.9633 C.ar    1  UNL1       -0.0206
     19 C          46.5166   11.5483  -29.2215 C.ar    1  UNL1        0.0234
     20 C          46.9023   10.6334  -28.0812 C.3     1  UNL1        0.0983
     21 N          47.3284   11.3853  -26.8928 N.3     1  UNL1       -0.2934
     22 C          46.2999   12.3612  -26.5003 C.3     1  UNL1        0.0748
     23 C          46.2123   13.4601  -27.5755 C.3     1  UNL1        0.0433
     24 H          46.7418    9.3344  -31.7351 H       1  UNL1        0.2922
     25 H          47.4440   10.6889  -26.1189 H       1  UNL1        0.1236
     26 C          49.0086   13.7788  -25.2786 C.3     1  UNL1        0.0725
     27 C          50.0563   14.2093  -24.2361 C.3     1  UNL1        0.0188
     28 C          49.8104   15.6382  -23.7123 C.3     1  UNL1        0.0185
     29 C          48.5084   15.7672  -22.9068 C.3     1  UNL1        0.0686
     30 N          47.7675   16.9734  -23.2969 N.3     1  UNL1       -0.2975
     31 H          48.4571   17.6600  -23.6844 H       1  UNL1        0.1232
     32 C          46.7871   16.6574  -24.3443 C.3     1  UNL1        0.0685
     33 C          46.8649   17.6665  -25.5110 C.3     1  UNL1        0.0158
     34 C          47.4532   17.0278  -26.7996 C.3     1  UNL1        0.0014
     35 C          48.9702   17.2217  -26.8921 C.3     1  UNL1        0.0000
     36 C          49.3490   18.7161  -26.9447 C.3     1  UNL1        0.0000
     37 C          48.3239   19.6334  -26.2475 C.3     1  UNL1        0.0000
     38 C          47.6542   18.9273  -25.0641 C.3     1  UNL1        0.0014
@<TRIPOS>BOND
     1    13    14    1
     2    14    15   ar
     3    15    16   ar
     4    16    17   ar
     5    17    18   ar
     6    18    19   ar
     7    19    20    1
     8    20    21    1
     9    21    22    1
    10    22    12    1
    11    12     1    1
    12     1    26    1
    13    26    27    1
    14    27    28    1
    15    28    29    1
    16    29    30    1
    17    30    32    1
    18    32    33    1
    19    33    34    1
    20    34    35    1
    21    35    36    1
    22    36    37    1
    23    37    38    1
    24     1     2    1
    25     2     3    1
    26     3     4    1
    27     4     5    1
    28     5     6    1
    29     6     7   ar
    30     7     8   ar
    31     8     9   ar
    32     9    10   ar
    33    10    11   ar
    34    22    23    1
    35    19    14   ar
    36    38    33    1
    37    11     2    1
    38    23    18    1
    39    11     6   ar
    40    13    24    1
    41    21    25    1
    42    30    31    1
@<TRIPOS>MOLECULE
*****
 38 42 0 0 0
SMALL
GASTEIGER

@<TRIPOS>ATOM
      1 N          47.7260   13.1901  -23.7986 N.3     1  UNL1       -0.2679
      2 C          48.1256   12.2175  -22.7434 C.3     1  UNL1        0.0978
      3 C          46.9022   11.7221  -21.9459 C.3     1  UNL1        0.0224
      4 C          47.3358   10.7082  -20.8897 C.3     1  UNL1        0.0065
      5 C          47.9037    9.4576  -21.5663 C.3     1  UNL1        0.0277
      6 C          48.9168    9.7850  -22.6388 C.ar    1  UNL1       -0.0073
      7 C          49.7590    8.7685  -23.1109 C.ar    1  UNL1       -0.0015
      8 C          50.6710    9.0293  -24.1322 C.ar    1  UNL1        0.0203
      9 C          50.7327   10.3082  -24.6807 C.ar    1  UNL1        0.0985
     10 N          49.9031   11.2828  -24.2271 N.ar    1  UNL1       -0.2471
     11 C          48.9801   11.0620  -23.2491 C.ar    1  UNL1        0.0695
     12 C          46.4723   12.8802  -24.5189 C.3     1  UNL1        0.0886
     13 O          45.9115   13.9323  -30.9473 O.3     1  UNL1       -0.5058
     14 C          46.1648   12.7493  -30.2528 C.ar    1  UNL1        0.1306
     15 C          46.3706   11.5556  -30.9578 C.ar    1  UNL1        0.0363
     16 C          46.6411   10.3710  -30.2723 C.ar    1  UNL1        0.0028
     17 C          46.7145   10.3694  -28.8788 C.ar    1  UNL1       -0.0043
     18 C          46.5231   11.5570  -28.1569 C.ar    1  UNL1       -0.0206
     19 C          46.2168   12.7522  -28.8447 C.ar    1  UNL1        0.0234
     20 C          46.0549   14.0486  -28.0838 C.3     1  UNL1        0.0983
     21 N          45.7173   13.8193  -26.6722 N.3     1  UNL1       -0.2934
     22 C          46.6997   12.9232  -26.0430 C.3     1  UNL1        0.0748
     23 C          46.5594   11.5156  -26.6514 C.3     1  UNL1        0.0433
     24 H          45.8703   13.9557  -31.9595 H       1  UNL1        0.2922
     25 H          45.7584   14.7512  -26.1955 H       1  UNL1        0.1236
     26 C          47.9933   14.6364  -23.6019 C.3     1  UNL1        0.0725
     27 C          49.3746   14.9455  -22.9968 C.3     1  UNL1        0.0188
     28 C          50.2639   15.7655  -23.9525 C.3     1  UNL1        0.0185
     29 C          50.3991   15.1273  -25.3436 C.3     1  UNL1        0.0686
     30 N          50.2638   16.1382  -26.3999 N.3     1  UNL1       -0.2975
     31 H          51.0620   16.0120  -27.0664 H       1  UNL1        0.1232
     32 C          49.0076   15.9457  -27.1368 C.3     1  UNL1        0.0685
     33 C          48.1638   17.2392  -27.1583 C.3     1  UNL1        0.0158
     34 C          49.0493   18.5159  -27.1784 C.3     1  UNL1        0.0014
     35 C          49.3229   19.0438  -25.7663 C.3     1  UNL1        0.0000
     36 C          48.0177   19.4404  -25.0461 C.3     1  UNL1        0.0000
     37 C          46.7846   18.6530  -25.5338 C.3     1  UNL1        0.0000
     38 C          47.1629   17.2340  -25.9706 C.3     1  UNL1        0.0014
@<TRIPOS>BOND
     1    13    14    1
     2    14    15   ar
     3    15    16   ar
     4    16    17   ar
     5    17    18   ar
     6    18    19   ar
     7    19    20    1
     8    20    21    1
     9    21    22    1
    10    22    12    1
    11    12     1    1
    12     1    26    1
    13    26    27    1
    14    27    28    1
    15    28    29    1
    16    29    30    1
    17    30    32    1
    18    32    33    1
    19    33    34    1
    20    34    35    1
    21    35    36    1
    22    36    37    1
    23    37    38    1
    24     1     2    1
    25     2     3    1
    26     3     4    1
    27     4     5    1
    28     5     6    1
    29     6     7   ar
    30     7     8   ar
    31     8     9   ar
    32     9    10   ar
    33    10    11   ar
    34    22    23    1
    35    19    14   ar
    36    38    33    1
    37    11     2    1
    38    23    18    1
    39    11     6   ar
    40    13    24    1
    41    21    25    1
    42    30    31    1
@<TRIPOS>MOLECULE
*****
 38 42 0 0 0
SMALL
GASTEIGER

@<TRIPOS>ATOM
      1 N          47.3496   15.2454  -24.3005 N.3     1  UNL1       -0.2679
      2 C          47.3059   16.5482  -25.0215 C.3     1  UNL1        0.0978
      3 C          46.6340   17.6403  -24.1647 C.3     1  UNL1        0.0224
      4 C          46.6258   18.9699  -24.9156 C.3     1  UNL1        0.0065
      5 C          48.0607   19.4586  -25.1309 C.3     1  UNL1        0.0277
      6 C          48.9661   18.3816  -25.6823 C.ar    1  UNL1       -0.0073
      7 C          50.1991   18.7497  -26.2389 C.ar    1  UNL1       -0.0015
      8 C          51.0753   17.7748  -26.7127 C.ar    1  UNL1        0.0203
      9 C          50.7144   16.4324  -26.6228 C.ar    1  UNL1        0.0985
     10 N          49.5245   16.0843  -26.0690 N.ar    1  UNL1       -0.2471
     11 C          48.6518   17.0046  -25.5705 C.ar    1  UNL1        0.0695
     12 C          46.4073   14.2116  -24.7804 C.3     1  UNL1        0.0886
     13 O          45.8572   13.8482  -31.2850 O.3     1  UNL1       -0.5058
     14 C          46.1082   12.8433  -30.3506 C.ar    1  UNL1        0.1306
     15 C          46.3138   11.5253  -30.7802 C.ar    1  UNL1        0.0363
     16 C          46.5820   10.5169  -29.8542 C.ar    1  UNL1        0.0028
     17 C          46.6534   10.8168  -28.4932 C.ar    1  UNL1       -0.0043
     18 C          46.4621   12.1326  -28.0458 C.ar    1  UNL1       -0.0206
     19 C          46.1581   13.1508  -28.9764 C.ar    1  UNL1        0.0234
     20 C          45.9964   14.5813  -28.5143 C.3     1  UNL1        0.0983
     21 N          45.6565   14.6631  -27.0871 N.3     1  UNL1       -0.2934
     22 C          46.6371   13.9237  -26.2772 C.3     1  UNL1        0.0748
     23 C          46.4961   12.4179  -26.5669 C.3     1  UNL1        0.0433
     24 H          45.8175   13.6521  -32.2784 H       1  UNL1        0.2922
     25 H          45.6979   15.6760  -26.8232 H       1  UNL1        0.1236
     26 C          48.6473   14.7261  -23.8026 C.3     1  UNL1        0.0725
     27 C          48.9391   15.0664  -22.3299 C.3     1  UNL1        0.0188
     28 C          50.2313   14.3992  -21.8182 C.3     1  UNL1        0.0185
     29 C          50.9088   13.5127  -22.8745 C.3     1  UNL1        0.0686
     30 N          50.8926   12.1027  -22.4647 N.3     1  UNL1       -0.2975
     31 H          50.1388   11.9879  -21.7464 H       1  UNL1        0.1232
     32 C          50.5789   11.2386  -23.6104 C.3     1  UNL1        0.0685
     33 C          49.4555   10.2355  -23.2679 C.3     1  UNL1        0.0158
     34 C          48.0418   10.8442  -23.4806 C.3     1  UNL1        0.0014
     35 C          47.4930   11.4766  -22.1975 C.3     1  UNL1        0.0000
     36 C          47.3442   10.4344  -21.0701 C.3     1  UNL1        0.0000
     37 C          48.3311    9.2555  -21.1906 C.3     1  UNL1        0.0000
     38 C          49.6544    9.6956  -21.8253 C.3     1  UNL1        0.0014
@<TRIPOS>BOND
     1    13    14    1
     2    14    15   ar
     3    15    16   ar
     4    16    17   ar
     5    17    18   ar
     6    18    19   ar
     7    19    20    1
     8    20    21    1
     9    21    22    1
    10    22    12    1
    11    12     1    1
    12     1    26    1
    13    26    27    1
    14    27    28    1
    15    28    29    1
    16    29    30    1
    17    30    32    1
    18    32    33    1
    19    33    34    1
    20    34    35    1
    21    35    36    1
    22    36    37    1
    23    37    38    1
    24     1     2    1
    25     2     3    1
    26     3     4    1
    27     4     5    1
    28     5     6    1
    29     6     7   ar
    30     7     8   ar
    31     8     9   ar
    32     9    10   ar
    33    10    11   ar
    34    22    23    1
    35    19    14   ar
    36    38    33    1
    37    11     2    1
    38    23    18    1
    39    11     6   ar
    40    13    24    1
    41    21    25    1
    42    30    31    1
@<TRIPOS>MOLECULE
*****
 38 42 0 0 0
SMALL
GASTEIGER

@<TRIPOS>ATOM
      1 N          48.2593   12.1820  -22.7626 N.3     1  UNL1       -0.2679
      2 C          49.3554   11.1763  -22.8426 C.3     1  UNL1        0.0978
      3 C          48.8149    9.7433  -22.6622 C.3     1  UNL1        0.0224
      4 C          49.9532    8.7317  -22.7744 C.3     1  UNL1        0.0065
      5 C          50.5423    8.7608  -24.1874 C.3     1  UNL1        0.0277
      6 C          50.8405   10.1631  -24.6652 C.ar    1  UNL1       -0.0073
      7 C          51.6750   10.3387  -25.7780 C.ar    1  UNL1       -0.0015
      8 C          51.9304   11.6176  -26.2700 C.ar    1  UNL1        0.0203
      9 C          51.3443   12.7171  -25.6472 C.ar    1  UNL1        0.0985
     10 N          50.5258   12.5364  -24.5789 N.ar    1  UNL1       -0.2471
     11 C          50.2299   11.3017  -24.0838 C.ar    1  UNL1        0.0695
     12 C          47.0406   11.8699  -23.5399 C.3     1  UNL1        0.0886
     13 O          45.3417   16.0801  -28.2444 O.3     1  UNL1       -0.5058
     14 C          45.6865   14.7313  -28.3323 C.ar    1  UNL1        0.1306
     15 C          45.7287   14.1010  -29.5834 C.ar    1  UNL1        0.0363
     16 C          46.0888   12.7569  -29.6826 C.ar    1  UNL1        0.0028
     17 C          46.4157   12.0329  -28.5352 C.ar    1  UNL1       -0.0043
     18 C          46.3907   12.6503  -27.2757 C.ar    1  UNL1       -0.0206
     19 C          45.9952   14.0020  -27.1669 C.ar    1  UNL1        0.0234
     20 C          46.0092   14.6936  -25.8224 C.3     1  UNL1        0.0983
     21 N          45.9295   13.7362  -24.7106 N.3     1  UNL1       -0.2934
     22 C          46.9866   12.7195  -24.8249 C.3     1  UNL1        0.0748
     23 C          46.7005   11.8313  -26.0499 C.3     1  UNL1        0.0433
     24 H          45.1167   16.6257  -29.0681 H       1  UNL1        0.2922
     25 H          46.0815   14.2818  -23.8294 H       1  UNL1        0.1236
     26 C          48.0211   12.9074  -21.4903 C.3     1  UNL1        0.0725
     27 C          49.3053   13.3683  -20.7775 C.3     1  UNL1        0.0188
     28 C          49.7944   14.7416  -21.2791 C.3     1  UNL1        0.0185
     29 C          48.9031   15.3302  -22.3835 C.3     1  UNL1        0.0686
     30 N          49.4756   15.0748  -23.7114 N.3     1  UNL1       -0.2975
     31 H          48.7161   15.2165  -24.4188 H       1  UNL1        0.1232
     32 C          50.5588   16.0257  -23.9950 C.3     1  UNL1        0.0685
     33 C          50.5961   16.4064  -25.4914 C.3     1  UNL1        0.0158
     34 C          50.8687   17.9213  -25.7037 C.3     1  UNL1        0.0014
     35 C          49.5694   18.7259  -25.8131 C.3     1  UNL1        0.0000
     36 C          48.7205   18.2715  -27.0183 C.3     1  UNL1        0.0000
     37 C          48.9504   16.7976  -27.4094 C.3     1  UNL1        0.0000
     38 C          49.2875   15.9395  -26.1856 C.3     1  UNL1        0.0014
@<TRIPOS>BOND
     1    13    14    1
     2    14    15   ar
     3    15    16   ar
     4    16    17   ar
     5    17    18   ar
     6    18    19   ar
     7    19    20    1
     8    20    21    1
     9    21    22    1
    10    22    12    1
    11    12     1    1
    12     1    26    1
    13    26    27    1
    14    27    28    1
    15    28    29    1
    16    29    30    1
    17    30    32    1
    18    32    33    1
    19    33    34    1
    20    34    35    1
    21    35    36    1
    22    36    37    1
    23    37    38    1
    24     1     2    1
    25     2     3    1
    26     3     4    1
    27     4     5    1
    28     5     6    1
    29     6     7   ar
    30     7     8   ar
    31     8     9   ar
    32     9    10   ar
    33    10    11   ar
    34    22    23    1
    35    19    14   ar
    36    38    33    1
    37    11     2    1
    38    23    18    1
    39    11     6   ar
    40    13    24    1
    41    21    25    1
    42    30    31    1
@<TRIPOS>MOLECULE
*****
 38 42 0 0 0
SMALL
GASTEIGER

@<TRIPOS>ATOM
      1 N          47.2923   13.1852  -23.9099 N.3     1  UNL1       -0.2679
      2 C          47.7365   12.3013  -22.7961 C.3     1  UNL1        0.0978
      3 C          46.5325   11.7306  -22.0196 C.3     1  UNL1        0.0224
      4 C          47.0142   10.8088  -20.9017 C.3     1  UNL1        0.0065
      5 C          47.7196    9.5874  -21.4974 C.3     1  UNL1        0.0277
      6 C          48.7404    9.9594  -22.5478 C.ar    1  UNL1       -0.0073
      7 C          49.6894    9.0052  -22.9409 C.ar    1  UNL1       -0.0015
      8 C          50.6136    9.3038  -23.9407 C.ar    1  UNL1        0.0203
      9 C          50.5807   10.5575  -24.5469 C.ar    1  UNL1        0.0985
     10 N          49.6487   11.4703  -24.1699 N.ar    1  UNL1       -0.2471
     11 C          48.7116   11.2085  -23.2157 C.ar    1  UNL1        0.0695
     12 C          46.1569   12.6858  -24.7150 C.3     1  UNL1        0.0886
     13 O          46.0186   13.9714  -31.1238 O.3     1  UNL1       -0.5058
     14 C          46.2053   12.7600  -30.4579 C.ar    1  UNL1        0.1306
     15 C          46.4319   11.5873  -31.1912 C.ar    1  UNL1        0.0363
     16 C          46.6363   10.3742  -30.5333 C.ar    1  UNL1        0.0028
     17 C          46.6226   10.3228  -29.1388 C.ar    1  UNL1       -0.0043
     18 C          46.4092   11.4885  -28.3880 C.ar    1  UNL1       -0.0206
     19 C          46.1694   12.7130  -29.0501 C.ar    1  UNL1        0.0234
     20 C          45.9852   13.9855  -28.2546 C.3     1  UNL1        0.0983
     21 N          45.5559   13.7148  -26.8756 N.3     1  UNL1       -0.2934
     22 C          46.4798   12.7767  -26.2196 C.3     1  UNL1        0.0748
     23 C          46.3507   11.3943  -26.8856 C.3     1  UNL1        0.0433
     24 H          46.0411   14.0307  -32.1352 H       1  UNL1        0.2922
     25 H          45.5849   14.6285  -26.3642 H       1  UNL1        0.1236
     26 C          47.3383   14.6585  -23.7397 C.3     1  UNL1        0.0725
     27 C          48.5063   15.3417  -24.4737 C.3     1  UNL1        0.0188
     28 C          49.6595   15.7158  -23.5215 C.3     1  UNL1        0.0185
     29 C          50.8160   14.7048  -23.5520 C.3     1  UNL1        0.0686
     30 N          51.5275   14.6826  -22.2676 N.3     1  UNL1       -0.2975
     31 H          51.1344   15.4493  -21.6719 H       1  UNL1        0.1232
     32 C          51.3087   13.4021  -21.5817 C.3     1  UNL1        0.0685
     33 C          50.9239   13.6153  -20.1011 C.3     1  UNL1        0.0158
     34 C          51.4483   12.4717  -19.1892 C.3     1  UNL1        0.0014
     35 C          50.4099   11.3588  -19.0140 C.3     1  UNL1        0.0000
     36 C          49.1234   11.8836  -18.3441 C.3     1  UNL1        0.0000
     37 C          48.8629   13.3810  -18.6054 C.3     1  UNL1        0.0000
     38 C          49.3877   13.8093  -19.9797 C.3     1  UNL1        0.0014
@<TRIPOS>BOND
     1    13    14    1
     2    14    15   ar
     3    15    16   ar
     4    16    17   ar
     5    17    18   ar
     6    18    19   ar
     7    19    20    1
     8    20    21    1
     9    21    22    1
    10    22    12    1
    11    12     1    1
    12     1    26    1
    13    26    27    1
    14    27    28    1
    15    28    29    1
    16    29    30    1
    17    30    32    1
    18    32    33    1
    19    33    34    1
    20    34    35    1
    21    35    36    1
    22    36    37    1
    23    37    38    1
    24     1     2    1
    25     2     3    1
    26     3     4    1
    27     4     5    1
    28     5     6    1
    29     6     7   ar
    30     7     8   ar
    31     8     9   ar
    32     9    10   ar
    33    10    11   ar
    34    22    23    1
    35    19    14   ar
    36    38    33    1
    37    11     2    1
    38    23    18    1
    39    11     6   ar
    40    13    24    1
    41    21    25    1
    42    30    31    1
@<TRIPOS>MOLECULE
*****
 38 42 0 0 0
SMALL
GASTEIGER

@<TRIPOS>ATOM
      1 N          47.6001   12.6955  -24.1141 N.3     1  UNL1       -0.2679
      2 C          47.8107   11.4209  -23.3725 C.3     1  UNL1        0.0978
      3 C          49.2220   10.8526  -23.6249 C.3     1  UNL1        0.0224
      4 C          49.4206    9.5618  -22.8336 C.3     1  UNL1        0.0065
      5 C          49.3718    9.8555  -21.3317 C.3     1  UNL1        0.0277
      6 C          48.1843   10.7056  -20.9429 C.ar    1  UNL1       -0.0073
      7 C          47.8166   10.7819  -19.5922 C.ar    1  UNL1       -0.0015
      8 C          46.7551   11.5945  -19.1977 C.ar    1  UNL1        0.0203
      9 C          46.0679   12.3323  -20.1588 C.ar    1  UNL1        0.0985
     10 N          46.4403   12.2634  -21.4628 N.ar    1  UNL1       -0.2471
     11 C          47.4884   11.5018  -21.8856 C.ar    1  UNL1        0.0695
     12 C          46.3252   12.8066  -24.8552 C.3     1  UNL1        0.0886
     13 O          45.9317   14.0633  -31.2591 O.3     1  UNL1       -0.5058
     14 C          46.1407   12.8542  -30.5956 C.ar    1  UNL1        0.1306
     15 C          46.3328   11.6773  -31.3319 C.ar    1  UNL1        0.0363
     16 C          46.5591   10.4664  -30.6770 C.ar    1  UNL1        0.0028
     17 C          46.6018   10.4214  -29.2830 C.ar    1  UNL1       -0.0043
     18 C          46.4236   11.5915  -28.5297 C.ar    1  UNL1       -0.0206
     19 C          46.1619   12.8139  -29.1873 C.ar    1  UNL1        0.0234
     20 C          46.0149   14.0907  -28.3910 C.3     1  UNL1        0.0983
     21 N          45.6409   13.8281  -26.9945 N.3     1  UNL1       -0.2934
     22 C          46.5871   12.8892  -26.3720 C.3     1  UNL1        0.0748
     23 C          46.4258   11.5044  -27.0257 C.3     1  UNL1        0.0433
     24 H          45.9134   14.1179  -32.2708 H       1  UNL1        0.2922
     25 H          45.6943   14.7440  -26.4890 H       1  UNL1        0.1236
     26 C          48.1041   13.9685  -23.5422 C.3     1  UNL1        0.0725
     27 C          47.2564   15.2015  -23.9040 C.3     1  UNL1        0.0188
     28 C          47.4109   16.3417  -22.8779 C.3     1  UNL1        0.0185
     29 C          46.8994   17.6932  -23.3999 C.3     1  UNL1        0.0686
     30 N          46.9793   17.7540  -24.8649 N.3     1  UNL1       -0.2975
     31 H          46.0047   17.6776  -25.2410 H       1  UNL1        0.1232
     32 C          47.5446   19.0398  -25.2952 C.3     1  UNL1        0.0685
     33 C          48.7300   18.8374  -26.2645 C.3     1  UNL1        0.0158
     34 C          48.4285   17.7583  -27.3411 C.3     1  UNL1        0.0014
     35 C          48.9030   16.3683  -26.9055 C.3     1  UNL1        0.0000
     36 C          50.4289   16.3339  -26.6817 C.3     1  UNL1        0.0000
     37 C          51.0202   17.6996  -26.2773 C.3     1  UNL1        0.0000
     38 C          50.0201   18.5228  -25.4589 C.3     1  UNL1        0.0014
@<TRIPOS>BOND
     1    13    14    1
     2    14    15   ar
     3    15    16   ar
     4    16    17   ar
     5    17    18   ar
     6    18    19   ar
     7    19    20    1
     8    20    21    1
     9    21    22    1
    10    22    12    1
    11    12     1    1
    12     1    26    1
    13    26    27    1
    14    27    28    1
    15    28    29    1
    16    29    30    1
    17    30    32    1
    18    32    33    1
    19    33    34    1
    20    34    35    1
    21    35    36    1
    22    36    37    1
    23    37    38    1
    24     1     2    1
    25     2     3    1
    26     3     4    1
    27     4     5    1
    28     5     6    1
    29     6     7   ar
    30     7     8   ar
    31     8     9   ar
    32     9    10   ar
    33    10    11   ar
    34    22    23    1
    35    19    14   ar
    36    38    33    1
    37    11     2    1
    38    23    18    1
    39    11     6   ar
    40    13    24    1
    41    21    25    1
    42    30    31    1
@<TRIPOS>MOLECULE
*****
 38 42 0 0 0
SMALL
GASTEIGER

@<TRIPOS>ATOM
      1 N          47.7328   15.0838  -23.9907 N.3     1  UNL1       -0.2679
      2 C          47.4954   16.3198  -24.7876 C.3     1  UNL1        0.0978
      3 C          46.7038   17.3658  -23.9766 C.3     1  UNL1        0.0224
      4 C          46.4971   18.6309  -24.8063 C.3     1  UNL1        0.0065
      5 C          47.8470   19.2916  -25.0990 C.3     1  UNL1        0.0277
      6 C          48.8755   18.3113  -25.6141 C.ar    1  UNL1       -0.0073
      7 C          50.0330   18.8037  -26.2331 C.ar    1  UNL1       -0.0015
      8 C          51.0207   17.9255  -26.6761 C.ar    1  UNL1        0.0203
      9 C          50.8469   16.5557  -26.4927 C.ar    1  UNL1        0.0985
     10 N          49.7292   16.0887  -25.8790 N.ar    1  UNL1       -0.2471
     11 C          48.7530   16.9149  -25.4083 C.ar    1  UNL1        0.0695
     12 C          46.9496   13.8963  -24.3948 C.3     1  UNL1        0.0886
     13 O          45.8039   13.8053  -30.8309 O.3     1  UNL1       -0.5058
     14 C          46.1581   12.7663  -29.9702 C.ar    1  UNL1        0.1306
     15 C          46.3460   11.4730  -30.4764 C.ar    1  UNL1        0.0363
     16 C          46.7167   10.4312  -29.6258 C.ar    1  UNL1        0.0028
     17 C          46.9090   10.6729  -28.2650 C.ar    1  UNL1       -0.0043
     18 C          46.7371   11.9634  -27.7425 C.ar    1  UNL1       -0.0206
     19 C          46.3302   13.0145  -28.5939 C.ar    1  UNL1        0.0234
     20 C          46.1871   14.4196  -28.0543 C.3     1  UNL1        0.0983
     21 N          45.9799   14.4317  -26.5996 N.3     1  UNL1       -0.2934
     22 C          47.0443   13.6790  -25.9179 C.3     1  UNL1        0.0748
     23 C          46.9034   12.1846  -26.2616 C.3     1  UNL1        0.0433
     24 H          45.6755   13.6519  -31.8243 H       1  UNL1        0.2922
     25 H          46.0279   15.4328  -26.2949 H       1  UNL1        0.1236
     26 C          49.0950   14.7907  -23.4805 C.3     1  UNL1        0.0725
     27 C          49.2282   14.8834  -21.9497 C.3     1  UNL1        0.0188
     28 C          50.4185   14.0634  -21.4134 C.3     1  UNL1        0.0185
     29 C          51.6010   14.0095  -22.3929 C.3     1  UNL1        0.0686
     30 N          51.9002   12.6245  -22.7783 N.3     1  UNL1       -0.2975
     31 H          51.0458   12.0489  -22.5887 H       1  UNL1        0.1232
     32 C          52.2053   12.5454  -24.2131 C.3     1  UNL1        0.0685
     33 C          51.0276   11.9377  -25.0064 C.3     1  UNL1        0.0158
     34 C          50.1664   10.9814  -24.1355 C.3     1  UNL1        0.0014
     35 C          50.6353    9.5273  -24.2490 C.3     1  UNL1        0.0000
     36 C          50.5216    9.0058  -25.6964 C.3     1  UNL1        0.0000
     37 C          50.6364   10.1172  -26.7593 C.3     1  UNL1        0.0000
     38 C          51.5600   11.2466  -26.2914 C.3     1  UNL1        0.0014
@<TRIPOS>BOND
     1    13    14    1
     2    14    15   ar
     3    15    16   ar
     4    16    17   ar
     5    17    18   ar
     6    18    19   ar
     7    19    20    1
     8    20    21    1
     9    21    22    1
    10    22    12    1
    11    12     1    1
    12     1    26    1
    13    26    27    1
    14    27    28    1
    15    28    29    1
    16    29    30    1
    17    30    32    1
    18    32    33    1
    19    33    34    1
    20    34    35    1
    21    35    36    1
    22    36    37    1
    23    37    38    1
    24     1     2    1
    25     2     3    1
    26     3     4    1
    27     4     5    1
    28     5     6    1
    29     6     7   ar
    30     7     8   ar
    31     8     9   ar
    32     9    10   ar
    33    10    11   ar
    34    22    23    1
    35    19    14   ar
    36    38    33    1
    37    11     2    1
    38    23    18    1
    39    11     6   ar
    40    13    24    1
    41    21    25    1
    42    30    31    1
@<TRIPOS>MOLECULE
*****
 38 42 0 0 0
SMALL
GASTEIGER

@<TRIPOS>ATOM
      1 N          48.0949   12.9565  -24.1172 N.3     1  UNL1       -0.2679
      2 C          48.2098   12.1794  -22.8515 C.3     1  UNL1        0.0978
      3 C          46.8518   12.0851  -22.1268 C.3     1  UNL1        0.0224
      4 C          46.9918   11.2626  -20.8479 C.3     1  UNL1        0.0065
      5 C          47.3611    9.8172  -21.1926 C.3     1  UNL1        0.0277
      6 C          48.5038    9.7272  -22.1775 C.ar    1  UNL1       -0.0073
      7 C          49.1694    8.5035  -22.3357 C.ar    1  UNL1       -0.0015
      8 C          50.1961    8.3778  -23.2700 C.ar    1  UNL1        0.0203
      9 C          50.5495    9.4789  -24.0467 C.ar    1  UNL1        0.0985
     10 N          49.8895   10.6560  -23.8967 N.ar    1  UNL1       -0.2471
     11 C          48.8634   10.8128  -23.0137 C.ar    1  UNL1        0.0695
     12 C          46.7665   12.9370  -24.7667 C.3     1  UNL1        0.0886
     13 O          45.8661   13.8472  -31.1781 O.3     1  UNL1       -0.5058
     14 C          46.1653   12.6813  -30.4731 C.ar    1  UNL1        0.1306
     15 C          46.3452   11.4746  -31.1626 C.ar    1  UNL1        0.0363
     16 C          46.6611   10.3070  -30.4673 C.ar    1  UNL1        0.0028
     17 C          46.8062   10.3357  -29.0797 C.ar    1  UNL1       -0.0043
     18 C          46.6417   11.5369  -28.3740 C.ar    1  UNL1       -0.0206
     19 C          46.2898   12.7147  -29.0699 C.ar    1  UNL1        0.0234
     20 C          46.1557   14.0258  -28.3289 C.3     1  UNL1        0.0983
     21 N          45.8933   13.8241  -26.8972 N.3     1  UNL1       -0.2934
     22 C          46.9148   12.9493  -26.3010 C.3     1  UNL1        0.0748
     23 C          46.7558   11.5280  -26.8718 C.3     1  UNL1        0.0433
     24 H          45.7727   13.8487  -32.1871 H       1  UNL1        0.2922
     25 H          45.9506   14.7662  -26.4429 H       1  UNL1        0.1236
     26 C          48.8466   14.2267  -24.2686 C.3     1  UNL1        0.0725
     27 C          50.3594   14.0420  -24.4850 C.3     1  UNL1        0.0188
     28 C          50.6763   13.2504  -25.7695 C.3     1  UNL1        0.0185
     29 C          52.1173   12.7188  -25.8076 C.3     1  UNL1        0.0686
     30 N          52.1337   11.2575  -25.9517 N.3     1  UNL1       -0.2975
     31 H          51.2611   10.8835  -25.5090 H       1  UNL1        0.1232
     32 C          52.1327   10.8817  -27.3719 C.3     1  UNL1        0.0685
     33 C          51.7404    9.3999  -27.5617 C.3     1  UNL1        0.0158
     34 C          52.5810    8.7090  -28.6709 C.3     1  UNL1        0.0014
     35 C          51.8930    8.7817  -30.0380 C.3     1  UNL1        0.0000
     36 C          50.5285    8.0623  -30.0254 C.3     1  UNL1        0.0000
     37 C          49.8603    8.0393  -28.6357 C.3     1  UNL1        0.0000
     38 C          50.2135    9.2896  -27.8236 C.3     1  UNL1        0.0014
@<TRIPOS>BOND
     1    13    14    1
     2    14    15   ar
     3    15    16   ar
     4    16    17   ar
     5    17    18   ar
     6    18    19   ar
     7    19    20    1
     8    20    21    1
     9    21    22    1
    10    22    12    1
    11    12     1    1
    12     1    26    1
    13    26    27    1
    14    27    28    1
    15    28    29    1
    16    29    30    1
    17    30    32    1
    18    32    33    1
    19    33    34    1
    20    34    35    1
    21    35    36    1
    22    36    37    1
    23    37    38    1
    24     1     2    1
    25     2     3    1
    26     3     4    1
    27     4     5    1
    28     5     6    1
    29     6     7   ar
    30     7     8   ar
    31     8     9   ar
    32     9    10   ar
    33    10    11   ar
    34    22    23    1
    35    19    14   ar
    36    38    33    1
    37    11     2    1
    38    23    18    1
    39    11     6   ar
    40    13    24    1
    41    21    25    1
    42    30    31    1
