@<TRIPOS>MOLECULE
*****
 50 55 0 0 0
SMALL
GASTEIGER

@<TRIPOS>ATOM
      1 O          60.6978   85.0270    6.9429 O.2     1  UNL1       -0.2701
      2 C          60.4411   85.2283    8.1612 C.2     1  UNL1        0.2483
      3 N          59.7507   84.2257    8.9283 N.am    1  UNL1       -0.2945
      4 H          59.6748   84.3462    9.9632 H       1  UNL1        0.1501
      5 C          60.8843   86.4899    8.7917 C.ar    1  UNL1        0.0808
      6 C          62.0005   86.4833    9.6438 C.ar    1  UNL1        0.0080
      7 C          62.4331   87.6622   10.2556 C.ar    1  UNL1        0.0148
      8 C          61.7666   88.8740   10.0162 C.ar    1  UNL1        0.0502
      9 C          60.6574   88.8847    9.1560 C.ar    1  UNL1        0.0443
     10 C          60.2211   87.7063    8.5420 C.ar    1  UNL1        0.1457
     11 F          59.1855   87.7706    7.6670 F       1  UNL1       -0.2040
     12 N          62.2040   90.0868   10.6586 N.pl3   1  UNL1       -0.3040
     13 C          62.8341   91.1631    9.8809 C.3     1  UNL1        0.1123
     14 C          64.1943   91.5163   10.4935 C.3     1  UNL1        0.1136
     15 N          64.1247   91.5772   11.9622 N.pl3   1  UNL1       -0.2897
     16 C          62.8203   91.4612   12.6322 C.3     1  UNL1        0.1136
     17 C          62.0832   90.2187   12.1198 C.3     1  UNL1        0.1123
     18 C          65.3316   91.8317   12.7055 C.ar    1  UNL1        0.1323
     19 C          65.3000   92.0420   14.0912 C.ar    1  UNL1        0.0410
     20 C          66.4897   92.2671   14.7891 C.ar    1  UNL1        0.0428
     21 BR         66.3743   92.5443   16.6854 Br      1  UNL1       -0.0489
     22 C          67.7208   92.2729   14.0987 C.ar    1  UNL1        0.0968
     23 C          67.7045   92.0354   12.7125 C.ar    1  UNL1        0.1046
     24 N          66.5306   91.8209   12.0637 N.ar    1  UNL1       -0.2292
     25 C          69.0253   92.5121   14.8267 C.3     1  UNL1        0.4205
     26 F          69.1183   93.8098   15.3003 F       1  UNL1       -0.1658
     27 F          69.1214   91.6509   15.9047 F       1  UNL1       -0.1658
     28 F          70.0849   92.2870   13.9670 F       1  UNL1       -0.1658
     29 C          59.1943   82.9944    8.3530 C.3     1  UNL1        0.1535
     30 C          60.1662   81.8518    8.5287 C.2     1  UNL1        0.2443
     31 O          60.2682   80.9580    7.6437 O.2     1  UNL1       -0.2730
     32 N          61.0259   81.8292    9.6789 N.am    1  UNL1       -0.2825
     33 H          61.1774   82.7277   10.1911 H       1  UNL1        0.1549
     34 C          61.7326   80.6626   10.1331 C.ar    1  UNL1        0.0535
     35 C          61.9573   80.4839   11.5049 C.ar    1  UNL1        0.0353
     36 C          62.6204   79.3392   11.9538 C.ar    1  UNL1        0.1002
     37 N          63.0302   78.3959   11.0652 N.ar    1  UNL1       -0.2422
     38 C          62.8094   78.5314    9.7309 C.ar    1  UNL1        0.1002
     39 C          62.1509   79.6615    9.2397 C.ar    1  UNL1        0.0353
     40 C          57.7983   82.6923    8.9384 C.3     1  UNL1        0.0569
     41 C          57.8244   81.4690    9.8083 C.ar    1  UNL1       -0.0017
     42 C          57.5139   80.1692    9.4191 C.ar    1  UNL1        0.0681
     43 N          57.7318   79.3068   10.4381 N.ar    1  UNL1       -0.3523
     44 C          58.1887   80.0491   11.4618 C.ar    1  UNL1        0.0563
     45 C          58.5743   79.6011   12.7244 C.ar    1  UNL1        0.0170
     46 C          59.0487   80.5547   13.6439 C.ar    1  UNL1        0.0015
     47 C          59.1299   81.9183   13.2834 C.ar    1  UNL1        0.0001
     48 C          58.7360   82.3412   12.0009 C.ar    1  UNL1        0.0012
     49 C          58.2644   81.3735   11.1136 C.ar    1  UNL1        0.0131
     50 H          57.5901   78.2724   10.4224 H       1  UNL1        0.1660
@<TRIPOS>BOND
     1     1     2    2
     2     2     3   am
     3     3    29    1
     4    29    40    1
     5    40    41    1
     6    41    42   ar
     7    42    43   ar
     8    43    44   ar
     9    44    45   ar
    10    45    46   ar
    11    46    47   ar
    12    47    48   ar
    13    48    49   ar
    14    29    30    1
    15    30    31    2
    16    30    32   am
    17    32    34    1
    18    34    35   ar
    19    35    36   ar
    20    36    37   ar
    21    37    38   ar
    22    38    39   ar
    23     2     5    1
    24     5     6   ar
    25     6     7   ar
    26     7     8   ar
    27     8    12    1
    28    12    13    1
    29    13    14    1
    30    14    15    1
    31    15    18    1
    32    18    19   ar
    33    19    20   ar
    34    20    21    1
    35    20    22   ar
    36    22    25    1
    37    25    26    1
    38    25    27    1
    39    25    28    1
    40    22    23   ar
    41    23    24   ar
    42    15    16    1
    43    16    17    1
    44     8     9   ar
    45     9    10   ar
    46    10    11    1
    47    49    41   ar
    48    39    34   ar
    49    10     5   ar
    50    49    44   ar
    51    17    12    1
    52    24    18   ar
    53     3     4    1
    54    43    50    1
    55    32    33    1
@<TRIPOS>MOLECULE
*****
 50 55 0 0 0
SMALL
GASTEIGER

@<TRIPOS>ATOM
      1 O          60.3555   85.1228    6.8179 O.2     1  UNL1       -0.2701
      2 C          60.2546   85.2421    8.0694 C.2     1  UNL1        0.2483
      3 N          59.7481   84.1515    8.8596 N.am    1  UNL1       -0.2945
      4 H          59.8064   84.2137    9.9008 H       1  UNL1        0.1501
      5 C          60.6900   86.5011    8.7103 C.ar    1  UNL1        0.0808
      6 C          61.8039   86.4936    9.5654 C.ar    1  UNL1        0.0080
      7 C          62.2292   87.6701   10.1870 C.ar    1  UNL1        0.0148
      8 C          61.5575   88.8804    9.9546 C.ar    1  UNL1        0.0502
      9 C          60.4506   88.8921    9.0915 C.ar    1  UNL1        0.0443
     10 C          60.0216   87.7162    8.4678 C.ar    1  UNL1        0.1457
     11 F          58.9881   87.7819    7.5904 F       1  UNL1       -0.2040
     12 N          61.9873   90.0906   10.6070 N.pl3   1  UNL1       -0.3040
     13 C          62.8010   91.0821    9.8894 C.3     1  UNL1        0.1123
     14 C          64.0817   91.3714   10.6808 C.3     1  UNL1        0.1136
     15 N          63.8066   91.5086   12.1200 N.pl3   1  UNL1       -0.2897
     16 C          62.4146   91.5147   12.5953 C.3     1  UNL1        0.1136
     17 C          61.6682   90.3018   12.0286 C.3     1  UNL1        0.1123
     18 C          64.9099   91.7163   13.0219 C.ar    1  UNL1        0.1323
     19 C          66.2345   91.7061   12.5630 C.ar    1  UNL1        0.0410
     20 C          67.2839   91.9305   13.4583 C.ar    1  UNL1        0.0428
     21 BR         69.0730   91.9060   12.7620 Br      1  UNL1       -0.0489
     22 C          67.0072   92.1759   14.8204 C.ar    1  UNL1        0.0968
     23 C          65.6617   92.1983   15.2298 C.ar    1  UNL1        0.1046
     24 N          64.6649   91.9754   14.3344 N.ar    1  UNL1       -0.2292
     25 C          68.1215   92.4238   15.8132 C.3     1  UNL1        0.4205
     26 F          69.2336   91.6452   15.5414 F       1  UNL1       -0.1658
     27 F          68.5019   93.7526   15.7638 F       1  UNL1       -0.1658
     28 F          67.6821   92.1222   17.0894 F       1  UNL1       -0.1658
     29 C          59.2063   82.9110    8.2902 C.3     1  UNL1        0.1535
     30 C          60.1822   81.7760    8.4907 C.2     1  UNL1        0.2443
     31 O          60.3012   80.8737    7.6164 O.2     1  UNL1       -0.2730
     32 N          61.0265   81.7701    9.6524 N.am    1  UNL1       -0.2825
     33 H          61.1660   82.6747   10.1573 H       1  UNL1        0.1549
     34 C          61.7337   80.6124   10.1281 C.ar    1  UNL1        0.0535
     35 C          61.9084   80.4301   11.5066 C.ar    1  UNL1        0.0353
     36 C          62.5719   79.2937   11.9754 C.ar    1  UNL1        0.1002
     37 N          63.0304   78.3616   11.0988 N.ar    1  UNL1       -0.2422
     38 C          62.8587   78.5005    9.7577 C.ar    1  UNL1        0.1002
     39 C          62.2017   79.6227    9.2468 C.ar    1  UNL1        0.0353
     40 C          57.8044   82.6070    8.8604 C.3     1  UNL1        0.0569
     41 C          57.8323   81.4124    9.7692 C.ar    1  UNL1       -0.0017
     42 C          57.5367   80.0981    9.4188 C.ar    1  UNL1        0.0681
     43 N          57.7518   79.2705   10.4667 N.ar    1  UNL1       -0.3523
     44 C          58.1922   80.0490   11.4706 C.ar    1  UNL1        0.0563
     45 C          58.5692   79.6448   12.7505 C.ar    1  UNL1        0.0170
     46 C          59.0263   80.6313   13.6436 C.ar    1  UNL1        0.0015
     47 C          59.0996   81.9834   13.2406 C.ar    1  UNL1        0.0001
     48 C          58.7147   82.3619   11.9414 C.ar    1  UNL1        0.0012
     49 C          58.2602   81.3623   11.0810 C.ar    1  UNL1        0.0131
     50 H          57.6190   78.2350   10.4827 H       1  UNL1        0.1660
@<TRIPOS>BOND
     1     1     2    2
     2     2     3   am
     3     3    29    1
     4    29    40    1
     5    40    41    1
     6    41    42   ar
     7    42    43   ar
     8    43    44   ar
     9    44    45   ar
    10    45    46   ar
    11    46    47   ar
    12    47    48   ar
    13    48    49   ar
    14    29    30    1
    15    30    31    2
    16    30    32   am
    17    32    34    1
    18    34    35   ar
    19    35    36   ar
    20    36    37   ar
    21    37    38   ar
    22    38    39   ar
    23     2     5    1
    24     5     6   ar
    25     6     7   ar
    26     7     8   ar
    27     8    12    1
    28    12    13    1
    29    13    14    1
    30    14    15    1
    31    15    18    1
    32    18    19   ar
    33    19    20   ar
    34    20    21    1
    35    20    22   ar
    36    22    25    1
    37    25    26    1
    38    25    27    1
    39    25    28    1
    40    22    23   ar
    41    23    24   ar
    42    15    16    1
    43    16    17    1
    44     8     9   ar
    45     9    10   ar
    46    10    11    1
    47    49    41   ar
    48    39    34   ar
    49    10     5   ar
    50    49    44   ar
    51    17    12    1
    52    24    18   ar
    53     3     4    1
    54    43    50    1
    55    32    33    1
@<TRIPOS>MOLECULE
*****
 50 55 0 0 0
SMALL
GASTEIGER

@<TRIPOS>ATOM
      1 O          59.8214   85.6448    6.8348 O.2     1  UNL1       -0.2701
      2 C          60.1528   85.5780    8.0499 C.2     1  UNL1        0.2483
      3 N          60.0288   84.3352    8.7643 N.am    1  UNL1       -0.2945
      4 H          60.4401   84.2608    9.7217 H       1  UNL1        0.1501
      5 C          60.6948   86.7815    8.7158 C.ar    1  UNL1        0.0808
      6 C          59.8906   87.9261    8.8391 C.ar    1  UNL1        0.0080
      7 C          60.3842   89.0766    9.4587 C.ar    1  UNL1        0.0148
      8 C          61.6872   89.1008    9.9800 C.ar    1  UNL1        0.0502
      9 C          62.4887   87.9539    9.8676 C.ar    1  UNL1        0.0443
     10 C          61.9982   86.8003    9.2476 C.ar    1  UNL1        0.1457
     11 F          62.7812   85.6921    9.2169 F       1  UNL1       -0.2040
     12 N          62.2009   90.2920   10.6058 N.pl3   1  UNL1       -0.3040
     13 C          62.8821   91.3237    9.8109 C.3     1  UNL1        0.1123
     14 C          64.2675   91.6038   10.4044 C.3     1  UNL1        0.1136
     15 N          64.2193   91.6812   11.8732 N.pl3   1  UNL1       -0.2897
     16 C          62.9186   91.6459   12.5593 C.3     1  UNL1        0.1136
     17 C          62.1056   90.4433   12.0671 C.3     1  UNL1        0.1123
     18 C          65.4477   91.8727   12.6000 C.ar    1  UNL1        0.1323
     19 C          65.4449   92.0970   13.9838 C.ar    1  UNL1        0.0410
     20 C          66.6539   92.2595   14.6658 C.ar    1  UNL1        0.0428
     21 BR         66.5775   92.5601   16.5606 Br      1  UNL1       -0.0489
     22 C          67.8749   92.1884   13.9613 C.ar    1  UNL1        0.0968
     23 C          67.8283   91.9397   12.5778 C.ar    1  UNL1        0.1046
     24 N          66.6363   91.7871   11.9446 N.ar    1  UNL1       -0.2292
     25 C          69.1996   92.3588   14.6719 C.3     1  UNL1        0.4205
     26 F          69.3145   91.5044   15.7553 F       1  UNL1       -0.1658
     27 F          70.2356   92.0881   13.7965 F       1  UNL1       -0.1658
     28 F          69.3171   93.6585   15.1299 F       1  UNL1       -0.1658
     29 C          59.4107   83.1270    8.2032 C.3     1  UNL1        0.1535
     30 C          60.2604   81.9167    8.5099 C.2     1  UNL1        0.2443
     31 O          60.2394   80.9115    7.7472 O.2     1  UNL1       -0.2730
     32 N          61.1477   81.9469    9.6387 N.am    1  UNL1       -0.2825
     33 H          61.4096   82.8814   10.0270 H       1  UNL1        0.1549
     34 C          61.7397   80.7775   10.2291 C.ar    1  UNL1        0.0535
     35 C          61.7860   80.6586   11.6248 C.ar    1  UNL1        0.0353
     36 C          62.3366   79.5125   12.2034 C.ar    1  UNL1        0.1002
     37 N          62.8092   78.5107   11.4158 N.ar    1  UNL1       -0.2422
     38 C          62.7601   78.5881   10.0596 C.ar    1  UNL1        0.1002
     39 C          62.2188   79.7175    9.4403 C.ar    1  UNL1        0.0353
     40 C          57.9524   82.9766    8.6865 C.3     1  UNL1        0.0569
     41 C          57.8773   82.9186   10.1848 C.ar    1  UNL1       -0.0017
     42 C          58.0084   81.7817   10.9772 C.ar    1  UNL1        0.0681
     43 N          57.9758   82.1139   12.2879 N.ar    1  UNL1       -0.3523
     44 C          57.8379   83.4507   12.3291 C.ar    1  UNL1        0.0563
     45 C          57.7784   84.2595   13.4631 C.ar    1  UNL1        0.0170
     46 C          57.6553   85.6484   13.2743 C.ar    1  UNL1        0.0015
     47 C          57.5993   86.1917   11.9714 C.ar    1  UNL1        0.0001
     48 C          57.6642   85.3511   10.8452 C.ar    1  UNL1        0.0012
     49 C          57.7800   83.9783   11.0645 C.ar    1  UNL1        0.0131
     50 H          58.0596   81.4627   13.0998 H       1  UNL1        0.1660
@<TRIPOS>BOND
     1     1     2    2
     2     2     3   am
     3     3    29    1
     4    29    40    1
     5    40    41    1
     6    41    42   ar
     7    42    43   ar
     8    43    44   ar
     9    44    45   ar
    10    45    46   ar
    11    46    47   ar
    12    47    48   ar
    13    48    49   ar
    14    29    30    1
    15    30    31    2
    16    30    32   am
    17    32    34    1
    18    34    35   ar
    19    35    36   ar
    20    36    37   ar
    21    37    38   ar
    22    38    39   ar
    23     2     5    1
    24     5     6   ar
    25     6     7   ar
    26     7     8   ar
    27     8    12    1
    28    12    13    1
    29    13    14    1
    30    14    15    1
    31    15    18    1
    32    18    19   ar
    33    19    20   ar
    34    20    21    1
    35    20    22   ar
    36    22    25    1
    37    25    26    1
    38    25    27    1
    39    25    28    1
    40    22    23   ar
    41    23    24   ar
    42    15    16    1
    43    16    17    1
    44     8     9   ar
    45     9    10   ar
    46    10    11    1
    47    49    41   ar
    48    39    34   ar
    49    10     5   ar
    50    49    44   ar
    51    17    12    1
    52    24    18   ar
    53     3     4    1
    54    43    50    1
    55    32    33    1
@<TRIPOS>MOLECULE
*****
 50 55 0 0 0
SMALL
GASTEIGER

@<TRIPOS>ATOM
      1 O          57.8114   83.4217   12.1431 O.2     1  UNL1       -0.2701
      2 C          59.0000   83.5613   12.5408 C.2     1  UNL1        0.2483
      3 N          59.8227   82.4044   12.7761 N.am    1  UNL1       -0.2945
      4 H          60.8412   82.5399   12.9643 H       1  UNL1        0.1501
      5 C          59.5404   84.9240   12.7316 C.ar    1  UNL1        0.0808
      6 C          60.8228   85.2340   12.2508 C.ar    1  UNL1        0.0080
      7 C          61.3562   86.5132   12.4256 C.ar    1  UNL1        0.0148
      8 C          60.6118   87.5121   13.0723 C.ar    1  UNL1        0.0502
      9 C          59.3253   87.2074   13.5437 C.ar    1  UNL1        0.0443
     10 C          58.7882   85.9277   13.3709 C.ar    1  UNL1        0.1457
     11 F          57.5166   85.6920   13.7831 F       1  UNL1       -0.2040
     12 N          61.1677   88.8268   13.2653 N.pl3   1  UNL1       -0.3040
     13 C          60.6276   89.9844   12.5383 C.3     1  UNL1        0.1123
     14 C          61.7572   90.6952   11.7842 C.3     1  UNL1        0.1136
     15 N          62.9681   90.8122   12.6123 N.pl3   1  UNL1       -0.2897
     16 C          62.9215   90.4107   14.0266 C.3     1  UNL1        0.1136
     17 C          62.3349   88.9995   14.1456 C.3     1  UNL1        0.1123
     18 C          64.1512   91.3962   12.0352 C.ar    1  UNL1        0.1323
     19 C          65.3398   91.5049   12.7706 C.ar    1  UNL1        0.0410
     20 C          66.4780   92.0580   12.1775 C.ar    1  UNL1        0.0428
     21 BR         68.0727   92.1737   13.2405 Br      1  UNL1       -0.0489
     22 C          66.4307   92.4975   10.8371 C.ar    1  UNL1        0.0968
     23 C          65.2224   92.3478   10.1328 C.ar    1  UNL1        0.1046
     24 N          64.1338   91.8068   10.7387 N.ar    1  UNL1       -0.2292
     25 C          67.6465   93.0991   10.1672 C.3     1  UNL1        0.4205
     26 F          67.5077   93.1369    8.7902 F       1  UNL1       -0.1658
     27 F          67.8339   94.3930   10.6182 F       1  UNL1       -0.1658
     28 F          68.7649   92.3439   10.4700 F       1  UNL1       -0.1658
     29 C          59.3311   81.0225   12.7037 C.3     1  UNL1        0.1535
     30 C          58.8266   80.7211   11.3125 C.2     1  UNL1        0.2443
     31 O          58.2821   79.6118   11.0566 O.2     1  UNL1       -0.2730
     32 N          58.9068   81.7357   10.2992 N.am    1  UNL1       -0.2825
     33 H          59.0199   82.7271   10.6109 H       1  UNL1        0.1549
     34 C          58.7848   81.4780    8.8902 C.ar    1  UNL1        0.0535
     35 C          59.8620   80.9079    8.1983 C.ar    1  UNL1        0.0353
     36 C          59.7395   80.6312    6.8345 C.ar    1  UNL1        0.1002
     37 N          58.5749   80.8983    6.1865 N.ar    1  UNL1       -0.2422
     38 C          57.5062   81.4326    6.8344 C.ar    1  UNL1        0.1002
     39 C          57.5869   81.7257    8.1981 C.ar    1  UNL1        0.0353
     40 C          60.4092   80.0264   13.1817 C.3     1  UNL1        0.0569
     41 C          61.7383   80.7026   13.3552 C.ar    1  UNL1       -0.0017
     42 C          62.4967   80.7515   14.5214 C.ar    1  UNL1        0.0681
     43 N          63.6787   81.3670   14.2901 N.ar    1  UNL1       -0.3523
     44 C          63.6778   81.6953   12.9863 C.ar    1  UNL1        0.0563
     45 C          64.6948   82.3289   12.2737 C.ar    1  UNL1        0.0170
     46 C          64.4918   82.5565   10.9001 C.ar    1  UNL1        0.0015
     47 C          63.2925   82.1467   10.2760 C.ar    1  UNL1        0.0001
     48 C          62.2843   81.5070   11.0199 C.ar    1  UNL1        0.0012
     49 C          62.5122   81.3008   12.3807 C.ar    1  UNL1        0.0131
     50 H          64.4420   81.5346   14.9827 H       1  UNL1        0.1660
@<TRIPOS>BOND
     1     1     2    2
     2     2     3   am
     3     3    29    1
     4    29    40    1
     5    40    41    1
     6    41    42   ar
     7    42    43   ar
     8    43    44   ar
     9    44    45   ar
    10    45    46   ar
    11    46    47   ar
    12    47    48   ar
    13    48    49   ar
    14    29    30    1
    15    30    31    2
    16    30    32   am
    17    32    34    1
    18    34    35   ar
    19    35    36   ar
    20    36    37   ar
    21    37    38   ar
    22    38    39   ar
    23     2     5    1
    24     5     6   ar
    25     6     7   ar
    26     7     8   ar
    27     8    12    1
    28    12    13    1
    29    13    14    1
    30    14    15    1
    31    15    18    1
    32    18    19   ar
    33    19    20   ar
    34    20    21    1
    35    20    22   ar
    36    22    25    1
    37    25    26    1
    38    25    27    1
    39    25    28    1
    40    22    23   ar
    41    23    24   ar
    42    15    16    1
    43    16    17    1
    44     8     9   ar
    45     9    10   ar
    46    10    11    1
    47    49    41   ar
    48    39    34   ar
    49    10     5   ar
    50    49    44   ar
    51    17    12    1
    52    24    18   ar
    53     3     4    1
    54    43    50    1
    55    32    33    1
@<TRIPOS>MOLECULE
*****
 50 55 0 0 0
SMALL
GASTEIGER

@<TRIPOS>ATOM
      1 O          58.7360   83.8103   12.5830 O.2     1  UNL1       -0.2701
      2 C          59.8652   83.9026   13.1372 C.2     1  UNL1        0.2483
      3 N          60.6336   82.7172   13.4107 N.am    1  UNL1       -0.2945
      4 H          61.6212   82.8204   13.7354 H       1  UNL1        0.1501
      5 C          60.3960   85.2411   13.4717 C.ar    1  UNL1        0.0808
      6 C          60.0895   85.8165   14.7155 C.ar    1  UNL1        0.0080
      7 C          60.5748   87.0829   15.0504 C.ar    1  UNL1        0.0148
      8 C          61.3881   87.7931   14.1536 C.ar    1  UNL1        0.0502
      9 C          61.7048   87.2149   12.9144 C.ar    1  UNL1        0.0443
     10 C          61.2205   85.9475   12.5755 C.ar    1  UNL1        0.1457
     11 F          61.6025   85.3964   11.3954 F       1  UNL1       -0.2040
     12 N          61.8763   89.1050   14.4932 N.pl3   1  UNL1       -0.3040
     13 C          61.9651   90.1602   13.4739 C.3     1  UNL1        0.1123
     14 C          63.3915   90.7203   13.4315 C.3     1  UNL1        0.1136
     15 N          63.9326   90.9206   14.7853 N.pl3   1  UNL1       -0.2897
     16 C          63.0572   90.7303   15.9520 C.3     1  UNL1        0.1136
     17 C          62.3582   89.3693   15.8589 C.3     1  UNL1        0.1123
     18 C          65.2898   91.3795   14.9307 C.ar    1  UNL1        0.1323
     19 C          66.1919   91.3288   13.8587 C.ar    1  UNL1        0.0410
     20 C          67.4973   91.7998   14.0238 C.ar    1  UNL1        0.0428
     21 BR         68.6794   91.7038   12.5139 Br      1  UNL1       -0.0489
     22 C          67.9015   92.3336   15.2663 C.ar    1  UNL1        0.0968
     23 C          66.9551   92.3838   16.3056 C.ar    1  UNL1        0.1046
     24 N          65.6942   91.9168   16.1128 N.ar    1  UNL1       -0.2292
     25 C          69.3072   92.8526   15.4752 C.3     1  UNL1        0.4205
     26 F          69.3400   94.2353   15.5367 F       1  UNL1       -0.1658
     27 F          69.8155   92.3552   16.6615 F       1  UNL1       -0.1658
     28 F          70.1130   92.4456   14.4274 F       1  UNL1       -0.1658
     29 C          60.1355   81.3521   13.1986 C.3     1  UNL1        0.1535
     30 C          59.2971   81.2926   11.9439 C.2     1  UNL1        0.2443
     31 O          58.2159   80.6419   11.9282 O.2     1  UNL1       -0.2730
     32 N          59.7043   82.0423   10.7886 N.am    1  UNL1       -0.2825
     33 H          60.3756   82.8307   10.9318 H       1  UNL1        0.1549
     34 C          59.2032   81.8114    9.4611 C.ar    1  UNL1        0.0535
     35 C          57.9604   82.3434    9.0916 C.ar    1  UNL1        0.0353
     36 C          57.4808   82.1443    7.7948 C.ar    1  UNL1        0.1002
     37 N          58.2242   81.4522    6.8915 N.ar    1  UNL1       -0.2422
     38 C          59.4417   80.9412    7.2141 C.ar    1  UNL1        0.1002
     39 C          59.9580   81.1165    8.5005 C.ar    1  UNL1        0.0353
     40 C          61.2961   80.3343   13.1957 C.3     1  UNL1        0.0569
     41 C          62.1882   80.5275   12.0038 C.ar    1  UNL1       -0.0017
     42 C          62.2423   79.7213   10.8704 C.ar    1  UNL1        0.0681
     43 N          63.0952   80.2438    9.9600 N.ar    1  UNL1       -0.3523
     44 C          63.5698   81.3783   10.5037 C.ar    1  UNL1        0.0563
     45 C          64.4662   82.2794    9.9308 C.ar    1  UNL1        0.0170
     46 C          64.8123   83.4238   10.6726 C.ar    1  UNL1        0.0015
     47 C          64.2579   83.6414   11.9538 C.ar    1  UNL1        0.0001
     48 C          63.3537   82.7158   12.5057 C.ar    1  UNL1        0.0012
     49 C          63.0347   81.5882   11.7489 C.ar    1  UNL1        0.0131
     50 H          63.3221   79.8518    9.0192 H       1  UNL1        0.1660
@<TRIPOS>BOND
     1     1     2    2
     2     2     3   am
     3     3    29    1
     4    29    40    1
     5    40    41    1
     6    41    42   ar
     7    42    43   ar
     8    43    44   ar
     9    44    45   ar
    10    45    46   ar
    11    46    47   ar
    12    47    48   ar
    13    48    49   ar
    14    29    30    1
    15    30    31    2
    16    30    32   am
    17    32    34    1
    18    34    35   ar
    19    35    36   ar
    20    36    37   ar
    21    37    38   ar
    22    38    39   ar
    23     2     5    1
    24     5     6   ar
    25     6     7   ar
    26     7     8   ar
    27     8    12    1
    28    12    13    1
    29    13    14    1
    30    14    15    1
    31    15    18    1
    32    18    19   ar
    33    19    20   ar
    34    20    21    1
    35    20    22   ar
    36    22    25    1
    37    25    26    1
    38    25    27    1
    39    25    28    1
    40    22    23   ar
    41    23    24   ar
    42    15    16    1
    43    16    17    1
    44     8     9   ar
    45     9    10   ar
    46    10    11    1
    47    49    41   ar
    48    39    34   ar
    49    10     5   ar
    50    49    44   ar
    51    17    12    1
    52    24    18   ar
    53     3     4    1
    54    43    50    1
    55    32    33    1
@<TRIPOS>MOLECULE
*****
 50 55 0 0 0
SMALL
GASTEIGER

@<TRIPOS>ATOM
      1 O          63.0348   84.2247    8.5629 O.2     1  UNL1       -0.2701
      2 C          62.3269   84.3479    9.5993 C.2     1  UNL1        0.2483
      3 N          61.4111   83.3039    9.9758 N.am    1  UNL1       -0.2945
      4 H          60.9418   83.3568   10.9076 H       1  UNL1        0.1501
      5 C          62.4737   85.5607   10.4317 C.ar    1  UNL1        0.0808
      6 C          62.6636   85.4309   11.8171 C.ar    1  UNL1        0.0080
      7 C          62.7981   86.5632   12.6240 C.ar    1  UNL1        0.0148
      8 C          62.7596   87.8477   12.0597 C.ar    1  UNL1        0.0502
      9 C          62.5810   87.9793   10.6736 C.ar    1  UNL1        0.0443
     10 C          62.4455   86.8480    9.8626 C.ar    1  UNL1        0.1457
     11 F          62.3397   87.0160    8.5199 F       1  UNL1       -0.2040
     12 N          62.8837   89.0154   12.8938 N.pl3   1  UNL1       -0.3040
     13 C          62.7740   90.3637   12.3192 C.3     1  UNL1        0.1123
     14 C          64.0164   91.1845   12.6838 C.3     1  UNL1        0.1136
     15 N          64.4014   90.9841   14.0899 N.pl3   1  UNL1       -0.2897
     16 C          63.5266   90.2026   14.9774 C.3     1  UNL1        0.1136
     17 C          63.1949   88.8563   14.3239 C.3     1  UNL1        0.1123
     18 C          65.5899   91.6300   14.5841 C.ar    1  UNL1        0.1323
     19 C          66.8206   91.4855   13.9286 C.ar    1  UNL1        0.0410
     20 C          67.9531   92.1405   14.4202 C.ar    1  UNL1        0.0428
     21 BR         69.6054   91.9017   13.4720 Br      1  UNL1       -0.0489
     22 C          67.8530   92.9530   15.5700 C.ar    1  UNL1        0.0968
     23 C          66.5929   93.0851   16.1806 C.ar    1  UNL1        0.1046
     24 N          65.5118   92.4342   15.6781 N.ar    1  UNL1       -0.2292
     25 C          69.0606   93.6758   16.1251 C.3     1  UNL1        0.4205
     26 F          68.7047   94.8446   16.7764 F       1  UNL1       -0.1658
     27 F          69.7166   92.8600   17.0291 F       1  UNL1       -0.1658
     28 F          69.9230   93.9994   15.0934 F       1  UNL1       -0.1658
     29 C          61.1382   82.1188    9.1527 C.3     1  UNL1        0.1535
     30 C          60.8349   80.9307   10.0345 C.2     1  UNL1        0.2443
     31 O          61.0885   79.7597    9.6382 O.2     1  UNL1       -0.2730
     32 N          60.3213   81.1488   11.3578 N.am    1  UNL1       -0.2825
     33 H          60.4569   82.0941   11.7829 H       1  UNL1        0.1549
     34 C          59.6849   80.1335   12.1520 C.ar    1  UNL1        0.0535
     35 C          59.6502   80.2704   13.5464 C.ar    1  UNL1        0.0353
     36 C          59.0101   79.3000   14.3210 C.ar    1  UNL1        0.1002
     37 N          58.4096   78.2373   13.7231 N.ar    1  UNL1       -0.2422
     38 C          58.4092   78.0872   12.3722 C.ar    1  UNL1        0.1002
     39 C          59.0391   79.0341   11.5607 C.ar    1  UNL1        0.0353
     40 C          60.0233   82.4049    8.1240 C.3     1  UNL1        0.0569
     41 C          59.2067   83.5999    8.5226 C.ar    1  UNL1       -0.0017
     42 C          58.2170   83.6379    9.5007 C.ar    1  UNL1        0.0681
     43 N          57.7538   84.8993    9.6545 N.ar    1  UNL1       -0.3523
     44 C          58.4509   85.6589    8.7916 C.ar    1  UNL1        0.0563
     45 C          58.3442   87.0358    8.6008 C.ar    1  UNL1        0.0170
     46 C          59.1947   87.6363    7.6543 C.ar    1  UNL1        0.0015
     47 C          60.1250   86.8567    6.9312 C.ar    1  UNL1        0.0001
     48 C          60.2121   85.4692    7.1465 C.ar    1  UNL1        0.0012
     49 C          59.3517   84.9020    8.0868 C.ar    1  UNL1        0.0131
     50 H          57.0169   85.2172   10.3225 H       1  UNL1        0.1660
@<TRIPOS>BOND
     1     1     2    2
     2     2     3   am
     3     3    29    1
     4    29    40    1
     5    40    41    1
     6    41    42   ar
     7    42    43   ar
     8    43    44   ar
     9    44    45   ar
    10    45    46   ar
    11    46    47   ar
    12    47    48   ar
    13    48    49   ar
    14    29    30    1
    15    30    31    2
    16    30    32   am
    17    32    34    1
    18    34    35   ar
    19    35    36   ar
    20    36    37   ar
    21    37    38   ar
    22    38    39   ar
    23     2     5    1
    24     5     6   ar
    25     6     7   ar
    26     7     8   ar
    27     8    12    1
    28    12    13    1
    29    13    14    1
    30    14    15    1
    31    15    18    1
    32    18    19   ar
    33    19    20   ar
    34    20    21    1
    35    20    22   ar
    36    22    25    1
    37    25    26    1
    38    25    27    1
    39    25    28    1
    40    22    23   ar
    41    23    24   ar
    42    15    16    1
    43    16    17    1
    44     8     9   ar
    45     9    10   ar
    46    10    11    1
    47    49    41   ar
    48    39    34   ar
    49    10     5   ar
    50    49    44   ar
    51    17    12    1
    52    24    18   ar
    53     3     4    1
    54    43    50    1
    55    32    33    1
@<TRIPOS>MOLECULE
*****
 50 55 0 0 0
SMALL
GASTEIGER

@<TRIPOS>ATOM
      1 O          58.0972   82.6241   12.3969 O.2     1  UNL1       -0.2701
      2 C          59.1410   83.2504   12.0669 C.2     1  UNL1        0.2483
      3 N          59.8009   82.9488   10.8244 N.am    1  UNL1       -0.2945
      4 H          60.5749   83.5713   10.5006 H       1  UNL1        0.1501
      5 C          59.6551   84.3128   12.9571 C.ar    1  UNL1        0.0808
      6 C          60.9577   84.2142   13.4724 C.ar    1  UNL1        0.0080
      7 C          61.4620   85.2029   14.3206 C.ar    1  UNL1        0.0148
      8 C          60.6786   86.3173   14.6590 C.ar    1  UNL1        0.0502
      9 C          59.3803   86.4233   14.1360 C.ar    1  UNL1        0.0443
     10 C          58.8719   85.4352   13.2869 C.ar    1  UNL1        0.1457
     11 F          57.6368   85.6070   12.7508 F       1  UNL1       -0.2040
     12 N          61.1935   87.3294   15.5452 N.pl3   1  UNL1       -0.3040
     13 C          60.5152   88.6264   15.6784 C.3     1  UNL1        0.1123
     14 C          61.5089   89.7610   15.4040 C.3     1  UNL1        0.1136
     15 N          62.8066   89.5093   16.0509 N.pl3   1  UNL1       -0.2897
     16 C          62.9542   88.3616   16.9590 C.3     1  UNL1        0.1136
     17 C          62.4519   87.0878   16.2701 C.3     1  UNL1        0.1123
     18 C          63.8811   90.4448   15.8409 C.ar    1  UNL1        0.1323
     19 C          64.4880   90.5832   14.5848 C.ar    1  UNL1        0.0410
     20 C          65.5153   91.5137   14.4060 C.ar    1  UNL1        0.0428
     21 BR         66.3000   91.6537   12.6593 Br      1  UNL1       -0.0489
     22 C          65.9331   92.3180   15.4880 C.ar    1  UNL1        0.0968
     23 C          65.2797   92.1587   16.7233 C.ar    1  UNL1        0.1046
     24 N          64.2851   91.2445   16.8642 N.ar    1  UNL1       -0.2292
     25 C          67.0413   93.3350   15.3252 C.3     1  UNL1        0.4205
     26 F          67.4131   93.8877   16.5389 F       1  UNL1       -0.1658
     27 F          68.1523   92.7277   14.7686 F       1  UNL1       -0.1658
     28 F          66.6161   94.3565   14.4954 F       1  UNL1       -0.1658
     29 C          59.4099   81.8462    9.9368 C.3     1  UNL1        0.1535
     30 C          59.8441   82.1387    8.5202 C.2     1  UNL1        0.2443
     31 O          59.7950   81.2376    7.6380 O.2     1  UNL1       -0.2730
     32 N          60.2460   83.4717    8.1679 N.am    1  UNL1       -0.2825
     33 H          59.9442   84.2525    8.7939 H       1  UNL1        0.1549
     34 C          60.9871   83.8021    6.9812 C.ar    1  UNL1        0.0535
     35 C          62.2359   84.4270    7.1005 C.ar    1  UNL1        0.0353
     36 C          62.9720   84.7265    5.9516 C.ar    1  UNL1        0.1002
     37 N          62.4861   84.3979    4.7255 N.ar    1  UNL1       -0.2422
     38 C          61.2877   83.7737    4.5787 C.ar    1  UNL1        0.1002
     39 C          60.5190   83.4572    5.7017 C.ar    1  UNL1        0.0353
     40 C          59.9436   80.4967   10.4633 C.3     1  UNL1        0.0569
     41 C          60.9600   80.6984   11.5496 C.ar    1  UNL1       -0.0017
     42 C          60.9020   80.1877   12.8432 C.ar    1  UNL1        0.0681
     43 N          62.0305   80.4947   13.5227 N.ar    1  UNL1       -0.3523
     44 C          62.8046   81.1832   12.6657 C.ar    1  UNL1        0.0563
     45 C          64.0793   81.6954   12.9028 C.ar    1  UNL1        0.0170
     46 C          64.7241   82.3682   11.8486 C.ar    1  UNL1        0.0015
     47 C          64.0893   82.5086   10.5943 C.ar    1  UNL1        0.0001
     48 C          62.8032   81.9791   10.3830 C.ar    1  UNL1        0.0012
     49 C          62.1873   81.3229   11.4489 C.ar    1  UNL1        0.0131
     50 H          62.2580   80.2321   14.5074 H       1  UNL1        0.1660
@<TRIPOS>BOND
     1     1     2    2
     2     2     3   am
     3     3    29    1
     4    29    40    1
     5    40    41    1
     6    41    42   ar
     7    42    43   ar
     8    43    44   ar
     9    44    45   ar
    10    45    46   ar
    11    46    47   ar
    12    47    48   ar
    13    48    49   ar
    14    29    30    1
    15    30    31    2
    16    30    32   am
    17    32    34    1
    18    34    35   ar
    19    35    36   ar
    20    36    37   ar
    21    37    38   ar
    22    38    39   ar
    23     2     5    1
    24     5     6   ar
    25     6     7   ar
    26     7     8   ar
    27     8    12    1
    28    12    13    1
    29    13    14    1
    30    14    15    1
    31    15    18    1
    32    18    19   ar
    33    19    20   ar
    34    20    21    1
    35    20    22   ar
    36    22    25    1
    37    25    26    1
    38    25    27    1
    39    25    28    1
    40    22    23   ar
    41    23    24   ar
    42    15    16    1
    43    16    17    1
    44     8     9   ar
    45     9    10   ar
    46    10    11    1
    47    49    41   ar
    48    39    34   ar
    49    10     5   ar
    50    49    44   ar
    51    17    12    1
    52    24    18   ar
    53     3     4    1
    54    43    50    1
    55    32    33    1
