@<TRIPOS>MOLECULE
*****
 41 45 0 0 0
SMALL
GASTEIGER

@<TRIPOS>ATOM
      1 C         -28.4349   51.9142   -5.7614 C.3     1  UNL1        0.0439
      2 C         -27.9299   50.7789   -6.6622 C.3     1  UNL1        0.1375
      3 C         -28.3680   49.4182   -6.1058 C.3     1  UNL1        0.0439
      4 C         -26.3766   50.8490   -6.8438 C.3     1  UNL1        0.0709
      5 C         -26.2420   51.1043   -8.2995 C.ar    1  UNL1        0.0325
      6 C         -27.4746   51.1595   -8.9000 C.ar    1  UNL1        0.1401
      7 C         -27.6268   51.3981  -10.2898 C.ar    1  UNL1        0.0888
      8 C         -26.4501   51.5461  -11.0733 C.ar    1  UNL1        0.0282
      9 C         -25.2084   51.4771  -10.4252 C.ar    1  UNL1        0.0997
     10 N         -23.9851   51.6046  -10.9692 N.ar    1  UNL1       -0.2137
     11 C         -23.1650   51.4518   -9.8924 C.ar    1  UNL1        0.1984
     12 N         -23.8183   51.2485   -8.7218 N.ar    1  UNL1       -0.3255
     13 C         -25.1064   51.2657   -9.0802 C.ar    1  UNL1        0.0755
     14 O         -28.4752   50.9477   -7.9745 O.3     1  UNL1       -0.4824
     15 H         -23.4129   51.1123   -7.7690 H       1  UNL1        0.1686
     16 C         -28.9619   51.4921  -10.9241 C.2     1  UNL1        0.2525
     17 O         -29.4026   52.6245  -11.2579 O.2     1  UNL1       -0.2697
     18 N         -29.7617   50.3300  -11.1990 N.am    1  UNL1       -0.2785
     19 H         -30.3988   50.3737  -12.0263 H       1  UNL1        0.1552
     20 C         -29.8044   49.1526  -10.3708 C.ar    1  UNL1        0.0784
     21 C         -29.0050   48.0298  -10.6553 C.ar    1  UNL1        0.0231
     22 C         -29.0820   46.8712   -9.8600 C.ar    1  UNL1        0.1002
     23 C         -29.9368   46.8659   -8.7431 C.ar    1  UNL1        0.1463
     24 F         -30.0214   45.7724   -7.9433 F       1  UNL1       -0.2042
     25 C         -30.7082   47.9899   -8.4404 C.ar    1  UNL1        0.0605
     26 C         -30.6442   49.1278   -9.2469 C.ar    1  UNL1        0.1557
     27 F         -31.4204   50.1991   -8.9460 F       1  UNL1       -0.2028
     28 C         -28.2476   45.6517  -10.1709 C.3     1  UNL1        0.4207
     29 F         -28.9198   44.4793   -9.8702 F       1  UNL1       -0.1658
     30 F         -27.0807   45.6856   -9.4285 F       1  UNL1       -0.1658
     31 F         -27.9274   45.6458  -11.5161 F       1  UNL1       -0.1658
     32 N         -21.7372   51.5313   -9.9751 N.pl3   1  UNL1       -0.2816
     33 H         -21.2044   50.6490  -10.1465 H       1  UNL1        0.1551
     34 C         -21.0105   52.7052   -9.5871 C.ar    1  UNL1        0.0889
     35 C         -20.3599   52.7304   -8.3429 C.ar    1  UNL1        0.1543
     36 F         -20.4345   51.6614   -7.5107 F       1  UNL1       -0.2028
     37 C         -19.6476   53.8648   -7.9429 C.ar    1  UNL1        0.0310
     38 C         -19.5671   54.9750   -8.7858 C.ar    1  UNL1        0.0033
     39 C         -20.1891   54.9504  -10.0362 C.ar    1  UNL1        0.0128
     40 C         -20.9055   53.8195  -10.4468 C.ar    1  UNL1        0.0733
     41 CL        -21.5904   53.8012  -12.0676 Cl      1  UNL1       -0.0809
@<TRIPOS>BOND
     1     1     2    1
     2     2     3    1
     3     2     4    1
     4     4     5    1
     5     5     6   ar
     6     6     7   ar
     7     7    16    1
     8    16    17    2
     9    16    18   am
    10    18    20    1
    11    20    21   ar
    12    21    22   ar
    13    22    28    1
    14    28    29    1
    15    28    30    1
    16    28    31    1
    17    22    23   ar
    18    23    24    1
    19    23    25   ar
    20    25    26   ar
    21    26    27    1
    22     7     8   ar
    23     8     9   ar
    24     9    10   ar
    25    10    11   ar
    26    11    32    1
    27    32    34    1
    28    34    35   ar
    29    35    36    1
    30    35    37   ar
    31    37    38   ar
    32    38    39   ar
    33    39    40   ar
    34    40    41    1
    35    11    12   ar
    36    12    13   ar
    37     6    14    1
    38    14     2    1
    39    13     5   ar
    40    26    20   ar
    41    13     9   ar
    42    40    34   ar
    43    18    19    1
    44    32    33    1
    45    12    15    1
@<TRIPOS>MOLECULE
*****
 41 45 0 0 0
SMALL
GASTEIGER

@<TRIPOS>ATOM
      1 C         -30.0246   49.7964  -11.4271 C.3     1  UNL1        0.0439
      2 C         -29.3978   51.1272  -10.9898 C.3     1  UNL1        0.1375
      3 C         -30.1915   52.3076  -11.5641 C.3     1  UNL1        0.0439
      4 C         -27.8878   51.2020  -11.3960 C.3     1  UNL1        0.0709
      5 C         -27.2109   51.2686  -10.0770 C.ar    1  UNL1        0.0325
      6 C         -28.1293   51.2577   -9.0575 C.ar    1  UNL1        0.1401
      7 C         -27.7433   51.3072   -7.6936 C.ar    1  UNL1        0.0888
      8 C         -26.3569   51.4073   -7.3967 C.ar    1  UNL1        0.0282
      9 C         -25.4488   51.4221   -8.4653 C.ar    1  UNL1        0.0997
     10 N         -24.1072   51.4949   -8.4076 N.ar    1  UNL1       -0.2137
     11 C         -23.7527   51.4727   -9.7226 C.ar    1  UNL1        0.1984
     12 N         -24.8006   51.3805  -10.5782 N.ar    1  UNL1       -0.3255
     13 C         -25.8616   51.3521   -9.7648 C.ar    1  UNL1        0.0755
     14 O         -29.4123   51.2019   -9.5608 O.3     1  UNL1       -0.4824
     15 H         -24.7832   51.3403  -11.6216 H       1  UNL1        0.1686
     16 C         -28.7390   51.2588   -6.5983 C.2     1  UNL1        0.2525
     17 O         -29.3019   52.3261   -6.2352 O.2     1  UNL1       -0.2697
     18 N         -29.1074   50.0283   -5.9532 N.am    1  UNL1       -0.2785
     19 H         -30.0820   49.9565   -5.5830 H       1  UNL1        0.1552
     20 C         -28.2070   48.9306   -5.7119 C.ar    1  UNL1        0.0784
     21 C         -27.6712   48.6927   -4.4324 C.ar    1  UNL1        0.0231
     22 C         -26.7639   47.6387   -4.2165 C.ar    1  UNL1        0.1002
     23 C         -26.4339   46.7918   -5.2898 C.ar    1  UNL1        0.1463
     24 F         -25.5772   45.7540   -5.1126 F       1  UNL1       -0.2042
     25 C         -26.9881   47.0067   -6.5535 C.ar    1  UNL1        0.0605
     26 C         -27.8697   48.0681   -6.7663 C.ar    1  UNL1        0.1557
     27 F         -28.3772   48.2707   -8.0081 F       1  UNL1       -0.2028
     28 C         -26.1635   47.3898   -2.8535 C.3     1  UNL1        0.4207
     29 F         -24.8228   47.0542   -2.9365 F       1  UNL1       -0.1658
     30 F         -26.8336   46.3504   -2.2334 F       1  UNL1       -0.1658
     31 F         -26.2871   48.5311   -2.0825 F       1  UNL1       -0.1658
     32 N         -22.3925   51.5091  -10.1701 N.pl3   1  UNL1       -0.2816
     33 H         -21.9837   50.6363  -10.5733 H       1  UNL1        0.1551
     34 C         -21.5118   52.5975   -9.8597 C.ar    1  UNL1        0.0889
     35 C         -20.7796   52.5685   -8.6619 C.ar    1  UNL1        0.1543
     36 F         -20.9192   51.5296   -7.8004 F       1  UNL1       -0.2028
     37 C         -19.9168   53.6195   -8.3375 C.ar    1  UNL1        0.0310
     38 C         -19.7674   54.6984   -9.2111 C.ar    1  UNL1        0.0033
     39 C         -20.4716   54.7246  -10.4171 C.ar    1  UNL1        0.0128
     40 C         -21.3388   53.6775  -10.7517 C.ar    1  UNL1        0.0733
     41 CL        -22.1298   53.7110  -12.3232 Cl      1  UNL1       -0.0809
@<TRIPOS>BOND
     1     1     2    1
     2     2     3    1
     3     2     4    1
     4     4     5    1
     5     5     6   ar
     6     6     7   ar
     7     7    16    1
     8    16    17    2
     9    16    18   am
    10    18    20    1
    11    20    21   ar
    12    21    22   ar
    13    22    28    1
    14    28    29    1
    15    28    30    1
    16    28    31    1
    17    22    23   ar
    18    23    24    1
    19    23    25   ar
    20    25    26   ar
    21    26    27    1
    22     7     8   ar
    23     8     9   ar
    24     9    10   ar
    25    10    11   ar
    26    11    32    1
    27    32    34    1
    28    34    35   ar
    29    35    36    1
    30    35    37   ar
    31    37    38   ar
    32    38    39   ar
    33    39    40   ar
    34    40    41    1
    35    11    12   ar
    36    12    13   ar
    37     6    14    1
    38    14     2    1
    39    13     5   ar
    40    26    20   ar
    41    13     9   ar
    42    40    34   ar
    43    18    19    1
    44    32    33    1
    45    12    15    1
@<TRIPOS>MOLECULE
*****
 41 45 0 0 0
SMALL
GASTEIGER

@<TRIPOS>ATOM
      1 C         -30.4330   51.2647   -6.5367 C.3     1  UNL1        0.0439
      2 C         -29.0094   50.7635   -6.2590 C.3     1  UNL1        0.1375
      3 C         -28.8228   50.4818   -4.7627 C.3     1  UNL1        0.0439
      4 C         -27.9396   51.7768   -6.7876 C.3     1  UNL1        0.0709
      5 C         -27.2485   50.9853   -7.8357 C.ar    1  UNL1        0.0325
      6 C         -27.7779   49.7222   -7.9201 C.ar    1  UNL1        0.1401
      7 C         -27.2990   48.7639   -8.8495 C.ar    1  UNL1        0.0888
      8 C         -26.2108   49.1329   -9.6861 C.ar    1  UNL1        0.0282
      9 C         -25.6920   50.4303   -9.5664 C.ar    1  UNL1        0.0997
     10 N         -24.6845   50.9842  -10.2641 N.ar    1  UNL1       -0.2137
     11 C         -24.6143   52.2385   -9.7375 C.ar    1  UNL1        0.1984
     12 N         -25.5276   52.4842   -8.7659 N.ar    1  UNL1       -0.3255
     13 C         -26.1961   51.3300   -8.6716 C.ar    1  UNL1        0.0755
     14 O         -28.7882   49.5567   -6.9957 O.3     1  UNL1       -0.4824
     15 H         -25.6743   53.3639   -8.2224 H       1  UNL1        0.1686
     16 C         -27.8997   47.4146   -8.9591 C.2     1  UNL1        0.2525
     17 O         -28.5909   47.1330   -9.9745 O.2     1  UNL1       -0.2697
     18 N         -27.6968   46.4032   -7.9583 N.am    1  UNL1       -0.2785
     19 H         -27.6997   45.4081   -8.2775 H       1  UNL1        0.1552
     20 C         -27.5739   46.6629   -6.5470 C.ar    1  UNL1        0.0784
     21 C         -28.6843   46.5694   -5.6874 C.ar    1  UNL1        0.0231
     22 C         -28.5596   46.8608   -4.3162 C.ar    1  UNL1        0.1002
     23 C         -27.2953   47.2021   -3.8034 C.ar    1  UNL1        0.1463
     24 F         -27.1353   47.4706   -2.4824 F       1  UNL1       -0.2042
     25 C         -26.1854   47.2656   -4.6485 C.ar    1  UNL1        0.0605
     26 C         -26.3205   46.9977   -6.0120 C.ar    1  UNL1        0.1557
     27 F         -25.2322   47.0882   -6.8172 F       1  UNL1       -0.2028
     28 C         -29.7496   46.7882   -3.3894 C.3     1  UNL1        0.4207
     29 F         -29.9304   47.9706   -2.6923 F       1  UNL1       -0.1658
     30 F         -29.5635   45.7683   -2.4735 F       1  UNL1       -0.1658
     31 F         -30.8905   46.5305   -4.1272 F       1  UNL1       -0.1658
     32 N         -23.6825   53.2285  -10.1882 N.pl3   1  UNL1       -0.2816
     33 H         -24.0624   54.1188  -10.5817 H       1  UNL1        0.1551
     34 C         -22.2856   52.9486  -10.3528 C.ar    1  UNL1        0.0889
     35 C         -21.5894   52.2975   -9.3218 C.ar    1  UNL1        0.1543
     36 F         -22.2291   51.9542   -8.1756 F       1  UNL1       -0.2028
     37 C         -20.2269   52.0165   -9.4593 C.ar    1  UNL1        0.0310
     38 C         -19.5535   52.3693  -10.6304 C.ar    1  UNL1        0.0033
     39 C         -20.2426   52.9941  -11.6724 C.ar    1  UNL1        0.0128
     40 C         -21.6072   53.2807  -11.5451 C.ar    1  UNL1        0.0733
     41 CL        -22.4507   53.9821  -12.9210 Cl      1  UNL1       -0.0809
@<TRIPOS>BOND
     1     1     2    1
     2     2     3    1
     3     2     4    1
     4     4     5    1
     5     5     6   ar
     6     6     7   ar
     7     7    16    1
     8    16    17    2
     9    16    18   am
    10    18    20    1
    11    20    21   ar
    12    21    22   ar
    13    22    28    1
    14    28    29    1
    15    28    30    1
    16    28    31    1
    17    22    23   ar
    18    23    24    1
    19    23    25   ar
    20    25    26   ar
    21    26    27    1
    22     7     8   ar
    23     8     9   ar
    24     9    10   ar
    25    10    11   ar
    26    11    32    1
    27    32    34    1
    28    34    35   ar
    29    35    36    1
    30    35    37   ar
    31    37    38   ar
    32    38    39   ar
    33    39    40   ar
    34    40    41    1
    35    11    12   ar
    36    12    13   ar
    37     6    14    1
    38    14     2    1
    39    13     5   ar
    40    26    20   ar
    41    13     9   ar
    42    40    34   ar
    43    18    19    1
    44    32    33    1
    45    12    15    1
@<TRIPOS>MOLECULE
*****
 41 45 0 0 0
SMALL
GASTEIGER

@<TRIPOS>ATOM
      1 C         -28.2562   46.4142   -7.3698 C.3     1  UNL1        0.0439
      2 C         -28.7232   47.5898   -8.2388 C.3     1  UNL1        0.1375
      3 C         -29.9618   47.1951   -9.0532 C.3     1  UNL1        0.0439
      4 C         -27.5697   48.1023   -9.1648 C.3     1  UNL1        0.0709
      5 C         -27.3563   49.4833   -8.6652 C.ar    1  UNL1        0.0325
      6 C         -28.2255   49.7709   -7.6430 C.ar    1  UNL1        0.1401
      7 C         -28.2263   51.0268   -6.9841 C.ar    1  UNL1        0.0888
      8 C         -27.3134   52.0176   -7.4372 C.ar    1  UNL1        0.0282
      9 C         -26.4452   51.6889   -8.4884 C.ar    1  UNL1        0.0997
     10 N         -25.5032   52.4642   -9.0541 N.ar    1  UNL1       -0.2137
     11 C         -24.9774   51.6440  -10.0061 C.ar    1  UNL1        0.1984
     12 N         -25.5379   50.4101  -10.0465 N.ar    1  UNL1       -0.3255
     13 C         -26.4633   50.4598   -9.0825 C.ar    1  UNL1        0.0755
     14 O         -29.0509   48.6949   -7.3907 O.3     1  UNL1       -0.4824
     15 H         -25.3029   49.6123  -10.6781 H       1  UNL1        0.1686
     16 C         -29.1432   51.3169   -5.8578 C.2     1  UNL1        0.2525
     17 O         -29.7652   52.4128   -5.8415 O.2     1  UNL1       -0.2697
     18 N         -29.3706   50.3766   -4.7948 N.am    1  UNL1       -0.2785
     19 H         -30.3109   50.3895   -4.3389 H       1  UNL1        0.1552
     20 C         -28.3721   49.4836   -4.2660 C.ar    1  UNL1        0.0784
     21 C         -28.6547   48.1238   -4.0387 C.ar    1  UNL1        0.0231
     22 C         -27.6821   47.2688   -3.4876 C.ar    1  UNL1        0.1002
     23 C         -26.4021   47.7810   -3.2096 C.ar    1  UNL1        0.1463
     24 F         -25.4342   46.9800   -2.6956 F       1  UNL1       -0.2042
     25 C         -26.1093   49.1227   -3.4630 C.ar    1  UNL1        0.0605
     26 C         -27.0858   49.9710   -3.9884 C.ar    1  UNL1        0.1557
     27 F         -26.7847   51.2762   -4.2045 F       1  UNL1       -0.2028
     28 C         -27.9823   45.8140   -3.2161 C.3     1  UNL1        0.4207
     29 F         -27.7767   45.4867   -1.8866 F       1  UNL1       -0.1658
     30 F         -27.1593   45.0172   -3.9916 F       1  UNL1       -0.1658
     31 F         -29.3010   45.5501   -3.5380 F       1  UNL1       -0.1658
     32 N         -23.9031   52.0318  -10.8706 N.pl3   1  UNL1       -0.2816
     33 H         -23.9698   51.7788  -11.8821 H       1  UNL1        0.1551
     34 C         -22.6511   52.5176  -10.3677 C.ar    1  UNL1        0.0889
     35 C         -22.1894   52.0653   -9.1211 C.ar    1  UNL1        0.1543
     36 F         -22.9303   51.1919   -8.3936 F       1  UNL1       -0.2028
     37 C         -20.9730   52.5270   -8.6100 C.ar    1  UNL1        0.0310
     38 C         -20.2024   53.4307   -9.3442 C.ar    1  UNL1        0.0033
     39 C         -20.6401   53.8671  -10.5968 C.ar    1  UNL1        0.0128
     40 C         -21.8572   53.4114  -11.1180 C.ar    1  UNL1        0.0733
     41 CL        -22.3189   53.9163  -12.7392 Cl      1  UNL1       -0.0809
@<TRIPOS>BOND
     1     1     2    1
     2     2     3    1
     3     2     4    1
     4     4     5    1
     5     5     6   ar
     6     6     7   ar
     7     7    16    1
     8    16    17    2
     9    16    18   am
    10    18    20    1
    11    20    21   ar
    12    21    22   ar
    13    22    28    1
    14    28    29    1
    15    28    30    1
    16    28    31    1
    17    22    23   ar
    18    23    24    1
    19    23    25   ar
    20    25    26   ar
    21    26    27    1
    22     7     8   ar
    23     8     9   ar
    24     9    10   ar
    25    10    11   ar
    26    11    32    1
    27    32    34    1
    28    34    35   ar
    29    35    36    1
    30    35    37   ar
    31    37    38   ar
    32    38    39   ar
    33    39    40   ar
    34    40    41    1
    35    11    12   ar
    36    12    13   ar
    37     6    14    1
    38    14     2    1
    39    13     5   ar
    40    26    20   ar
    41    13     9   ar
    42    40    34   ar
    43    18    19    1
    44    32    33    1
    45    12    15    1
@<TRIPOS>MOLECULE
*****
 41 45 0 0 0
SMALL
GASTEIGER

@<TRIPOS>ATOM
      1 C         -30.2024   49.8201  -11.4547 C.3     1  UNL1        0.0439
      2 C         -29.5196   51.1687  -11.1899 C.3     1  UNL1        0.1375
      3 C         -30.3746   52.3187  -11.7373 C.3     1  UNL1        0.0439
      4 C         -28.0729   51.1975  -11.7871 C.3     1  UNL1        0.0709
      5 C         -27.2343   51.3421  -10.5712 C.ar    1  UNL1        0.0325
      6 C         -28.0164   51.4101   -9.4458 C.ar    1  UNL1        0.1401
      7 C         -27.4607   51.5444   -8.1478 C.ar    1  UNL1        0.0888
      8 C         -26.0474   51.6462   -8.0352 C.ar    1  UNL1        0.0282
      9 C         -25.2818   51.5791   -9.2082 C.ar    1  UNL1        0.0997
     10 N         -23.9434   51.6384   -9.3250 N.ar    1  UNL1       -0.2137
     11 C         -23.7582   51.5252  -10.6697 C.ar    1  UNL1        0.1984
     12 N         -24.9062   51.3902  -11.3784 N.ar    1  UNL1       -0.3255
     13 C         -25.8560   51.4289  -10.4378 C.ar    1  UNL1        0.0755
     14 O         -29.3530   51.3375   -9.7786 O.3     1  UNL1       -0.4824
     15 H         -25.0212   51.2812  -12.4107 H       1  UNL1        0.1686
     16 C         -28.3100   51.5808   -6.9350 C.2     1  UNL1        0.2525
     17 O         -28.1405   52.5063   -6.0966 O.2     1  UNL1       -0.2697
     18 N         -29.3431   50.6108   -6.6951 N.am    1  UNL1       -0.2785
     19 H         -30.1781   50.9269   -6.1519 H       1  UNL1        0.1552
     20 C         -29.2673   49.2245   -7.0778 C.ar    1  UNL1        0.0784
     21 C         -28.3113   48.7742   -8.0073 C.ar    1  UNL1        0.0231
     22 C         -28.2705   47.4236   -8.4009 C.ar    1  UNL1        0.1002
     23 C         -29.1700   46.5148   -7.8154 C.ar    1  UNL1        0.1463
     24 F         -29.1457   45.2014   -8.1575 F       1  UNL1       -0.2042
     25 C         -30.0994   46.9530   -6.8697 C.ar    1  UNL1        0.0605
     26 C         -30.1499   48.2985   -6.5007 C.ar    1  UNL1        0.1557
     27 F         -31.0768   48.7046   -5.5970 F       1  UNL1       -0.2028
     28 C         -27.2655   46.9345   -9.4162 C.3     1  UNL1        0.4207
     29 F         -27.8749   46.2466  -10.4517 F       1  UNL1       -0.1658
     30 F         -26.3617   46.0851   -8.8034 F       1  UNL1       -0.1658
     31 F         -26.5834   48.0155   -9.9441 F       1  UNL1       -0.1658
     32 N         -22.4654   51.5148  -11.2864 N.pl3   1  UNL1       -0.2816
     33 H         -22.2856   50.8143  -12.0404 H       1  UNL1        0.1551
     34 C         -21.3524   52.2406  -10.7469 C.ar    1  UNL1        0.0889
     35 C         -20.1255   51.5820  -10.5659 C.ar    1  UNL1        0.1543
     36 F         -20.0018   50.2682  -10.8817 F       1  UNL1       -0.2028
     37 C         -19.0276   52.2689  -10.0396 C.ar    1  UNL1        0.0310
     38 C         -19.1414   53.6195   -9.7041 C.ar    1  UNL1        0.0033
     39 C         -20.3499   54.2906   -9.9043 C.ar    1  UNL1        0.0128
     40 C         -21.4560   53.6121  -10.4304 C.ar    1  UNL1        0.0733
     41 CL        -22.9262   54.5240  -10.7520 Cl      1  UNL1       -0.0809
@<TRIPOS>BOND
     1     1     2    1
     2     2     3    1
     3     2     4    1
     4     4     5    1
     5     5     6   ar
     6     6     7   ar
     7     7    16    1
     8    16    17    2
     9    16    18   am
    10    18    20    1
    11    20    21   ar
    12    21    22   ar
    13    22    28    1
    14    28    29    1
    15    28    30    1
    16    28    31    1
    17    22    23   ar
    18    23    24    1
    19    23    25   ar
    20    25    26   ar
    21    26    27    1
    22     7     8   ar
    23     8     9   ar
    24     9    10   ar
    25    10    11   ar
    26    11    32    1
    27    32    34    1
    28    34    35   ar
    29    35    36    1
    30    35    37   ar
    31    37    38   ar
    32    38    39   ar
    33    39    40   ar
    34    40    41    1
    35    11    12   ar
    36    12    13   ar
    37     6    14    1
    38    14     2    1
    39    13     5   ar
    40    26    20   ar
    41    13     9   ar
    42    40    34   ar
    43    18    19    1
    44    32    33    1
    45    12    15    1
@<TRIPOS>MOLECULE
*****
 41 45 0 0 0
SMALL
GASTEIGER

@<TRIPOS>ATOM
      1 C         -30.1421   49.3188  -11.9495 C.3     1  UNL1        0.0439
      2 C         -29.7502   49.8877  -10.5791 C.3     1  UNL1        0.1375
      3 C         -30.9937   50.3795   -9.8277 C.3     1  UNL1        0.0439
      4 C         -28.6823   51.0234  -10.7224 C.3     1  UNL1        0.0709
      5 C         -27.5104   50.4425  -10.0213 C.ar    1  UNL1        0.0325
      6 C         -27.8077   49.1982   -9.5249 C.ar    1  UNL1        0.1401
      7 C         -26.8564   48.4220   -8.8150 C.ar    1  UNL1        0.0888
      8 C         -25.5708   48.9854   -8.5904 C.ar    1  UNL1        0.0282
      9 C         -25.3063   50.2619   -9.1073 C.ar    1  UNL1        0.0997
     10 N         -24.1635   50.9659   -9.0237 N.ar    1  UNL1       -0.2137
     11 C         -24.4728   52.1127   -9.6903 C.ar    1  UNL1        0.1984
     12 N         -25.7351   52.1441  -10.1842 N.ar    1  UNL1       -0.3255
     13 C         -26.2449   50.9680   -9.8035 C.ar    1  UNL1        0.0755
     14 O         -29.1136   48.8603   -9.8128 O.3     1  UNL1       -0.4824
     15 H         -26.1979   52.9039  -10.7313 H       1  UNL1        0.1686
     16 C         -27.1738   47.0650   -8.3137 C.2     1  UNL1        0.2525
     17 O         -27.1122   46.0890   -9.1085 O.2     1  UNL1       -0.2697
     18 N         -27.5224   46.8186   -6.9413 N.am    1  UNL1       -0.2785
     19 H         -27.2618   45.8886   -6.5420 H       1  UNL1        0.1552
     20 C         -28.2728   47.7268   -6.1129 C.ar    1  UNL1        0.0784
     21 C         -28.6316   49.0079   -6.5721 C.ar    1  UNL1        0.0231
     22 C         -29.3335   49.9001   -5.7403 C.ar    1  UNL1        0.1002
     23 C         -29.7160   49.4771   -4.4547 C.ar    1  UNL1        0.1463
     24 F         -30.4106   50.3049   -3.6333 F       1  UNL1       -0.2042
     25 C         -29.3882   48.1953   -4.0078 C.ar    1  UNL1        0.0605
     26 C         -28.6717   47.3231   -4.8295 C.ar    1  UNL1        0.1557
     27 F         -28.3448   46.0912   -4.3646 F       1  UNL1       -0.2028
     28 C         -29.7016   51.2860   -6.2136 C.3     1  UNL1        0.4207
     29 F         -29.4579   52.2420   -5.2422 F       1  UNL1       -0.1658
     30 F         -31.0470   51.3256   -6.5336 F       1  UNL1       -0.1658
     31 F         -28.9601   51.5987   -7.3382 F       1  UNL1       -0.1658
     32 N         -23.5411   53.1829   -9.8864 N.pl3   1  UNL1       -0.2816
     33 H         -23.9182   54.1529   -9.9784 H       1  UNL1        0.1551
     34 C         -22.1632   52.9508  -10.2091 C.ar    1  UNL1        0.0889
     35 C         -21.3129   52.4010   -9.2362 C.ar    1  UNL1        0.1543
     36 F         -21.7879   52.1102   -7.9989 F       1  UNL1       -0.2028
     37 C         -19.9657   52.1683   -9.5276 C.ar    1  UNL1        0.0310
     38 C         -19.4610   52.4682  -10.7945 C.ar    1  UNL1        0.0033
     39 C         -20.3042   52.9914  -11.7775 C.ar    1  UNL1        0.0128
     40 C         -21.6551   53.2289  -11.4961 C.ar    1  UNL1        0.0733
     41 CL        -22.6964   53.7993  -12.7949 Cl      1  UNL1       -0.0809
@<TRIPOS>BOND
     1     1     2    1
     2     2     3    1
     3     2     4    1
     4     4     5    1
     5     5     6   ar
     6     6     7   ar
     7     7    16    1
     8    16    17    2
     9    16    18   am
    10    18    20    1
    11    20    21   ar
    12    21    22   ar
    13    22    28    1
    14    28    29    1
    15    28    30    1
    16    28    31    1
    17    22    23   ar
    18    23    24    1
    19    23    25   ar
    20    25    26   ar
    21    26    27    1
    22     7     8   ar
    23     8     9   ar
    24     9    10   ar
    25    10    11   ar
    26    11    32    1
    27    32    34    1
    28    34    35   ar
    29    35    36    1
    30    35    37   ar
    31    37    38   ar
    32    38    39   ar
    33    39    40   ar
    34    40    41    1
    35    11    12   ar
    36    12    13   ar
    37     6    14    1
    38    14     2    1
    39    13     5   ar
    40    26    20   ar
    41    13     9   ar
    42    40    34   ar
    43    18    19    1
    44    32    33    1
    45    12    15    1
@<TRIPOS>MOLECULE
*****
 41 45 0 0 0
SMALL
GASTEIGER

@<TRIPOS>ATOM
      1 C         -30.0393   49.8314  -12.0382 C.3     1  UNL1        0.0439
      2 C         -29.5950   50.2833  -10.6406 C.3     1  UNL1        0.1375
      3 C         -30.8029   50.7543   -9.8207 C.3     1  UNL1        0.0439
      4 C         -28.4952   51.3940  -10.7280 C.3     1  UNL1        0.0709
      5 C         -27.3253   50.7269  -10.1046 C.ar    1  UNL1        0.0325
      6 C         -27.6498   49.4582   -9.6944 C.ar    1  UNL1        0.1401
      7 C         -26.7064   48.6024   -9.0707 C.ar    1  UNL1        0.0888
      8 C         -25.3982   49.1083   -8.8401 C.ar    1  UNL1        0.0282
      9 C         -25.1059   50.4116   -9.2675 C.ar    1  UNL1        0.0997
     10 N         -23.9393   51.0725   -9.1630 N.ar    1  UNL1       -0.2137
     11 C         -24.2283   52.2751   -9.7336 C.ar    1  UNL1        0.1984
     12 N         -25.5010   52.3817  -10.1889 N.ar    1  UNL1       -0.3255
     13 C         -26.0385   51.1960   -9.8830 C.ar    1  UNL1        0.0755
     14 O         -28.9727   49.1824   -9.9707 O.3     1  UNL1       -0.4824
     15 H         -25.9527   53.1941  -10.6649 H       1  UNL1        0.1686
     16 C         -27.0545   47.2217   -8.6634 C.2     1  UNL1        0.2525
     17 O         -27.6354   46.4679   -9.4895 O.2     1  UNL1       -0.2697
     18 N         -26.7257   46.7013   -7.3647 N.am    1  UNL1       -0.2785
     19 H         -26.5381   45.6756   -7.2947 H       1  UNL1        0.1552
     20 C         -26.7189   47.4768   -6.1511 C.ar    1  UNL1        0.0784
     21 C         -26.8266   48.8798   -6.1800 C.ar    1  UNL1        0.0231
     22 C         -26.7823   49.6297   -4.9899 C.ar    1  UNL1        0.1002
     23 C         -26.6767   48.9538   -3.7610 C.ar    1  UNL1        0.1463
     24 F         -26.6506   49.6446   -2.5928 F       1  UNL1       -0.2042
     25 C         -26.6008   47.5598   -3.7274 C.ar    1  UNL1        0.0605
     26 C         -26.6221   46.8231   -4.9132 C.ar    1  UNL1        0.1557
     27 F         -26.5238   45.4711   -4.8565 F       1  UNL1       -0.2028
     28 C         -26.8716   51.1370   -5.0109 C.3     1  UNL1        0.4207
     29 F         -26.0593   51.7129   -4.0491 F       1  UNL1       -0.1658
     30 F         -28.1761   51.5284   -4.7684 F       1  UNL1       -0.1658
     31 F         -26.4838   51.6021   -6.2541 F       1  UNL1       -0.1658
     32 N         -23.2679   53.3285   -9.8749 N.pl3   1  UNL1       -0.2816
     33 H         -23.5992   54.3137   -9.7690 H       1  UNL1        0.1551
     34 C         -21.9514   53.1013  -10.3961 C.ar    1  UNL1        0.0889
     35 C         -21.6823   53.4073  -11.7399 C.ar    1  UNL1        0.1543
     36 F         -22.6637   53.8955  -12.5395 F       1  UNL1       -0.2028
     37 C         -20.4069   53.1920  -12.2702 C.ar    1  UNL1        0.0310
     38 C         -19.3884   52.6843  -11.4612 C.ar    1  UNL1        0.0033
     39 C         -19.6387   52.4008  -10.1166 C.ar    1  UNL1        0.0128
     40 C         -20.9126   52.6123   -9.5753 C.ar    1  UNL1        0.0733
     41 CL        -21.1523   52.3297   -7.8551 Cl      1  UNL1       -0.0809
@<TRIPOS>BOND
     1     1     2    1
     2     2     3    1
     3     2     4    1
     4     4     5    1
     5     5     6   ar
     6     6     7   ar
     7     7    16    1
     8    16    17    2
     9    16    18   am
    10    18    20    1
    11    20    21   ar
    12    21    22   ar
    13    22    28    1
    14    28    29    1
    15    28    30    1
    16    28    31    1
    17    22    23   ar
    18    23    24    1
    19    23    25   ar
    20    25    26   ar
    21    26    27    1
    22     7     8   ar
    23     8     9   ar
    24     9    10   ar
    25    10    11   ar
    26    11    32    1
    27    32    34    1
    28    34    35   ar
    29    35    36    1
    30    35    37   ar
    31    37    38   ar
    32    38    39   ar
    33    39    40   ar
    34    40    41    1
    35    11    12   ar
    36    12    13   ar
    37     6    14    1
    38    14     2    1
    39    13     5   ar
    40    26    20   ar
    41    13     9   ar
    42    40    34   ar
    43    18    19    1
    44    32    33    1
    45    12    15    1
@<TRIPOS>MOLECULE
*****
 41 45 0 0 0
SMALL
GASTEIGER

@<TRIPOS>ATOM
      1 C         -30.2484   49.7944  -12.1608 C.3     1  UNL1        0.0439
      2 C         -29.8097   50.1774  -10.7409 C.3     1  UNL1        0.1375
      3 C         -31.0206   50.6097   -9.9043 C.3     1  UNL1        0.0439
      4 C         -28.7083   51.2895  -10.7696 C.3     1  UNL1        0.0709
      5 C         -27.5418   50.5914  -10.1743 C.ar    1  UNL1        0.0325
      6 C         -27.8695   49.3048   -9.8275 C.ar    1  UNL1        0.1401
      7 C         -26.9298   48.4185   -9.2420 C.ar    1  UNL1        0.0888
      8 C         -25.6220   48.9108   -8.9816 C.ar    1  UNL1        0.0282
      9 C         -25.3264   50.2329   -9.3440 C.ar    1  UNL1        0.0997
     10 N         -24.1595   50.8864   -9.2025 N.ar    1  UNL1       -0.2137
     11 C         -24.4447   52.1157   -9.7153 C.ar    1  UNL1        0.1984
     12 N         -25.7153   52.2459  -10.1703 N.ar    1  UNL1       -0.3255
     13 C         -26.2554   51.0475   -9.9247 C.ar    1  UNL1        0.0755
     14 O         -29.1915   49.0445  -10.1226 O.3     1  UNL1       -0.4824
     15 H         -26.1640   53.0810  -10.6083 H       1  UNL1        0.1686
     16 C         -27.2812   47.0200   -8.9038 C.2     1  UNL1        0.2525
     17 O         -27.4841   46.1972   -9.8364 O.2     1  UNL1       -0.2697
     18 N         -27.3706   46.5611   -7.5447 N.am    1  UNL1       -0.2785
     19 H         -27.1347   45.5594   -7.3625 H       1  UNL1        0.1552
     20 C         -27.8389   47.3596   -6.4415 C.ar    1  UNL1        0.0784
     21 C         -27.0314   47.5910   -5.3123 C.ar    1  UNL1        0.0231
     22 C         -27.5133   48.3427   -4.2245 C.ar    1  UNL1        0.1002
     23 C         -28.8009   48.9035   -4.2997 C.ar    1  UNL1        0.1463
     24 F         -29.2900   49.6501   -3.2770 F       1  UNL1       -0.2042
     25 C         -29.5928   48.7014   -5.4321 C.ar    1  UNL1        0.0605
     26 C         -29.1174   47.9354   -6.4981 C.ar    1  UNL1        0.1557
     27 F         -29.9140   47.7339   -7.5778 F       1  UNL1       -0.2028
     28 C         -26.6648   48.5760   -2.9973 C.3     1  UNL1        0.4207
     29 F         -25.6441   47.6463   -2.8945 F       1  UNL1       -0.1658
     30 F         -27.4523   48.4833   -1.8637 F       1  UNL1       -0.1658
     31 F         -26.1076   49.8401   -3.0585 F       1  UNL1       -0.1658
     32 N         -23.4825   53.1733   -9.8012 N.pl3   1  UNL1       -0.2816
     33 H         -23.8319   54.1580   -9.7945 H       1  UNL1        0.1551
     34 C         -22.1106   52.9362  -10.1448 C.ar    1  UNL1        0.0889
     35 C         -21.2479   52.3822   -9.1853 C.ar    1  UNL1        0.1543
     36 F         -21.7053   52.0920   -7.9412 F       1  UNL1       -0.2028
     37 C         -19.9062   52.1445   -9.4972 C.ar    1  UNL1        0.0310
     38 C         -19.4194   52.4437  -10.7712 C.ar    1  UNL1        0.0033
     39 C         -20.2753   52.9711  -11.7410 C.ar    1  UNL1        0.0128
     40 C         -21.6209   53.2136  -11.4391 C.ar    1  UNL1        0.0733
     41 CL        -22.6794   53.7892  -12.7215 Cl      1  UNL1       -0.0809
@<TRIPOS>BOND
     1     1     2    1
     2     2     3    1
     3     2     4    1
     4     4     5    1
     5     5     6   ar
     6     6     7   ar
     7     7    16    1
     8    16    17    2
     9    16    18   am
    10    18    20    1
    11    20    21   ar
    12    21    22   ar
    13    22    28    1
    14    28    29    1
    15    28    30    1
    16    28    31    1
    17    22    23   ar
    18    23    24    1
    19    23    25   ar
    20    25    26   ar
    21    26    27    1
    22     7     8   ar
    23     8     9   ar
    24     9    10   ar
    25    10    11   ar
    26    11    32    1
    27    32    34    1
    28    34    35   ar
    29    35    36    1
    30    35    37   ar
    31    37    38   ar
    32    38    39   ar
    33    39    40   ar
    34    40    41    1
    35    11    12   ar
    36    12    13   ar
    37     6    14    1
    38    14     2    1
    39    13     5   ar
    40    26    20   ar
    41    13     9   ar
    42    40    34   ar
    43    18    19    1
    44    32    33    1
    45    12    15    1
@<TRIPOS>MOLECULE
*****
 41 45 0 0 0
SMALL
GASTEIGER

@<TRIPOS>ATOM
      1 C         -27.8616   47.4440   -6.9469 C.3     1  UNL1        0.0439
      2 C         -27.0741   47.5810   -8.2569 C.3     1  UNL1        0.1375
      3 C         -26.8642   46.2054   -8.9024 C.3     1  UNL1        0.0439
      4 C         -25.7121   48.3170   -8.0241 C.3     1  UNL1        0.0709
      5 C         -25.8816   49.5526   -8.8284 C.ar    1  UNL1        0.0325
      6 C         -27.1039   49.5637   -9.4520 C.ar    1  UNL1        0.1401
      7 C         -27.5191   50.6382  -10.2794 C.ar    1  UNL1        0.0888
      8 C         -26.6098   51.7112  -10.4845 C.ar    1  UNL1        0.0282
      9 C         -25.3675   51.6614   -9.8357 C.ar    1  UNL1        0.0997
     10 N         -24.3761   52.5691   -9.8799 N.ar    1  UNL1       -0.2137
     11 C         -23.4281   52.0113   -9.0764 C.ar    1  UNL1        0.1984
     12 N         -23.7886   50.8206   -8.5371 N.ar    1  UNL1       -0.3255
     13 C         -25.0146   50.6168   -9.0305 C.ar    1  UNL1        0.0755
     14 O         -27.8093   48.4155   -9.1575 O.3     1  UNL1       -0.4824
     15 H         -23.2408   50.2099   -7.8909 H       1  UNL1        0.1686
     16 C         -28.8543   50.6594  -10.9199 C.2     1  UNL1        0.2525
     17 O         -28.9909   51.2374  -12.0314 O.2     1  UNL1       -0.2697
     18 N         -29.9963   50.0166  -10.3295 N.am    1  UNL1       -0.2785
     19 H         -30.7231   49.6422  -10.9806 H       1  UNL1        0.1552
     20 C         -30.2434   49.9286   -8.9135 C.ar    1  UNL1        0.0784
     21 C         -29.7074   50.8730   -8.0181 C.ar    1  UNL1        0.0231
     22 C         -29.9256   50.7561   -6.6327 C.ar    1  UNL1        0.1002
     23 C         -30.7298   49.7059   -6.1549 C.ar    1  UNL1        0.1463
     24 F         -30.9768   49.5744   -4.8266 F       1  UNL1       -0.2042
     25 C         -31.2885   48.7851   -7.0439 C.ar    1  UNL1        0.0605
     26 C         -31.0492   48.8935   -8.4150 C.ar    1  UNL1        0.1557
     27 F         -31.5839   47.9736   -9.2569 F       1  UNL1       -0.2028
     28 C         -29.3344   51.7492   -5.6609 C.3     1  UNL1        0.4207
     29 F         -30.3128   52.5163   -5.0517 F       1  UNL1       -0.1658
     30 F         -28.4719   52.5981   -6.3312 F       1  UNL1       -0.1658
     31 F         -28.6312   51.0705   -4.6825 F       1  UNL1       -0.1658
     32 N         -22.1711   52.6371   -8.7937 N.pl3   1  UNL1       -0.2816
     33 H         -22.1687   53.4789   -8.1748 H       1  UNL1        0.1551
     34 C         -20.9742   52.3143   -9.5147 C.ar    1  UNL1        0.0889
     35 C         -21.0700   51.8890  -10.8495 C.ar    1  UNL1        0.1543
     36 F         -22.2841   51.7679  -11.4430 F       1  UNL1       -0.2028
     37 C         -19.9169   51.5669  -11.5712 C.ar    1  UNL1        0.0310
     38 C         -18.6608   51.6805  -10.9721 C.ar    1  UNL1        0.0033
     39 C         -18.5528   52.1273   -9.6531 C.ar    1  UNL1        0.0128
     40 C         -19.7013   52.4522   -8.9209 C.ar    1  UNL1        0.0733
     41 CL        -19.5071   53.0999   -7.2964 Cl      1  UNL1       -0.0809
@<TRIPOS>BOND
     1     1     2    1
     2     2     3    1
     3     2     4    1
     4     4     5    1
     5     5     6   ar
     6     6     7   ar
     7     7    16    1
     8    16    17    2
     9    16    18   am
    10    18    20    1
    11    20    21   ar
    12    21    22   ar
    13    22    28    1
    14    28    29    1
    15    28    30    1
    16    28    31    1
    17    22    23   ar
    18    23    24    1
    19    23    25   ar
    20    25    26   ar
    21    26    27    1
    22     7     8   ar
    23     8     9   ar
    24     9    10   ar
    25    10    11   ar
    26    11    32    1
    27    32    34    1
    28    34    35   ar
    29    35    36    1
    30    35    37   ar
    31    37    38   ar
    32    38    39   ar
    33    39    40   ar
    34    40    41    1
    35    11    12   ar
    36    12    13   ar
    37     6    14    1
    38    14     2    1
    39    13     5   ar
    40    26    20   ar
    41    13     9   ar
    42    40    34   ar
    43    18    19    1
    44    32    33    1
    45    12    15    1
