@<TRIPOS>MOLECULE
*****
 50 55 0 0 0
SMALL
GASTEIGER

@<TRIPOS>ATOM
      1 O         -61.5144  -41.8440  -19.4737 O.2     1  UNL1       -0.2701
      2 C         -62.3640  -41.3913  -20.2892 C.2     1  UNL1        0.2483
      3 N         -63.4183  -40.5366  -19.8193 N.am    1  UNL1       -0.2945
      4 H         -63.9310  -39.9456  -20.5125 H       1  UNL1        0.1501
      5 C         -62.2379  -41.7234  -21.7265 C.ar    1  UNL1        0.0808
      6 C         -63.3385  -41.5413  -22.5793 C.ar    1  UNL1        0.0080
      7 C         -63.2445  -41.8506  -23.9384 C.ar    1  UNL1        0.0148
      8 C         -62.0425  -42.3387  -24.4794 C.ar    1  UNL1        0.0502
      9 C         -60.9371  -42.5079  -23.6279 C.ar    1  UNL1        0.0443
     10 C         -61.0282  -42.1996  -22.2670 C.ar    1  UNL1        0.1457
     11 F         -59.9177  -42.3201  -21.4970 F       1  UNL1       -0.2040
     12 N         -61.9438  -42.6640  -25.8841 N.pl3   1  UNL1       -0.3040
     13 C         -62.9782  -42.2102  -26.8246 C.3     1  UNL1        0.1123
     14 C         -62.3764  -41.9486  -28.2097 C.3     1  UNL1        0.1136
     15 N         -61.5496  -43.0764  -28.6714 N.pl3   1  UNL1       -0.2897
     16 C         -61.1829  -44.1437  -27.7295 C.3     1  UNL1        0.1136
     17 C         -60.8720  -43.5585  -26.3486 C.3     1  UNL1        0.1123
     18 C         -61.2141  -43.2127  -30.0711 C.ar    1  UNL1        0.1323
     19 C         -62.0756  -42.7519  -31.0788 C.ar    1  UNL1        0.0343
     20 C         -61.7163  -42.9026  -32.4179 C.ar    1  UNL1        0.0088
     21 C         -60.4980  -43.5103  -32.7666 C.ar    1  UNL1        0.0955
     22 C         -59.6570  -43.9559  -31.7247 C.ar    1  UNL1        0.1206
     23 BR        -57.9667  -44.7958  -32.0571 Br      1  UNL1       -0.0280
     24 N         -60.0366  -43.7947  -30.4296 N.ar    1  UNL1       -0.2240
     25 C         -60.1028  -43.6757  -34.2176 C.3     1  UNL1        0.4204
     26 F         -61.2311  -43.6228  -35.0157 F       1  UNL1       -0.1658
     27 F         -59.2378  -42.6601  -34.5826 F       1  UNL1       -0.1658
     28 F         -59.4692  -44.8860  -34.4420 F       1  UNL1       -0.1658
     29 C         -63.6443  -40.2945  -18.3916 C.3     1  UNL1        0.1535
     30 C         -64.4003  -39.0058  -18.2132 C.2     1  UNL1        0.2443
     31 O         -65.2688  -38.9180  -17.3024 O.2     1  UNL1       -0.2730
     32 N         -64.1674  -37.9040  -19.1055 N.am    1  UNL1       -0.2825
     33 H         -63.6870  -38.1016  -20.0124 H       1  UNL1        0.1549
     34 C         -64.6547  -36.5702  -18.8803 C.ar    1  UNL1        0.0535
     35 C         -65.7973  -36.0835  -19.5381 C.ar    1  UNL1        0.0353
     36 C         -66.2484  -34.7889  -19.2682 C.ar    1  UNL1        0.1002
     37 N         -65.5939  -34.0123  -18.3650 N.ar    1  UNL1       -0.2422
     38 C         -64.4974  -34.4635  -17.7004 C.ar    1  UNL1        0.1002
     39 C         -64.0140  -35.7521  -17.9397 C.ar    1  UNL1        0.0353
     40 C         -64.4218  -41.4608  -17.7576 C.3     1  UNL1        0.0569
     41 C         -64.9961  -42.3654  -18.8090 C.ar    1  UNL1       -0.0017
     42 C         -64.9379  -43.7556  -18.8288 C.ar    1  UNL1        0.0681
     43 N         -65.6313  -44.2421  -19.8833 N.ar    1  UNL1       -0.3523
     44 C         -66.1336  -43.1718  -20.5233 C.ar    1  UNL1        0.0563
     45 C         -66.9375  -43.1687  -21.6625 C.ar    1  UNL1        0.0170
     46 C         -67.3711  -41.9250  -22.1577 C.ar    1  UNL1        0.0015
     47 C         -66.9985  -40.7268  -21.5088 C.ar    1  UNL1        0.0001
     48 C         -66.1879  -40.7606  -20.3595 C.ar    1  UNL1        0.0012
     49 C         -65.7705  -42.0081  -19.8951 C.ar    1  UNL1        0.0131
     50 H         -65.7606  -45.2470  -20.1362 H       1  UNL1        0.1660
@<TRIPOS>BOND
     1     1     2    2
     2     2     3   am
     3     3    29    1
     4    29    40    1
     5    40    41    1
     6    41    42   ar
     7    42    43   ar
     8    43    44   ar
     9    44    45   ar
    10    45    46   ar
    11    46    47   ar
    12    47    48   ar
    13    48    49   ar
    14    29    30    1
    15    30    31    2
    16    30    32   am
    17    32    34    1
    18    34    35   ar
    19    35    36   ar
    20    36    37   ar
    21    37    38   ar
    22    38    39   ar
    23     2     5    1
    24     5     6   ar
    25     6     7   ar
    26     7     8   ar
    27     8    12    1
    28    12    13    1
    29    13    14    1
    30    14    15    1
    31    15    18    1
    32    18    19   ar
    33    19    20   ar
    34    20    21   ar
    35    21    25    1
    36    25    26    1
    37    25    27    1
    38    25    28    1
    39    21    22   ar
    40    22    23    1
    41    22    24   ar
    42    15    16    1
    43    16    17    1
    44     8     9   ar
    45     9    10   ar
    46    10    11    1
    47    49    41   ar
    48    39    34   ar
    49    10     5   ar
    50    49    44   ar
    51    17    12    1
    52    24    18   ar
    53     3     4    1
    54    43    50    1
    55    32    33    1
@<TRIPOS>MOLECULE
*****
 50 55 0 0 0
SMALL
GASTEIGER

@<TRIPOS>ATOM
      1 O         -63.1781  -54.4875  -22.2863 O.2     1  UNL1       -0.2701
      2 C         -64.0943  -53.7266  -22.7029 C.2     1  UNL1        0.2483
      3 N         -65.4678  -54.0560  -22.4429 N.am    1  UNL1       -0.2945
      4 H         -66.1887  -53.3038  -22.5287 H       1  UNL1        0.1501
      5 C         -63.7334  -52.4856  -23.4252 C.ar    1  UNL1        0.0808
      6 C         -64.5475  -52.0337  -24.4763 C.ar    1  UNL1        0.0080
      7 C         -64.2258  -50.8673  -25.1746 C.ar    1  UNL1        0.0148
      8 C         -63.0873  -50.1183  -24.8300 C.ar    1  UNL1        0.0502
      9 C         -62.2804  -50.5638  -23.7689 C.ar    1  UNL1        0.0443
     10 C         -62.5997  -51.7311  -23.0683 C.ar    1  UNL1        0.1457
     11 F         -61.8263  -52.0879  -22.0123 F       1  UNL1       -0.2040
     12 N         -62.7495  -48.9139  -25.5538 N.pl3   1  UNL1       -0.3040
     13 C         -63.2490  -48.7053  -26.9203 C.3     1  UNL1        0.1123
     14 C         -63.4722  -47.2142  -27.1959 C.3     1  UNL1        0.1136
     15 N         -62.3019  -46.4044  -26.8175 N.pl3   1  UNL1       -0.2897
     16 C         -61.2230  -47.0105  -26.0242 C.3     1  UNL1        0.1136
     17 C         -61.7998  -47.9561  -24.9663 C.3     1  UNL1        0.1123
     18 C         -62.1409  -45.0644  -27.3360 C.ar    1  UNL1        0.1323
     19 C         -60.9299  -44.3677  -27.2011 C.ar    1  UNL1        0.0343
     20 C         -60.8145  -43.0761  -27.7143 C.ar    1  UNL1        0.0088
     21 C         -61.9000  -42.4670  -28.3668 C.ar    1  UNL1        0.0955
     22 C         -63.0988  -43.2017  -28.4867 C.ar    1  UNL1        0.1206
     23 BR        -64.6535  -42.4957  -29.3569 Br      1  UNL1       -0.0280
     24 N         -63.1792  -44.4584  -27.9751 N.ar    1  UNL1       -0.2240
     25 C         -61.7802  -41.0664  -28.9261 C.3     1  UNL1        0.4204
     26 F         -60.5311  -40.5523  -28.6285 F       1  UNL1       -0.1658
     27 F         -61.9452  -41.0981  -30.2989 F       1  UNL1       -0.1658
     28 F         -62.7363  -40.2180  -28.3942 F       1  UNL1       -0.1658
     29 C         -65.8605  -55.3355  -21.8457 C.3     1  UNL1        0.1535
     30 C         -66.9330  -55.1025  -20.8164 C.2     1  UNL1        0.2443
     31 O         -67.4336  -53.9511  -20.6930 O.2     1  UNL1       -0.2730
     32 N         -67.3455  -56.1722  -19.9503 N.am    1  UNL1       -0.2825
     33 H         -66.7170  -57.0029  -19.8649 H       1  UNL1        0.1549
     34 C         -68.5094  -56.1211  -19.1078 C.ar    1  UNL1        0.0535
     35 C         -69.6845  -56.8198  -19.4334 C.ar    1  UNL1        0.0353
     36 C         -70.7822  -56.7608  -18.5709 C.ar    1  UNL1        0.1002
     37 N         -70.7074  -56.0440  -17.4185 N.ar    1  UNL1       -0.2422
     38 C         -69.5777  -55.3738  -17.0693 C.ar    1  UNL1        0.1002
     39 C         -68.4569  -55.4075  -17.9026 C.ar    1  UNL1        0.0353
     40 C         -66.3609  -56.3102  -22.9257 C.3     1  UNL1        0.0569
     41 C         -67.3192  -55.6353  -23.8637 C.ar    1  UNL1       -0.0017
     42 C         -66.9930  -54.9425  -25.0258 C.ar    1  UNL1        0.0681
     43 N         -68.1145  -54.5368  -25.6639 N.ar    1  UNL1       -0.3523
     44 C         -69.1447  -54.9752  -24.9198 C.ar    1  UNL1        0.0563
     45 C         -70.5048  -54.8172  -25.1826 C.ar    1  UNL1        0.0170
     46 C         -71.4198  -55.3779  -24.2726 C.ar    1  UNL1        0.0015
     47 C         -70.9601  -56.0784  -23.1352 C.ar    1  UNL1        0.0001
     48 C         -69.5814  -56.2240  -22.8964 C.ar    1  UNL1        0.0012
     49 C         -68.6991  -55.6536  -23.8143 C.ar    1  UNL1        0.0131
     50 H         -68.1651  -54.0047  -26.5610 H       1  UNL1        0.1660
@<TRIPOS>BOND
     1     1     2    2
     2     2     3   am
     3     3    29    1
     4    29    40    1
     5    40    41    1
     6    41    42   ar
     7    42    43   ar
     8    43    44   ar
     9    44    45   ar
    10    45    46   ar
    11    46    47   ar
    12    47    48   ar
    13    48    49   ar
    14    29    30    1
    15    30    31    2
    16    30    32   am
    17    32    34    1
    18    34    35   ar
    19    35    36   ar
    20    36    37   ar
    21    37    38   ar
    22    38    39   ar
    23     2     5    1
    24     5     6   ar
    25     6     7   ar
    26     7     8   ar
    27     8    12    1
    28    12    13    1
    29    13    14    1
    30    14    15    1
    31    15    18    1
    32    18    19   ar
    33    19    20   ar
    34    20    21   ar
    35    21    25    1
    36    25    26    1
    37    25    27    1
    38    25    28    1
    39    21    22   ar
    40    22    23    1
    41    22    24   ar
    42    15    16    1
    43    16    17    1
    44     8     9   ar
    45     9    10   ar
    46    10    11    1
    47    49    41   ar
    48    39    34   ar
    49    10     5   ar
    50    49    44   ar
    51    17    12    1
    52    24    18   ar
    53     3     4    1
    54    43    50    1
    55    32    33    1
@<TRIPOS>MOLECULE
*****
 50 55 0 0 0
SMALL
GASTEIGER

@<TRIPOS>ATOM
      1 O         -59.5164  -48.4285  -23.6361 O.2     1  UNL1       -0.2701
      2 C         -60.6779  -48.1556  -23.2259 C.2     1  UNL1        0.2483
      3 N         -61.6556  -49.2009  -23.1063 N.am    1  UNL1       -0.2945
      4 H         -62.4979  -49.0337  -22.5103 H       1  UNL1        0.1501
      5 C         -61.0026  -46.7631  -22.8417 C.ar    1  UNL1        0.0808
      6 C         -62.0265  -46.0787  -23.5161 C.ar    1  UNL1        0.0080
      7 C         -62.3488  -44.7633  -23.1735 C.ar    1  UNL1        0.0148
      8 C         -61.6616  -44.1047  -22.1392 C.ar    1  UNL1        0.0502
      9 C         -60.6460  -44.7950  -21.4554 C.ar    1  UNL1        0.0443
     10 C         -60.3209  -46.1116  -21.7963 C.ar    1  UNL1        0.1457
     11 F         -59.3765  -46.7579  -21.0676 F       1  UNL1       -0.2040
     12 N         -61.9897  -42.7423  -21.7858 N.pl3   1  UNL1       -0.3040
     13 C         -62.9704  -41.9865  -22.5778 C.3     1  UNL1        0.1123
     14 C         -63.7288  -40.9888  -21.6955 C.3     1  UNL1        0.1136
     15 N         -62.8152  -40.1767  -20.8742 N.pl3   1  UNL1       -0.2897
     16 C         -61.3967  -40.5498  -20.7780 C.3     1  UNL1        0.1136
     17 C         -61.2449  -42.0723  -20.7082 C.3     1  UNL1        0.1123
     18 C         -63.2708  -38.9413  -20.2771 C.ar    1  UNL1        0.1323
     19 C         -64.3417  -38.9179  -19.3699 C.ar    1  UNL1        0.0343
     20 C         -64.7519  -37.7056  -18.8159 C.ar    1  UNL1        0.0088
     21 C         -64.1011  -36.5075  -19.1570 C.ar    1  UNL1        0.0955
     22 C         -63.0258  -36.5733  -20.0686 C.ar    1  UNL1        0.1206
     23 BR        -62.0470  -35.0192  -20.6161 Br      1  UNL1       -0.0280
     24 N         -62.6508  -37.7706  -20.5912 N.ar    1  UNL1       -0.2240
     25 C         -64.5415  -35.1897  -18.5585 C.3     1  UNL1        0.4204
     26 F         -63.4325  -34.4693  -18.1535 F       1  UNL1       -0.1658
     27 F         -65.2393  -34.4598  -19.5036 F       1  UNL1       -0.1658
     28 F         -65.3636  -35.3743  -17.4600 F       1  UNL1       -0.1658
     29 C         -61.4053  -50.5589  -23.5975 C.3     1  UNL1        0.1535
     30 C         -62.3961  -51.5081  -22.9798 C.2     1  UNL1        0.2443
     31 O         -62.6910  -51.3879  -21.7591 O.2     1  UNL1       -0.2730
     32 N         -62.9616  -52.5709  -23.7641 N.am    1  UNL1       -0.2825
     33 H         -62.4810  -52.8308  -24.6551 H       1  UNL1        0.1549
     34 C         -64.0781  -53.3736  -23.3443 C.ar    1  UNL1        0.0535
     35 C         -65.3572  -53.2033  -23.9008 C.ar    1  UNL1        0.0353
     36 C         -66.4065  -54.0241  -23.4796 C.ar    1  UNL1        0.1002
     37 N         -66.1866  -54.9895  -22.5484 N.ar    1  UNL1       -0.2422
     38 C         -64.9560  -55.1890  -22.0069 C.ar    1  UNL1        0.1002
     39 C         -63.8792  -54.3911  -22.4011 C.ar    1  UNL1        0.0353
     40 C         -61.5034  -50.6100  -25.1319 C.3     1  UNL1        0.0569
     41 C         -62.4991  -49.6109  -25.6457 C.ar    1  UNL1       -0.0017
     42 C         -63.8630  -49.5827  -25.3707 C.ar    1  UNL1        0.0681
     43 N         -64.4361  -48.4957  -25.9361 N.ar    1  UNL1       -0.3523
     44 C         -63.4445  -47.8337  -26.5572 C.ar    1  UNL1        0.0563
     45 C         -63.5418  -46.6374  -27.2667 C.ar    1  UNL1        0.0170
     46 C         -62.3642  -46.1060  -27.8242 C.ar    1  UNL1        0.0015
     47 C         -61.1298  -46.7730  -27.6593 C.ar    1  UNL1        0.0001
     48 C         -61.0614  -47.9779  -26.9364 C.ar    1  UNL1        0.0012
     49 C         -62.2462  -48.4818  -26.3993 C.ar    1  UNL1        0.0131
     50 H         -65.4425  -48.2220  -25.8845 H       1  UNL1        0.1660
@<TRIPOS>BOND
     1     1     2    2
     2     2     3   am
     3     3    29    1
     4    29    40    1
     5    40    41    1
     6    41    42   ar
     7    42    43   ar
     8    43    44   ar
     9    44    45   ar
    10    45    46   ar
    11    46    47   ar
    12    47    48   ar
    13    48    49   ar
    14    29    30    1
    15    30    31    2
    16    30    32   am
    17    32    34    1
    18    34    35   ar
    19    35    36   ar
    20    36    37   ar
    21    37    38   ar
    22    38    39   ar
    23     2     5    1
    24     5     6   ar
    25     6     7   ar
    26     7     8   ar
    27     8    12    1
    28    12    13    1
    29    13    14    1
    30    14    15    1
    31    15    18    1
    32    18    19   ar
    33    19    20   ar
    34    20    21   ar
    35    21    25    1
    36    25    26    1
    37    25    27    1
    38    25    28    1
    39    21    22   ar
    40    22    23    1
    41    22    24   ar
    42    15    16    1
    43    16    17    1
    44     8     9   ar
    45     9    10   ar
    46    10    11    1
    47    49    41   ar
    48    39    34   ar
    49    10     5   ar
    50    49    44   ar
    51    17    12    1
    52    24    18   ar
    53     3     4    1
    54    43    50    1
    55    32    33    1
@<TRIPOS>MOLECULE
*****
 50 55 0 0 0
SMALL
GASTEIGER

@<TRIPOS>ATOM
      1 O         -59.7763  -45.8242  -28.3137 O.2     1  UNL1       -0.2701
      2 C         -60.6571  -45.6895  -27.4205 C.2     1  UNL1        0.2483
      3 N         -61.0854  -44.3741  -27.0343 N.am    1  UNL1       -0.2945
      4 H         -61.9914  -44.2718  -26.5231 H       1  UNL1        0.1501
      5 C         -61.2597  -46.8956  -26.8088 C.ar    1  UNL1        0.0808
      6 C         -62.0919  -47.7223  -27.5807 C.ar    1  UNL1        0.0080
      7 C         -62.6743  -48.8639  -27.0246 C.ar    1  UNL1        0.0148
      8 C         -62.4283  -49.2123  -25.6853 C.ar    1  UNL1        0.0502
      9 C         -61.5843  -48.3919  -24.9171 C.ar    1  UNL1        0.0443
     10 C         -61.0002  -47.2484  -25.4708 C.ar    1  UNL1        0.1457
     11 F         -60.1438  -46.5220  -24.7095 F       1  UNL1       -0.2040
     12 N         -63.0333  -50.3901  -25.1061 N.pl3   1  UNL1       -0.3040
     13 C         -62.5121  -50.9506  -23.8513 C.3     1  UNL1        0.1123
     14 C         -63.6359  -51.6044  -23.0398 C.3     1  UNL1        0.1136
     15 N         -64.4416  -52.5250  -23.8596 N.pl3   1  UNL1       -0.2897
     16 C         -64.2825  -52.5273  -25.3209 C.3     1  UNL1        0.1136
     17 C         -64.0904  -51.1003  -25.8430 C.3     1  UNL1        0.1123
     18 C         -65.2824  -53.5191  -23.2311 C.ar    1  UNL1        0.1323
     19 C         -64.7519  -54.4785  -22.3546 C.ar    1  UNL1        0.0343
     20 C         -65.5960  -55.4215  -21.7688 C.ar    1  UNL1        0.0088
     21 C         -66.9736  -55.4181  -22.0474 C.ar    1  UNL1        0.0955
     22 C         -67.4693  -54.4346  -22.9297 C.ar    1  UNL1        0.1206
     23 BR        -69.3250  -54.3111  -23.3922 Br      1  UNL1       -0.0280
     24 N         -66.6201  -53.5300  -23.4847 N.ar    1  UNL1       -0.2240
     25 C         -67.8940  -56.4382  -21.4142 C.3     1  UNL1        0.4204
     26 F         -68.4528  -57.2340  -22.3977 F       1  UNL1       -0.1658
     27 F         -67.1760  -57.2321  -20.5383 F       1  UNL1       -0.1658
     28 F         -68.9213  -55.8346  -20.7091 F       1  UNL1       -0.1658
     29 C         -60.4202  -43.1645  -27.5267 C.3     1  UNL1        0.1535
     30 C         -60.8637  -42.8849  -28.9371 C.2     1  UNL1        0.2443
     31 O         -61.2045  -41.7135  -29.2587 O.2     1  UNL1       -0.2730
     32 N         -60.9442  -43.9547  -29.8929 N.am    1  UNL1       -0.2825
     33 H         -60.9564  -44.9350  -29.5306 H       1  UNL1        0.1549
     34 C         -61.1243  -43.7586  -31.3058 C.ar    1  UNL1        0.0535
     35 C         -62.3575  -43.3482  -31.8404 C.ar    1  UNL1        0.0353
     36 C         -62.4780  -43.1460  -33.2176 C.ar    1  UNL1        0.1002
     37 N         -61.4053  -43.3314  -34.0315 N.ar    1  UNL1       -0.2422
     38 C         -60.1960  -43.7100  -33.5399 C.ar    1  UNL1        0.1002
     39 C         -60.0320  -43.9217  -32.1688 C.ar    1  UNL1        0.0353
     40 C         -60.7354  -41.9620  -26.6205 C.3     1  UNL1        0.0569
     41 C         -61.5083  -42.3860  -25.4054 C.ar    1  UNL1       -0.0017
     42 C         -62.8932  -42.4201  -25.2735 C.ar    1  UNL1        0.0681
     43 N         -63.2403  -42.9317  -24.0705 N.ar    1  UNL1       -0.3523
     44 C         -62.0872  -43.2289  -23.4464 C.ar    1  UNL1        0.0563
     45 C         -61.9323  -43.7991  -22.1835 C.ar    1  UNL1        0.0170
     46 C         -60.6234  -44.0447  -21.7292 C.ar    1  UNL1        0.0015
     47 C         -59.5120  -43.7215  -22.5392 C.ar    1  UNL1        0.0001
     48 C         -59.6987  -43.1487  -23.8104 C.ar    1  UNL1        0.0012
     49 C         -61.0078  -42.9134  -24.2313 C.ar    1  UNL1        0.0131
     50 H         -64.2093  -43.0788  -23.7101 H       1  UNL1        0.1660
@<TRIPOS>BOND
     1     1     2    2
     2     2     3   am
     3     3    29    1
     4    29    40    1
     5    40    41    1
     6    41    42   ar
     7    42    43   ar
     8    43    44   ar
     9    44    45   ar
    10    45    46   ar
    11    46    47   ar
    12    47    48   ar
    13    48    49   ar
    14    29    30    1
    15    30    31    2
    16    30    32   am
    17    32    34    1
    18    34    35   ar
    19    35    36   ar
    20    36    37   ar
    21    37    38   ar
    22    38    39   ar
    23     2     5    1
    24     5     6   ar
    25     6     7   ar
    26     7     8   ar
    27     8    12    1
    28    12    13    1
    29    13    14    1
    30    14    15    1
    31    15    18    1
    32    18    19   ar
    33    19    20   ar
    34    20    21   ar
    35    21    25    1
    36    25    26    1
    37    25    27    1
    38    25    28    1
    39    21    22   ar
    40    22    23    1
    41    22    24   ar
    42    15    16    1
    43    16    17    1
    44     8     9   ar
    45     9    10   ar
    46    10    11    1
    47    49    41   ar
    48    39    34   ar
    49    10     5   ar
    50    49    44   ar
    51    17    12    1
    52    24    18   ar
    53     3     4    1
    54    43    50    1
    55    32    33    1
@<TRIPOS>MOLECULE
*****
 50 55 0 0 0
SMALL
GASTEIGER

@<TRIPOS>ATOM
      1 O         -61.1000  -47.7609  -24.9553 O.2     1  UNL1       -0.2701
      2 C         -62.0854  -47.0012  -25.1646 C.2     1  UNL1        0.2483
      3 N         -63.0439  -47.3400  -26.1791 N.am    1  UNL1       -0.2945
      4 H         -63.9830  -46.8815  -26.1547 H       1  UNL1        0.1501
      5 C         -62.2541  -45.7873  -24.3340 C.ar    1  UNL1        0.0808
      6 C         -62.3906  -45.9133  -22.9421 C.ar    1  UNL1        0.0080
      7 C         -62.5541  -44.7827  -22.1379 C.ar    1  UNL1        0.0148
      8 C         -62.5732  -43.4973  -22.7064 C.ar    1  UNL1        0.0502
      9 C         -62.4228  -43.3710  -24.0981 C.ar    1  UNL1        0.0443
     10 C         -62.2594  -44.5008  -24.9057 C.ar    1  UNL1        0.1457
     11 F         -62.0559  -44.3257  -26.2356 F       1  UNL1       -0.2040
     12 N         -62.7470  -42.3263  -21.8773 N.pl3   1  UNL1       -0.3040
     13 C         -61.6488  -41.3629  -21.7154 C.3     1  UNL1        0.1123
     14 C         -62.1947  -39.9445  -21.5174 C.3     1  UNL1        0.1136
     15 N         -63.2384  -39.8974  -20.4795 N.pl3   1  UNL1       -0.2897
     16 C         -63.8086  -41.1501  -19.9632 C.3     1  UNL1        0.1136
     17 C         -63.9826  -42.1678  -21.0945 C.3     1  UNL1        0.1123
     18 C         -63.6052  -38.6401  -19.8674 C.ar    1  UNL1        0.1323
     19 C         -64.6148  -38.5662  -18.8950 C.ar    1  UNL1        0.0343
     20 C         -64.9402  -37.3340  -18.3286 C.ar    1  UNL1        0.0088
     21 C         -64.2645  -36.1661  -18.7219 C.ar    1  UNL1        0.0955
     22 C         -63.2525  -36.2825  -19.6985 C.ar    1  UNL1        0.1206
     23 BR        -62.2485  -34.7738  -20.3221 Br      1  UNL1       -0.0280
     24 N         -62.9597  -37.4980  -20.2316 N.ar    1  UNL1       -0.2240
     25 C         -64.6128  -34.8269  -18.1102 C.3     1  UNL1        0.4204
     26 F         -63.4720  -34.0517  -18.0081 F       1  UNL1       -0.1658
     27 F         -65.5361  -34.1769  -18.9089 F       1  UNL1       -0.1658
     28 F         -65.1568  -34.9668  -16.8448 F       1  UNL1       -0.1658
     29 C         -62.8372  -48.4612  -27.1001 C.3     1  UNL1        0.1535
     30 C         -63.3174  -49.7346  -26.4585 C.2     1  UNL1        0.2443
     31 O         -63.8418  -50.6303  -27.1757 O.2     1  UNL1       -0.2730
     32 N         -63.2228  -49.9047  -25.0349 N.am    1  UNL1       -0.2825
     33 H         -63.0776  -49.0518  -24.4486 H       1  UNL1        0.1549
     34 C         -63.4295  -51.1569  -24.3593 C.ar    1  UNL1        0.0535
     35 C         -64.5844  -51.9278  -24.5757 C.ar    1  UNL1        0.0353
     36 C         -64.7299  -53.1507  -23.9158 C.ar    1  UNL1        0.1002
     37 N         -63.7538  -53.5968  -23.0817 N.ar    1  UNL1       -0.2422
     38 C         -62.6183  -52.8812  -22.8680 C.ar    1  UNL1        0.1002
     39 C         -62.4323  -51.6539  -23.5090 C.ar    1  UNL1        0.0353
     40 C         -63.5781  -48.2204  -28.4267 C.3     1  UNL1        0.0569
     41 C         -63.3631  -46.8196  -28.9218 C.ar    1  UNL1       -0.0017
     42 C         -64.3462  -45.9275  -29.3394 C.ar    1  UNL1        0.0681
     43 N         -63.7980  -44.7284  -29.6414 N.ar    1  UNL1       -0.3523
     44 C         -62.4797  -44.8535  -29.4094 C.ar    1  UNL1        0.0563
     45 C         -61.4987  -43.8741  -29.5580 C.ar    1  UNL1        0.0170
     46 C         -60.1724  -44.2180  -29.2376 C.ar    1  UNL1        0.0015
     47 C         -59.8608  -45.5170  -28.7782 C.ar    1  UNL1        0.0001
     48 C         -60.8719  -46.4847  -28.6359 C.ar    1  UNL1        0.0012
     49 C         -62.1762  -46.1151  -28.9653 C.ar    1  UNL1        0.0131
     50 H         -64.3027  -43.8762  -29.9723 H       1  UNL1        0.1660
@<TRIPOS>BOND
     1     1     2    2
     2     2     3   am
     3     3    29    1
     4    29    40    1
     5    40    41    1
     6    41    42   ar
     7    42    43   ar
     8    43    44   ar
     9    44    45   ar
    10    45    46   ar
    11    46    47   ar
    12    47    48   ar
    13    48    49   ar
    14    29    30    1
    15    30    31    2
    16    30    32   am
    17    32    34    1
    18    34    35   ar
    19    35    36   ar
    20    36    37   ar
    21    37    38   ar
    22    38    39   ar
    23     2     5    1
    24     5     6   ar
    25     6     7   ar
    26     7     8   ar
    27     8    12    1
    28    12    13    1
    29    13    14    1
    30    14    15    1
    31    15    18    1
    32    18    19   ar
    33    19    20   ar
    34    20    21   ar
    35    21    25    1
    36    25    26    1
    37    25    27    1
    38    25    28    1
    39    21    22   ar
    40    22    23    1
    41    22    24   ar
    42    15    16    1
    43    16    17    1
    44     8     9   ar
    45     9    10   ar
    46    10    11    1
    47    49    41   ar
    48    39    34   ar
    49    10     5   ar
    50    49    44   ar
    51    17    12    1
    52    24    18   ar
    53     3     4    1
    54    43    50    1
    55    32    33    1
@<TRIPOS>MOLECULE
*****
 50 55 0 0 0
SMALL
GASTEIGER

@<TRIPOS>ATOM
      1 O         -60.3332  -46.1233  -25.9574 O.2     1  UNL1       -0.2701
      2 C         -61.5047  -45.6553  -25.9776 C.2     1  UNL1        0.2483
      3 N         -62.4596  -46.1647  -26.9218 N.am    1  UNL1       -0.2945
      4 H         -63.4760  -45.9911  -26.7501 H       1  UNL1        0.1501
      5 C         -61.8845  -44.6095  -25.0009 C.ar    1  UNL1        0.0808
      6 C         -62.2411  -43.3306  -25.4582 C.ar    1  UNL1        0.0080
      7 C         -62.6001  -42.3266  -24.5555 C.ar    1  UNL1        0.0148
      8 C         -62.6223  -42.5819  -23.1734 C.ar    1  UNL1        0.0502
      9 C         -62.2784  -43.8661  -22.7173 C.ar    1  UNL1        0.0443
     10 C         -61.9183  -44.8730  -23.6184 C.ar    1  UNL1        0.1457
     11 F         -61.6546  -46.1134  -23.1362 F       1  UNL1       -0.2040
     12 N         -62.9887  -41.5438  -22.2370 N.pl3   1  UNL1       -0.3040
     13 C         -61.9634  -40.9045  -21.4002 C.3     1  UNL1        0.1123
     14 C         -62.3298  -39.4445  -21.1118 C.3     1  UNL1        0.1136
     15 N         -63.7154  -39.3105  -20.6311 N.pl3   1  UNL1       -0.2897
     16 C         -64.6319  -40.4560  -20.7235 C.3     1  UNL1        0.1136
     17 C         -64.4090  -41.2185  -22.0331 C.3     1  UNL1        0.1123
     18 C         -64.1388  -38.1107  -19.9445 C.ar    1  UNL1        0.1323
     19 C         -65.4898  -37.8770  -19.6443 C.ar    1  UNL1        0.0343
     20 C         -65.8583  -36.7067  -18.9813 C.ar    1  UNL1        0.0088
     21 C         -64.8880  -35.7602  -18.6098 C.ar    1  UNL1        0.0955
     22 C         -63.5399  -36.0338  -18.9250 C.ar    1  UNL1        0.1206
     23 BR        -62.1154  -34.8343  -18.4724 Br      1  UNL1       -0.0280
     24 N         -63.2137  -37.1836  -19.5724 N.ar    1  UNL1       -0.2240
     25 C         -65.2819  -34.4894  -17.8897 C.3     1  UNL1        0.4204
     26 F         -66.5900  -34.1653  -18.2006 F       1  UNL1       -0.1658
     27 F         -65.1703  -34.6751  -16.5238 F       1  UNL1       -0.1658
     28 F         -64.4740  -33.4242  -18.2496 F       1  UNL1       -0.1658
     29 C         -62.0801  -47.1039  -27.9810 C.3     1  UNL1        0.1535
     30 C         -61.0893  -46.4478  -28.9041 C.2     1  UNL1        0.2443
     31 O         -59.8990  -46.8648  -28.9328 O.2     1  UNL1       -0.2730
     32 N         -61.4868  -45.3250  -29.7077 N.am    1  UNL1       -0.2825
     33 H         -62.3623  -44.8191  -29.4431 H       1  UNL1        0.1549
     34 C         -60.6972  -44.7848  -30.7810 C.ar    1  UNL1        0.0535
     35 C         -59.3185  -45.0386  -30.8800 C.ar    1  UNL1        0.0353
     36 C         -58.5969  -44.5131  -31.9549 C.ar    1  UNL1        0.1002
     37 N         -59.2283  -43.7738  -32.9049 N.ar    1  UNL1       -0.2422
     38 C         -60.5637  -43.5282  -32.8445 C.ar    1  UNL1        0.1002
     39 C         -61.3226  -44.0360  -31.7872 C.ar    1  UNL1        0.0353
     40 C         -61.4811  -48.3880  -27.3819 C.3     1  UNL1        0.0569
     41 C         -62.3125  -48.8922  -26.2381 C.ar    1  UNL1       -0.0017
     42 C         -63.6953  -49.0480  -26.2234 C.ar    1  UNL1        0.0681
     43 N         -64.0955  -49.6024  -25.0564 N.ar    1  UNL1       -0.3523
     44 C         -62.9769  -49.8059  -24.3389 C.ar    1  UNL1        0.0563
     45 C         -62.8785  -50.3757  -23.0702 C.ar    1  UNL1        0.0170
     46 C         -61.5957  -50.5122  -22.5085 C.ar    1  UNL1        0.0015
     47 C         -60.4532  -50.0839  -23.2205 C.ar    1  UNL1        0.0001
     48 C         -60.5826  -49.5141  -24.5002 C.ar    1  UNL1        0.0012
     49 C         -61.8676  -49.3883  -25.0287 C.ar    1  UNL1        0.0131
     50 H         -65.0746  -49.8374  -24.7796 H       1  UNL1        0.1660
@<TRIPOS>BOND
     1     1     2    2
     2     2     3   am
     3     3    29    1
     4    29    40    1
     5    40    41    1
     6    41    42   ar
     7    42    43   ar
     8    43    44   ar
     9    44    45   ar
    10    45    46   ar
    11    46    47   ar
    12    47    48   ar
    13    48    49   ar
    14    29    30    1
    15    30    31    2
    16    30    32   am
    17    32    34    1
    18    34    35   ar
    19    35    36   ar
    20    36    37   ar
    21    37    38   ar
    22    38    39   ar
    23     2     5    1
    24     5     6   ar
    25     6     7   ar
    26     7     8   ar
    27     8    12    1
    28    12    13    1
    29    13    14    1
    30    14    15    1
    31    15    18    1
    32    18    19   ar
    33    19    20   ar
    34    20    21   ar
    35    21    25    1
    36    25    26    1
    37    25    27    1
    38    25    28    1
    39    21    22   ar
    40    22    23    1
    41    22    24   ar
    42    15    16    1
    43    16    17    1
    44     8     9   ar
    45     9    10   ar
    46    10    11    1
    47    49    41   ar
    48    39    34   ar
    49    10     5   ar
    50    49    44   ar
    51    17    12    1
    52    24    18   ar
    53     3     4    1
    54    43    50    1
    55    32    33    1
@<TRIPOS>MOLECULE
*****
 50 55 0 0 0
SMALL
GASTEIGER

@<TRIPOS>ATOM
      1 O         -61.0193  -47.6965  -25.0723 O.2     1  UNL1       -0.2701
      2 C         -62.0615  -46.9979  -25.2049 C.2     1  UNL1        0.2483
      3 N         -63.0789  -47.4044  -26.1335 N.am    1  UNL1       -0.2945
      4 H         -64.0381  -47.0008  -26.0346 H       1  UNL1        0.1501
      5 C         -62.2322  -45.7854  -24.3725 C.ar    1  UNL1        0.0808
      6 C         -62.4638  -45.9179  -22.9939 C.ar    1  UNL1        0.0080
      7 C         -62.6310  -44.7887  -22.1886 C.ar    1  UNL1        0.0148
      8 C         -62.5588  -43.4986  -22.7419 C.ar    1  UNL1        0.0502
      9 C         -62.3134  -43.3663  -24.1195 C.ar    1  UNL1        0.0443
     10 C         -62.1460  -44.4947  -24.9282 C.ar    1  UNL1        0.1457
     11 F         -61.8495  -44.3166  -26.2400 F       1  UNL1       -0.2040
     12 N         -62.7362  -42.3287  -21.9120 N.pl3   1  UNL1       -0.3040
     13 C         -61.6385  -41.3660  -21.7433 C.3     1  UNL1        0.1123
     14 C         -62.1848  -39.9477  -21.5459 C.3     1  UNL1        0.1136
     15 N         -63.2335  -39.9017  -20.5130 N.pl3   1  UNL1       -0.2897
     16 C         -63.8067  -41.1549  -20.0014 C.3     1  UNL1        0.1136
     17 C         -63.9756  -42.1709  -21.1351 C.3     1  UNL1        0.1123
     18 C         -63.6029  -38.6451  -19.9009 C.ar    1  UNL1        0.1323
     19 C         -64.6092  -38.5740  -18.9249 C.ar    1  UNL1        0.0343
     20 C         -64.9371  -37.3425  -18.3586 C.ar    1  UNL1        0.0088
     21 C         -64.2673  -36.1724  -18.7556 C.ar    1  UNL1        0.0955
     22 C         -63.2584  -36.2860  -19.7357 C.ar    1  UNL1        0.1206
     23 BR        -62.2624  -34.7743  -20.3645 Br      1  UNL1       -0.0280
     24 N         -62.9630  -37.5010  -20.2686 N.ar    1  UNL1       -0.2240
     25 C         -64.6184  -34.8340  -18.1440 C.3     1  UNL1        0.4204
     26 F         -65.1540  -35.0251  -16.8833 F       1  UNL1       -0.1658
     27 F         -63.4795  -34.0559  -18.0426 F       1  UNL1       -0.1658
     28 F         -65.5454  -34.1474  -18.9095 F       1  UNL1       -0.1658
     29 C         -62.8834  -48.5233  -27.0597 C.3     1  UNL1        0.1535
     30 C         -63.1303  -49.8214  -26.3401 C.2     1  UNL1        0.2443
     31 O         -63.6592  -50.7834  -26.9616 O.2     1  UNL1       -0.2730
     32 N         -62.8106  -49.9441  -24.9447 N.am    1  UNL1       -0.2825
     33 H         -62.6696  -49.0660  -24.3957 H       1  UNL1        0.1549
     34 C         -62.7857  -51.1928  -24.2323 C.ar    1  UNL1        0.0535
     35 C         -61.6431  -51.6185  -23.5337 C.ar    1  UNL1        0.0353
     36 C         -61.6741  -52.8278  -22.8345 C.ar    1  UNL1        0.1002
     37 N         -62.8068  -53.5790  -22.8194 N.ar    1  UNL1       -0.2422
     38 C         -63.9322  -53.1829  -23.4706 C.ar    1  UNL1        0.1002
     39 C         -63.9443  -51.9798  -24.1807 C.ar    1  UNL1        0.0353
     40 C         -63.8232  -48.3983  -28.2713 C.3     1  UNL1        0.0569
     41 C         -63.7379  -47.0312  -28.8855 C.ar    1  UNL1       -0.0017
     42 C         -62.9456  -45.9737  -28.4489 C.ar    1  UNL1        0.0681
     43 N         -63.0603  -44.9198  -29.2888 N.ar    1  UNL1       -0.3523
     44 C         -63.9106  -45.3062  -30.2559 C.ar    1  UNL1        0.0563
     45 C         -64.3266  -44.5651  -31.3612 C.ar    1  UNL1        0.0170
     46 C         -65.2133  -45.1765  -32.2667 C.ar    1  UNL1        0.0015
     47 C         -65.6564  -46.5005  -32.0512 C.ar    1  UNL1        0.0001
     48 C         -65.2182  -47.2251  -30.9278 C.ar    1  UNL1        0.0012
     49 C         -64.3428  -46.5907  -30.0461 C.ar    1  UNL1        0.0131
     50 H         -62.5730  -43.9998  -29.2072 H       1  UNL1        0.1660
@<TRIPOS>BOND
     1     1     2    2
     2     2     3   am
     3     3    29    1
     4    29    40    1
     5    40    41    1
     6    41    42   ar
     7    42    43   ar
     8    43    44   ar
     9    44    45   ar
    10    45    46   ar
    11    46    47   ar
    12    47    48   ar
    13    48    49   ar
    14    29    30    1
    15    30    31    2
    16    30    32   am
    17    32    34    1
    18    34    35   ar
    19    35    36   ar
    20    36    37   ar
    21    37    38   ar
    22    38    39   ar
    23     2     5    1
    24     5     6   ar
    25     6     7   ar
    26     7     8   ar
    27     8    12    1
    28    12    13    1
    29    13    14    1
    30    14    15    1
    31    15    18    1
    32    18    19   ar
    33    19    20   ar
    34    20    21   ar
    35    21    25    1
    36    25    26    1
    37    25    27    1
    38    25    28    1
    39    21    22   ar
    40    22    23    1
    41    22    24   ar
    42    15    16    1
    43    16    17    1
    44     8     9   ar
    45     9    10   ar
    46    10    11    1
    47    49    41   ar
    48    39    34   ar
    49    10     5   ar
    50    49    44   ar
    51    17    12    1
    52    24    18   ar
    53     3     4    1
    54    43    50    1
    55    32    33    1
@<TRIPOS>MOLECULE
*****
 50 55 0 0 0
SMALL
GASTEIGER

@<TRIPOS>ATOM
      1 O         -62.0729  -45.0174  -28.5794 O.2     1  UNL1       -0.2701
      2 C         -62.8824  -44.0499  -28.5568 C.2     1  UNL1        0.2483
      3 N         -63.6181  -43.7080  -29.7420 N.am    1  UNL1       -0.2945
      4 H         -64.4736  -43.1150  -29.6474 H       1  UNL1        0.1501
      5 C         -63.0848  -43.3034  -27.2943 C.ar    1  UNL1        0.0808
      6 C         -63.7159  -42.0494  -27.3240 C.ar    1  UNL1        0.0080
      7 C         -63.9152  -41.3250  -26.1462 C.ar    1  UNL1        0.0148
      8 C         -63.4980  -41.8437  -24.9082 C.ar    1  UNL1        0.0502
      9 C         -62.8787  -43.1050  -24.8775 C.ar    1  UNL1        0.0443
     10 C         -62.6775  -43.8323  -26.0548 C.ar    1  UNL1        0.1457
     11 F         -62.1320  -45.0715  -25.9685 F       1  UNL1       -0.2040
     12 N         -63.6986  -41.0943  -23.6888 N.pl3   1  UNL1       -0.3040
     13 C         -62.7153  -41.1740  -22.5993 C.3     1  UNL1        0.1123
     14 C         -62.6515  -39.8518  -21.8268 C.3     1  UNL1        0.1136
     15 N         -63.9905  -39.3766  -21.4396 N.pl3   1  UNL1       -0.2897
     16 C         -65.1836  -40.0139  -22.0150 C.3     1  UNL1        0.1136
     17 C         -64.9534  -40.3520  -23.4910 C.3     1  UNL1        0.1123
     18 C         -64.1423  -38.3863  -20.3972 C.ar    1  UNL1        0.1323
     19 C         -65.1794  -38.4681  -19.4550 C.ar    1  UNL1        0.0343
     20 C         -65.2924  -37.4924  -18.4649 C.ar    1  UNL1        0.0088
     21 C         -64.3757  -36.4290  -18.4018 C.ar    1  UNL1        0.0955
     22 C         -63.3443  -36.3846  -19.3639 C.ar    1  UNL1        0.1206
     23 BR        -62.0242  -34.9956  -19.3911 Br      1  UNL1       -0.0280
     24 N         -63.2620  -37.3508  -20.3164 N.ar    1  UNL1       -0.2240
     25 C         -64.4932  -35.3683  -17.3295 C.3     1  UNL1        0.4204
     26 F         -65.3777  -35.7899  -16.3533 F       1  UNL1       -0.1658
     27 F         -63.2539  -35.1465  -16.7570 F       1  UNL1       -0.1658
     28 F         -64.9542  -34.1682  -17.8433 F       1  UNL1       -0.1658
     29 C         -63.3469  -44.3426  -31.0350 C.3     1  UNL1        0.1535
     30 C         -64.5167  -45.2034  -31.4283 C.2     1  UNL1        0.2443
     31 O         -65.4421  -44.7087  -32.1287 O.2     1  UNL1       -0.2730
     32 N         -64.5994  -46.5617  -30.9672 N.am    1  UNL1       -0.2825
     33 H         -63.9983  -46.8419  -30.1594 H       1  UNL1        0.1549
     34 C         -65.5385  -47.5263  -31.4719 C.ar    1  UNL1        0.0535
     35 C         -66.0363  -47.4518  -32.7840 C.ar    1  UNL1        0.0353
     36 C         -66.9279  -48.4267  -33.2388 C.ar    1  UNL1        0.1002
     37 N         -67.2990  -49.4472  -32.4213 N.ar    1  UNL1       -0.2422
     38 C         -66.8190  -49.5547  -31.1543 C.ar    1  UNL1        0.1002
     39 C         -65.9245  -48.6020  -30.6605 C.ar    1  UNL1        0.0353
     40 C         -63.0778  -43.2823  -32.1167 C.3     1  UNL1        0.0569
     41 C         -61.7783  -43.5437  -32.8215 C.ar    1  UNL1       -0.0017
     42 C         -61.5071  -43.3254  -34.1688 C.ar    1  UNL1        0.0681
     43 N         -60.2096  -43.5958  -34.4389 N.ar    1  UNL1       -0.3523
     44 C         -59.6583  -43.9739  -33.2725 C.ar    1  UNL1        0.0563
     45 C         -58.3312  -44.3345  -33.0425 C.ar    1  UNL1        0.0170
     46 C         -57.9619  -44.6795  -31.7293 C.ar    1  UNL1        0.0015
     47 C         -58.9154  -44.6537  -30.6873 C.ar    1  UNL1        0.0001
     48 C         -60.2473  -44.2838  -30.9485 C.ar    1  UNL1        0.0012
     49 C         -60.5839  -43.9511  -32.2608 C.ar    1  UNL1        0.0131
     50 H         -59.7333  -43.5115  -35.3643 H       1  UNL1        0.1660
@<TRIPOS>BOND
     1     1     2    2
     2     2     3   am
     3     3    29    1
     4    29    40    1
     5    40    41    1
     6    41    42   ar
     7    42    43   ar
     8    43    44   ar
     9    44    45   ar
    10    45    46   ar
    11    46    47   ar
    12    47    48   ar
    13    48    49   ar
    14    29    30    1
    15    30    31    2
    16    30    32   am
    17    32    34    1
    18    34    35   ar
    19    35    36   ar
    20    36    37   ar
    21    37    38   ar
    22    38    39   ar
    23     2     5    1
    24     5     6   ar
    25     6     7   ar
    26     7     8   ar
    27     8    12    1
    28    12    13    1
    29    13    14    1
    30    14    15    1
    31    15    18    1
    32    18    19   ar
    33    19    20   ar
    34    20    21   ar
    35    21    25    1
    36    25    26    1
    37    25    27    1
    38    25    28    1
    39    21    22   ar
    40    22    23    1
    41    22    24   ar
    42    15    16    1
    43    16    17    1
    44     8     9   ar
    45     9    10   ar
    46    10    11    1
    47    49    41   ar
    48    39    34   ar
    49    10     5   ar
    50    49    44   ar
    51    17    12    1
    52    24    18   ar
    53     3     4    1
    54    43    50    1
    55    32    33    1
@<TRIPOS>MOLECULE
*****
 50 55 0 0 0
SMALL
GASTEIGER

@<TRIPOS>ATOM
      1 O         -65.4531  -39.8076  -20.5480 O.2     1  UNL1       -0.2701
      2 C         -64.3634  -40.3750  -20.8349 C.2     1  UNL1        0.2483
      3 N         -63.4121  -40.6581  -19.7968 N.am    1  UNL1       -0.2945
      4 H         -62.6649  -41.3656  -19.9808 H       1  UNL1        0.1501
      5 C         -64.0993  -40.7708  -22.2369 C.ar    1  UNL1        0.0808
      6 C         -62.8574  -41.3311  -22.5769 C.ar    1  UNL1        0.0080
      7 C         -62.5839  -41.7093  -23.8936 C.ar    1  UNL1        0.0148
      8 C         -63.5515  -41.5467  -24.9002 C.ar    1  UNL1        0.0502
      9 C         -64.7992  -40.9985  -24.5566 C.ar    1  UNL1        0.0443
     10 C         -65.0758  -40.6185  -23.2396 C.ar    1  UNL1        0.1457
     11 F         -66.3149  -40.1519  -22.9438 F       1  UNL1       -0.2040
     12 N         -63.2696  -41.9328  -26.2640 N.pl3   1  UNL1       -0.3040
     13 C         -63.8678  -41.1913  -27.3832 C.3     1  UNL1        0.1123
     14 C         -62.9325  -41.1919  -28.5975 C.3     1  UNL1        0.1136
     15 N         -62.4502  -42.5457  -28.9188 N.pl3   1  UNL1       -0.2897
     16 C         -62.6699  -43.6423  -27.9648 C.3     1  UNL1        0.1136
     17 C         -62.4841  -43.1488  -26.5267 C.3     1  UNL1        0.1123
     18 C         -61.8889  -42.8328  -30.2199 C.ar    1  UNL1        0.1323
     19 C         -62.5445  -42.4504  -31.4007 C.ar    1  UNL1        0.0343
     20 C         -61.9706  -42.7464  -32.6368 C.ar    1  UNL1        0.0088
     21 C         -60.7408  -43.4227  -32.7101 C.ar    1  UNL1        0.0955
     22 C         -60.1106  -43.7858  -31.5008 C.ar    1  UNL1        0.1206
     23 BR        -58.4299  -44.7055  -31.4542 Br      1  UNL1       -0.0280
     24 N         -60.6965  -43.4833  -30.3121 N.ar    1  UNL1       -0.2240
     25 C         -60.1134  -43.7456  -34.0483 C.3     1  UNL1        0.4204
     26 F         -59.4467  -44.9548  -33.9695 F       1  UNL1       -0.1658
     27 F         -61.0984  -43.8300  -35.0155 F       1  UNL1       -0.1658
     28 F         -59.2062  -42.7747  -34.4373 F       1  UNL1       -0.1658
     29 C         -63.5872  -40.1665  -18.4272 C.3     1  UNL1        0.1535
     30 C         -64.5369  -38.9994  -18.4290 C.2     1  UNL1        0.2443
     31 O         -65.6227  -39.0833  -17.7921 O.2     1  UNL1       -0.2730
     32 N         -64.2291  -37.8207  -19.1908 N.am    1  UNL1       -0.2825
     33 H         -63.4986  -37.8954  -19.9345 H       1  UNL1        0.1549
     34 C         -64.9420  -36.5777  -19.0720 C.ar    1  UNL1        0.0535
     35 C         -64.4459  -35.5163  -18.2961 C.ar    1  UNL1        0.0353
     36 C         -65.1611  -34.3177  -18.2310 C.ar    1  UNL1        0.1002
     37 N         -66.3210  -34.1762  -18.9253 N.ar    1  UNL1       -0.2422
     38 C         -66.8147  -35.1792  -19.6983 C.ar    1  UNL1        0.1002
     39 C         -66.1302  -36.3934  -19.7922 C.ar    1  UNL1        0.0353
     40 C         -64.1164  -41.2831  -17.5108 C.3     1  UNL1        0.0569
     41 C         -64.5802  -42.4665  -18.3097 C.ar    1  UNL1       -0.0017
     42 C         -65.8576  -43.0186  -18.3087 C.ar    1  UNL1        0.0681
     43 N         -65.9375  -44.0247  -19.2092 N.ar    1  UNL1       -0.3523
     44 C         -64.7251  -44.1060  -19.7842 C.ar    1  UNL1        0.0563
     45 C         -64.3241  -44.9834  -20.7908 C.ar    1  UNL1        0.0170
     46 C         -63.0030  -44.8814  -21.2642 C.ar    1  UNL1        0.0015
     47 C         -62.1237  -43.9137  -20.7293 C.ar    1  UNL1        0.0001
     48 C         -62.5565  -43.0399  -19.7153 C.ar    1  UNL1        0.0012
     49 C         -63.8703  -43.1682  -19.2638 C.ar    1  UNL1        0.0131
     50 H         -66.7776  -44.6072  -19.4223 H       1  UNL1        0.1660
@<TRIPOS>BOND
     1     1     2    2
     2     2     3   am
     3     3    29    1
     4    29    40    1
     5    40    41    1
     6    41    42   ar
     7    42    43   ar
     8    43    44   ar
     9    44    45   ar
    10    45    46   ar
    11    46    47   ar
    12    47    48   ar
    13    48    49   ar
    14    29    30    1
    15    30    31    2
    16    30    32   am
    17    32    34    1
    18    34    35   ar
    19    35    36   ar
    20    36    37   ar
    21    37    38   ar
    22    38    39   ar
    23     2     5    1
    24     5     6   ar
    25     6     7   ar
    26     7     8   ar
    27     8    12    1
    28    12    13    1
    29    13    14    1
    30    14    15    1
    31    15    18    1
    32    18    19   ar
    33    19    20   ar
    34    20    21   ar
    35    21    25    1
    36    25    26    1
    37    25    27    1
    38    25    28    1
    39    21    22   ar
    40    22    23    1
    41    22    24   ar
    42    15    16    1
    43    16    17    1
    44     8     9   ar
    45     9    10   ar
    46    10    11    1
    47    49    41   ar
    48    39    34   ar
    49    10     5   ar
    50    49    44   ar
    51    17    12    1
    52    24    18   ar
    53     3     4    1
    54    43    50    1
    55    32    33    1
