@<TRIPOS>MOLECULE
*****
 27 29 0 0 0
SMALL
GASTEIGER

@<TRIPOS>ATOM
      1 C          50.2753   10.3186  -26.8106 C.ar    1  UNL1        0.1385
      2 C          50.0143    9.2117  -27.6407 C.ar    1  UNL1        0.0366
      3 C          50.9517    8.8122  -28.5976 C.ar    1  UNL1       -0.0011
      4 C          52.1654    9.5029  -28.7348 C.ar    1  UNL1       -0.0206
      5 C          52.4272   10.6017  -27.9021 C.ar    1  UNL1       -0.0011
      6 C          51.4900   11.0003  -26.9456 C.ar    1  UNL1        0.0366
      7 O          49.3647   10.7757  -25.8446 O.3     1  UNL1       -0.4750
      8 C          48.6774   12.0281  -25.8765 C.3     1  UNL1        0.2117
      9 C          47.1719   11.8357  -26.0933 C.3     1  UNL1        0.0931
     10 C          46.2671   11.9523  -30.2845 C.ar    1  UNL1        0.0244
     11 C          46.1865   13.0969  -29.4770 C.ar    1  UNL1        0.0964
     12 N          46.4732   13.0216  -28.1504 N.ar    1  UNL1       -0.2482
     13 C          46.8277   11.8504  -27.5554 C.ar    1  UNL1        0.0650
     14 C          46.9151   10.6814  -28.3240 C.ar    1  UNL1        0.0442
     15 C          46.6266   10.7324  -29.6889 C.ar    1  UNL1        0.1388
     16 F          46.6986    9.5956  -30.4268 F       1  UNL1       -0.2044
     17 C          45.5249   13.4502  -32.1362 C.3     1  UNL1        0.0052
     18 C          45.9199   12.0291  -31.7481 C.3     1  UNL1        0.0302
     19 C          53.1570    9.0899  -29.7924 C.3     1  UNL1        0.0468
     20 C          53.1323    7.5708  -30.0254 C.3     1  UNL1        0.1369
     21 S          52.2331    7.1603  -31.5833 S.3     1  UNL1       -0.0482
     22 C          53.7274    6.4725  -32.2757 C.2     1  UNL1        0.2792
     23 O          53.7886    6.0395  -33.4558 O.2     1  UNL1       -0.2625
     24 N          54.8459    6.4526  -31.4145 N.am    1  UNL1       -0.2460
     25 C          54.5257    7.0344  -30.1656 C.2     1  UNL1        0.2392
     26 O          55.3662    7.0822  -29.2283 O.2     1  UNL1       -0.2737
     27 H          55.7809    6.0606  -31.6647 H       1  UNL1        0.1583
@<TRIPOS>BOND
     1    17    18    1
     2    18    10    1
     3    10    11   ar
     4    11    12   ar
     5    12    13   ar
     6    13     9    1
     7     9     8    1
     8     8     7    1
     9     7     1    1
    10     1     2   ar
    11     2     3   ar
    12     3     4   ar
    13     4    19    1
    14    19    20    1
    15    20    21    1
    16    21    22    1
    17    22    23    2
    18    22    24   am
    19    24    25   am
    20    25    26    2
    21     4     5   ar
    22     5     6   ar
    23    13    14   ar
    24    14    15   ar
    25    15    16    1
    26    15    10   ar
    27     6     1   ar
    28    25    20    1
    29    24    27    1
@<TRIPOS>MOLECULE
*****
 27 29 0 0 0
SMALL
GASTEIGER

@<TRIPOS>ATOM
      1 C          46.2559   14.5094  -24.7280 C.ar    1  UNL1        0.1385
      2 C          47.1751   14.9451  -23.7546 C.ar    1  UNL1        0.0366
      3 C          47.5246   14.1081  -22.6910 C.ar    1  UNL1       -0.0011
      4 C          46.9713   12.8227  -22.5871 C.ar    1  UNL1       -0.0206
      5 C          46.0606   12.3871  -23.5619 C.ar    1  UNL1       -0.0011
      6 C          45.7120   13.2241  -24.6249 C.ar    1  UNL1        0.0366
      7 O          45.8548   15.3120  -25.8079 O.3     1  UNL1       -0.4750
      8 C          46.5351   15.4225  -27.0597 C.3     1  UNL1        0.2117
      9 C          45.6243   15.0305  -28.2290 C.3     1  UNL1        0.0931
     10 C          46.5524   11.1038  -29.6844 C.ar    1  UNL1        0.0244
     11 C          46.5925   11.4158  -28.3171 C.ar    1  UNL1        0.0964
     12 N          46.2996   12.6732  -27.8919 N.ar    1  UNL1       -0.2482
     13 C          45.9774   13.6704  -28.7599 C.ar    1  UNL1        0.0650
     14 C          45.9311   13.4037  -30.1353 C.ar    1  UNL1        0.0442
     15 C          46.2268   12.1201  -30.5974 C.ar    1  UNL1        0.1388
     16 F          46.1947   11.8695  -31.9308 F       1  UNL1       -0.2044
     17 C          48.0734    9.1542  -29.3546 C.3     1  UNL1        0.0052
     18 C          46.9066    9.7187  -30.1584 C.3     1  UNL1        0.0302
     19 C          47.3243   11.9379  -21.4188 C.3     1  UNL1        0.0468
     20 C          48.8063   11.5311  -21.4477 C.3     1  UNL1        0.1369
     21 S          49.5093   11.4912  -19.7423 S.3     1  UNL1       -0.0482
     22 C          49.8144    9.7397  -19.8988 C.2     1  UNL1        0.2792
     23 O          50.2708    9.0459  -18.9532 O.2     1  UNL1       -0.2625
     24 N          49.5014    9.1758  -21.1547 N.am    1  UNL1       -0.2460
     25 C          48.9660   10.1555  -22.0233 C.2     1  UNL1        0.2392
     26 O          48.6568    9.8802  -23.2131 O.2     1  UNL1       -0.2737
     27 H          49.6468    8.1732  -21.4081 H       1  UNL1        0.1583
@<TRIPOS>BOND
     1    17    18    1
     2    18    10    1
     3    10    11   ar
     4    11    12   ar
     5    12    13   ar
     6    13     9    1
     7     9     8    1
     8     8     7    1
     9     7     1    1
    10     1     2   ar
    11     2     3   ar
    12     3     4   ar
    13     4    19    1
    14    19    20    1
    15    20    21    1
    16    21    22    1
    17    22    23    2
    18    22    24   am
    19    24    25   am
    20    25    26    2
    21     4     5   ar
    22     5     6   ar
    23    13    14   ar
    24    14    15   ar
    25    15    16    1
    26    15    10   ar
    27     6     1   ar
    28    25    20    1
    29    24    27    1
@<TRIPOS>MOLECULE
*****
 27 29 0 0 0
SMALL
GASTEIGER

@<TRIPOS>ATOM
      1 C          51.0899    9.5287  -24.7625 C.ar    1  UNL1        0.1385
      2 C          50.6900   10.7737  -24.2405 C.ar    1  UNL1        0.0366
      3 C          49.8839   10.8334  -23.1001 C.ar    1  UNL1       -0.0011
      4 C          49.4727    9.6552  -22.4584 C.ar    1  UNL1       -0.0206
      5 C          49.8777    8.4151  -22.9757 C.ar    1  UNL1       -0.0011
      6 C          50.6838    8.3563  -24.1154 C.ar    1  UNL1        0.0366
      7 O          51.8843    9.4069  -25.9137 O.3     1  UNL1       -0.4750
      8 C          51.5578    9.9188  -27.2073 C.3     1  UNL1        0.2117
      9 C          50.1273    9.5452  -27.6131 C.3     1  UNL1        0.0931
     10 C          50.0538    7.2229  -31.2187 C.ar    1  UNL1        0.0244
     11 C          48.8798    7.7238  -30.6360 C.ar    1  UNL1        0.0964
     12 N          48.9399    8.4499  -29.4884 N.ar    1  UNL1       -0.2482
     13 C          50.1183    8.7031  -28.8570 C.ar    1  UNL1        0.0650
     14 C          51.3147    8.2166  -29.4018 C.ar    1  UNL1        0.0442
     15 C          51.2801    7.4690  -30.5802 C.ar    1  UNL1        0.1388
     16 F          52.4392    6.9877  -31.0968 F       1  UNL1       -0.2044
     17 C          48.5393    6.0411  -32.8102 C.3     1  UNL1        0.0052
     18 C          49.9847    6.3926  -32.4735 C.3     1  UNL1        0.0302
     19 C          48.5740    9.7245  -21.2502 C.3     1  UNL1        0.0468
     20 C          48.7340   11.0591  -20.5047 C.3     1  UNL1        0.1369
     21 S          47.2323   12.1108  -20.7117 S.3     1  UNL1       -0.0482
     22 C          46.9297   12.0414  -18.9541 C.2     1  UNL1        0.2792
     23 O          45.9159   12.5633  -18.4217 O.2     1  UNL1       -0.2625
     24 N          47.9002   11.3524  -18.1949 N.am    1  UNL1       -0.2460
     25 C          48.9099   10.8255  -19.0337 C.2     1  UNL1        0.2392
     26 O          49.9014   10.2088  -18.5608 O.2     1  UNL1       -0.2737
     27 H          47.8766   11.2475  -17.1561 H       1  UNL1        0.1583
@<TRIPOS>BOND
     1    17    18    1
     2    18    10    1
     3    10    11   ar
     4    11    12   ar
     5    12    13   ar
     6    13     9    1
     7     9     8    1
     8     8     7    1
     9     7     1    1
    10     1     2   ar
    11     2     3   ar
    12     3     4   ar
    13     4    19    1
    14    19    20    1
    15    20    21    1
    16    21    22    1
    17    22    23    2
    18    22    24   am
    19    24    25   am
    20    25    26    2
    21     4     5   ar
    22     5     6   ar
    23    13    14   ar
    24    14    15   ar
    25    15    16    1
    26    15    10   ar
    27     6     1   ar
    28    25    20    1
    29    24    27    1
@<TRIPOS>MOLECULE
*****
 27 29 0 0 0
SMALL
GASTEIGER

@<TRIPOS>ATOM
      1 C          47.3010   11.4032  -22.6463 C.ar    1  UNL1        0.1385
      2 C          48.5266   10.7102  -22.6422 C.ar    1  UNL1        0.0366
      3 C          49.2425   10.5520  -21.4522 C.ar    1  UNL1       -0.0011
      4 C          48.7439   11.0731  -20.2485 C.ar    1  UNL1       -0.0206
      5 C          47.5188   11.7576  -20.2527 C.ar    1  UNL1       -0.0011
      6 C          46.8035   11.9151  -21.4426 C.ar    1  UNL1        0.0366
      7 O          46.5472   11.6077  -23.8130 O.3     1  UNL1       -0.4750
      8 C          47.0680   12.0227  -25.0774 C.3     1  UNL1        0.2117
      9 C          46.0659   12.9013  -25.8352 C.3     1  UNL1        0.0931
     10 C          46.2539   12.1648  -30.0566 C.ar    1  UNL1        0.0244
     11 C          46.0209   13.4475  -29.5381 C.ar    1  UNL1        0.0964
     12 N          45.9601   13.6430  -28.1943 N.ar    1  UNL1       -0.2482
     13 C          46.1028   12.6186  -27.3100 C.ar    1  UNL1        0.0650
     14 C          46.3315   11.3199  -27.7854 C.ar    1  UNL1        0.0442
     15 C          46.3992   11.0929  -29.1610 C.ar    1  UNL1        0.1388
     16 F          46.6067    9.8317  -29.6175 F       1  UNL1       -0.2044
     17 C          45.5663   13.0670  -32.2784 C.3     1  UNL1        0.0052
     18 C          46.2909   11.9426  -31.5459 C.3     1  UNL1        0.0302
     19 C          49.5373   10.9308  -18.9747 C.3     1  UNL1        0.0468
     20 C          50.0246   12.2943  -18.4591 C.3     1  UNL1        0.1369
     21 S          49.7905   12.4276  -16.6338 S.3     1  UNL1       -0.0482
     22 C          51.5553   12.5691  -16.4082 C.2     1  UNL1        0.2792
     23 O          52.0883   12.6311  -15.2699 O.2     1  UNL1       -0.2625
     24 N          52.3214   12.5983  -17.5937 N.am    1  UNL1       -0.2460
     25 C          51.4891   12.4698  -18.7302 C.2     1  UNL1        0.2392
     26 O          51.9601   12.5142  -19.8978 O.2     1  UNL1       -0.2737
     27 H          53.3600   12.7023  -17.6270 H       1  UNL1        0.1583
@<TRIPOS>BOND
     1    17    18    1
     2    18    10    1
     3    10    11   ar
     4    11    12   ar
     5    12    13   ar
     6    13     9    1
     7     9     8    1
     8     8     7    1
     9     7     1    1
    10     1     2   ar
    11     2     3   ar
    12     3     4   ar
    13     4    19    1
    14    19    20    1
    15    20    21    1
    16    21    22    1
    17    22    23    2
    18    22    24   am
    19    24    25   am
    20    25    26    2
    21     4     5   ar
    22     5     6   ar
    23    13    14   ar
    24    14    15   ar
    25    15    16    1
    26    15    10   ar
    27     6     1   ar
    28    25    20    1
    29    24    27    1
@<TRIPOS>MOLECULE
*****
 27 29 0 0 0
SMALL
GASTEIGER

@<TRIPOS>ATOM
      1 C          46.0979   14.6041  -24.5982 C.ar    1  UNL1        0.1385
      2 C          45.3160   13.4333  -24.5929 C.ar    1  UNL1        0.0366
      3 C          45.6516   12.3657  -23.7553 C.ar    1  UNL1       -0.0011
      4 C          46.7643   12.4527  -22.9049 C.ar    1  UNL1       -0.0206
      5 C          47.5388   13.6230  -22.9060 C.ar    1  UNL1       -0.0011
      6 C          47.2025   14.6898  -23.7433 C.ar    1  UNL1        0.0366
      7 O          45.8192   15.7006  -25.4297 O.3     1  UNL1       -0.4750
      8 C          45.5074   15.6298  -26.8225 C.3     1  UNL1        0.2117
      9 C          46.7209   15.1842  -27.6466 C.3     1  UNL1        0.0931
     10 C          50.2851   17.3479  -26.6397 C.ar    1  UNL1        0.0244
     11 C          50.1703   15.9667  -26.4213 C.ar    1  UNL1        0.0964
     12 N          49.0226   15.3144  -26.7456 N.ar    1  UNL1       -0.2482
     13 C          47.9484   15.9641  -27.2706 C.ar    1  UNL1        0.0650
     14 C          48.0182   17.3452  -27.4999 C.ar    1  UNL1        0.0442
     15 C          49.1861   18.0381  -27.1763 C.ar    1  UNL1        0.1388
     16 F          49.2445   19.3777  -27.3866 F       1  UNL1       -0.2044
     17 C          51.6384   18.2271  -24.7374 C.3     1  UNL1        0.0052
     18 C          51.5453   18.0762  -26.2522 C.3     1  UNL1        0.0302
     19 C          47.1425   11.2848  -22.0300 C.3     1  UNL1        0.0468
     20 C          48.6554   11.2491  -21.7609 C.3     1  UNL1        0.1369
     21 S          49.0010   11.2934  -19.9490 S.3     1  UNL1       -0.0482
     22 C          49.7525    9.6773  -20.0432 C.2     1  UNL1        0.2792
     23 O          50.1727    9.0670  -19.0260 O.2     1  UNL1       -0.2625
     24 N          49.8384    9.1190  -21.3371 N.am    1  UNL1       -0.2460
     25 C          49.2579    9.9835  -22.2943 C.2     1  UNL1        0.2392
     26 O          49.2635    9.7026  -23.5223 O.2     1  UNL1       -0.2737
     27 H          50.2727    8.1951  -21.5574 H       1  UNL1        0.1583
@<TRIPOS>BOND
     1    17    18    1
     2    18    10    1
     3    10    11   ar
     4    11    12   ar
     5    12    13   ar
     6    13     9    1
     7     9     8    1
     8     8     7    1
     9     7     1    1
    10     1     2   ar
    11     2     3   ar
    12     3     4   ar
    13     4    19    1
    14    19    20    1
    15    20    21    1
    16    21    22    1
    17    22    23    2
    18    22    24   am
    19    24    25   am
    20    25    26    2
    21     4     5   ar
    22     5     6   ar
    23    13    14   ar
    24    14    15   ar
    25    15    16    1
    26    15    10   ar
    27     6     1   ar
    28    25    20    1
    29    24    27    1
@<TRIPOS>MOLECULE
*****
 27 29 0 0 0
SMALL
GASTEIGER

@<TRIPOS>ATOM
      1 C          45.8328   14.0432  -24.9313 C.ar    1  UNL1        0.1385
      2 C          46.7687   14.6476  -24.0704 C.ar    1  UNL1        0.0366
      3 C          47.2162   13.9729  -22.9309 C.ar    1  UNL1       -0.0011
      4 C          46.7454   12.6839  -22.6379 C.ar    1  UNL1       -0.0206
      5 C          45.8178   12.0798  -23.5005 C.ar    1  UNL1       -0.0011
      6 C          45.3713   12.7547  -24.6395 C.ar    1  UNL1        0.0366
      7 O          45.3351   14.6791  -26.0799 O.3     1  UNL1       -0.4750
      8 C          46.0047   14.7639  -27.3394 C.3     1  UNL1        0.2117
      9 C          46.2733   16.2207  -27.7344 C.3     1  UNL1        0.0931
     10 C          50.2231   17.4661  -26.6179 C.ar    1  UNL1        0.0244
     11 C          49.2621   18.3775  -27.0811 C.ar    1  UNL1        0.0964
     12 N          48.0221   17.9463  -27.4334 N.ar    1  UNL1       -0.2482
     13 C          47.6709   16.6332  -27.3698 C.ar    1  UNL1        0.0650
     14 C          48.6023   15.6880  -26.9180 C.ar    1  UNL1        0.0442
     15 C          49.8823   16.1055  -26.5493 C.ar    1  UNL1        0.1388
     16 F          50.7856   15.1853  -26.1258 F       1  UNL1       -0.2044
     17 C          51.6703   18.3538  -24.7902 C.3     1  UNL1        0.0052
     18 C          51.6066   17.9391  -26.2565 C.3     1  UNL1        0.0302
     19 C          47.2040   11.9755  -21.3888 C.3     1  UNL1        0.0468
     20 C          48.6924   11.5999  -21.4683 C.3     1  UNL1        0.1369
     21 S          49.4503   11.5615  -19.7865 S.3     1  UNL1       -0.0482
     22 C          49.7863    9.8180  -19.9674 C.2     1  UNL1        0.2792
     23 O          50.2869    9.1267  -19.0427 O.2     1  UNL1       -0.2625
     24 N          49.4450    9.2575  -21.2174 N.am    1  UNL1       -0.2460
     25 C          48.8620   10.2325  -22.0602 C.2     1  UNL1        0.2392
     26 O          48.5206    9.9601  -23.2418 O.2     1  UNL1       -0.2737
     27 H          49.6029    8.2601  -21.4838 H       1  UNL1        0.1583
@<TRIPOS>BOND
     1    17    18    1
     2    18    10    1
     3    10    11   ar
     4    11    12   ar
     5    12    13   ar
     6    13     9    1
     7     9     8    1
     8     8     7    1
     9     7     1    1
    10     1     2   ar
    11     2     3   ar
    12     3     4   ar
    13     4    19    1
    14    19    20    1
    15    20    21    1
    16    21    22    1
    17    22    23    2
    18    22    24   am
    19    24    25   am
    20    25    26    2
    21     4     5   ar
    22     5     6   ar
    23    13    14   ar
    24    14    15   ar
    25    15    16    1
    26    15    10   ar
    27     6     1   ar
    28    25    20    1
    29    24    27    1
@<TRIPOS>MOLECULE
*****
 27 29 0 0 0
SMALL
GASTEIGER

@<TRIPOS>ATOM
      1 C          47.1069   15.1250  -24.2165 C.ar    1  UNL1        0.1385
      2 C          47.7900   16.0430  -23.3961 C.ar    1  UNL1        0.0366
      3 C          48.7513   15.5946  -22.4858 C.ar    1  UNL1       -0.0011
      4 C          49.0524   14.2276  -22.3863 C.ar    1  UNL1       -0.0206
      5 C          48.3758   13.3145  -23.2095 C.ar    1  UNL1       -0.0011
      6 C          47.4153   13.7635  -24.1195 C.ar    1  UNL1        0.0366
      7 O          46.1204   15.5153  -25.1362 O.3     1  UNL1       -0.4750
      8 C          45.8086   14.8415  -26.3572 C.3     1  UNL1        0.2117
      9 C          46.3927   15.5777  -27.5685 C.3     1  UNL1        0.0931
     10 C          50.1853   17.3734  -26.6799 C.ar    1  UNL1        0.0244
     11 C          49.9965   15.9836  -26.6417 C.ar    1  UNL1        0.0964
     12 N          48.7784   15.4493  -26.9218 N.ar    1  UNL1       -0.2482
     13 C          47.7043   16.2263  -27.2290 C.ar    1  UNL1        0.0650
     14 C          47.8473   17.6200  -27.2728 C.ar    1  UNL1        0.0442
     15 C          49.0883   18.1934  -26.9901 C.ar    1  UNL1        0.1388
     16 F          49.2191   19.5440  -27.0197 F       1  UNL1       -0.2044
     17 C          51.6719   18.1477  -24.8323 C.3     1  UNL1        0.0052
     18 C          51.5270   17.9674  -26.3398 C.3     1  UNL1        0.0302
     19 C          50.0640   13.7460  -21.3778 C.3     1  UNL1        0.0468
     20 C          51.4442   14.3781  -21.6182 C.3     1  UNL1        0.1369
     21 S          52.4963   14.2513  -20.1078 S.3     1  UNL1       -0.0482
     22 C          53.6590   13.2259  -20.9921 C.2     1  UNL1        0.2792
     23 O          54.6653   12.7124  -20.4378 O.2     1  UNL1       -0.2625
     24 N          53.3725   13.0181  -22.3588 N.am    1  UNL1       -0.2460
     25 C          52.1679   13.6648  -22.7212 C.2     1  UNL1        0.2392
     26 O          51.7436   13.6468  -23.9072 O.2     1  UNL1       -0.2737
     27 H          53.9692   12.4642  -23.0129 H       1  UNL1        0.1583
@<TRIPOS>BOND
     1    17    18    1
     2    18    10    1
     3    10    11   ar
     4    11    12   ar
     5    12    13   ar
     6    13     9    1
     7     9     8    1
     8     8     7    1
     9     7     1    1
    10     1     2   ar
    11     2     3   ar
    12     3     4   ar
    13     4    19    1
    14    19    20    1
    15    20    21    1
    16    21    22    1
    17    22    23    2
    18    22    24   am
    19    24    25   am
    20    25    26    2
    21     4     5   ar
    22     5     6   ar
    23    13    14   ar
    24    14    15   ar
    25    15    16    1
    26    15    10   ar
    27     6     1   ar
    28    25    20    1
    29    24    27    1
@<TRIPOS>MOLECULE
*****
 27 29 0 0 0
SMALL
GASTEIGER

@<TRIPOS>ATOM
      1 C          47.2534   14.9517  -24.0990 C.ar    1  UNL1        0.1385
      2 C          47.7920   15.9128  -23.2223 C.ar    1  UNL1        0.0366
      3 C          49.0027   15.6692  -22.5676 C.ar    1  UNL1       -0.0011
      4 C          49.6985   14.4700  -22.7838 C.ar    1  UNL1       -0.0206
      5 C          49.1641   13.5158  -23.6632 C.ar    1  UNL1       -0.0011
      6 C          47.9540   13.7602  -24.3176 C.ar    1  UNL1        0.0366
      7 O          46.0339   15.1341  -24.7705 O.3     1  UNL1       -0.4750
      8 C          45.7594   14.7424  -26.1170 C.3     1  UNL1        0.2117
      9 C          46.0583   15.8779  -27.1029 C.3     1  UNL1        0.0931
     10 C          50.0004   17.4778  -26.5573 C.ar    1  UNL1        0.0244
     11 C          49.7878   16.1390  -26.9190 C.ar    1  UNL1        0.0964
     12 N          48.5240   15.6637  -27.0760 N.ar    1  UNL1       -0.2482
     13 C          47.4296   16.4472  -26.8758 C.ar    1  UNL1        0.0650
     14 C          47.5965   17.7894  -26.5079 C.ar    1  UNL1        0.0442
     15 C          48.8842   18.3020  -26.3412 C.ar    1  UNL1        0.1388
     16 F          49.0412   19.5983  -25.9710 F       1  UNL1       -0.2044
     17 C          51.6968   18.1815  -24.8691 C.3     1  UNL1        0.0052
     18 C          51.3997   17.9966  -26.3535 C.3     1  UNL1        0.0302
     19 C          50.9855   14.1973  -22.0478 C.3     1  UNL1        0.0468
     20 C          50.7480   14.0383  -20.5375 C.3     1  UNL1        0.1369
     21 S          49.4592   12.7602  -20.2066 S.3     1  UNL1       -0.0482
     22 C          50.6607   11.7569  -19.3492 C.2     1  UNL1        0.2792
     23 O          50.3877   10.6152  -18.8956 O.2     1  UNL1       -0.2625
     24 N          51.9470   12.3240  -19.2185 N.am    1  UNL1       -0.2460
     25 C          52.0024   13.5888  -19.8493 C.2     1  UNL1        0.2392
     26 O          53.0460   14.2937  -19.8176 O.2     1  UNL1       -0.2737
     27 H          52.7474   11.8722  -18.7226 H       1  UNL1        0.1583
@<TRIPOS>BOND
     1    17    18    1
     2    18    10    1
     3    10    11   ar
     4    11    12   ar
     5    12    13   ar
     6    13     9    1
     7     9     8    1
     8     8     7    1
     9     7     1    1
    10     1     2   ar
    11     2     3   ar
    12     3     4   ar
    13     4    19    1
    14    19    20    1
    15    20    21    1
    16    21    22    1
    17    22    23    2
    18    22    24   am
    19    24    25   am
    20    25    26    2
    21     4     5   ar
    22     5     6   ar
    23    13    14   ar
    24    14    15   ar
    25    15    16    1
    26    15    10   ar
    27     6     1   ar
    28    25    20    1
    29    24    27    1
@<TRIPOS>MOLECULE
*****
 27 29 0 0 0
SMALL
GASTEIGER

@<TRIPOS>ATOM
      1 C          50.1084    9.9009  -25.8801 C.ar    1  UNL1        0.1385
      2 C          50.5758    8.7789  -25.1695 C.ar    1  UNL1        0.0366
      3 C          50.3392    8.6658  -23.7966 C.ar    1  UNL1       -0.0011
      4 C          49.6261    9.6631  -23.1141 C.ar    1  UNL1       -0.0206
      5 C          49.1546   10.7776  -23.8249 C.ar    1  UNL1       -0.0011
      6 C          49.3912   10.8897  -25.1973 C.ar    1  UNL1        0.0366
      7 O          50.3308   10.0765  -27.2553 O.3     1  UNL1       -0.4750
      8 C          50.0436    9.1158  -28.2734 C.3     1  UNL1        0.2117
      9 C          48.5508    8.7680  -28.3108 C.3     1  UNL1        0.0931
     10 C          46.2060   11.8126  -30.2162 C.ar    1  UNL1        0.0244
     11 C          46.7280   10.7237  -30.9307 C.ar    1  UNL1        0.0964
     12 N          47.4735    9.7810  -30.2956 N.ar    1  UNL1       -0.2482
     13 C          47.7553    9.8603  -28.9667 C.ar    1  UNL1        0.0650
     14 C          47.2584   10.9348  -28.2161 C.ar    1  UNL1        0.0442
     15 C          46.4893   11.9157  -28.8446 C.ar    1  UNL1        0.1388
     16 F          46.0220   12.9619  -28.1172 F       1  UNL1       -0.2044
     17 C          45.8083   12.9628  -32.3938 C.3     1  UNL1        0.0052
     18 C          45.4057   12.8733  -30.9256 C.3     1  UNL1        0.0302
     19 C          49.4048    9.5535  -21.6270 C.3     1  UNL1        0.0468
     20 C          49.2014   10.9349  -20.9843 C.3     1  UNL1        0.1369
     21 S          47.4075   11.2820  -20.7284 S.3     1  UNL1       -0.0482
     22 C          47.6617   11.3445  -18.9629 C.2     1  UNL1        0.2792
     23 O          46.7148   11.5004  -18.1488 O.2     1  UNL1       -0.2625
     24 N          48.9987   11.1981  -18.5336 N.am    1  UNL1       -0.2460
     25 C          49.8589   10.9938  -19.6377 C.2     1  UNL1        0.2392
     26 O          51.1047   10.8817  -19.4880 O.2     1  UNL1       -0.2737
     27 H          49.3100   11.2371  -17.5375 H       1  UNL1        0.1583
@<TRIPOS>BOND
     1    17    18    1
     2    18    10    1
     3    10    11   ar
     4    11    12   ar
     5    12    13   ar
     6    13     9    1
     7     9     8    1
     8     8     7    1
     9     7     1    1
    10     1     2   ar
    11     2     3   ar
    12     3     4   ar
    13     4    19    1
    14    19    20    1
    15    20    21    1
    16    21    22    1
    17    22    23    2
    18    22    24   am
    19    24    25   am
    20    25    26    2
    21     4     5   ar
    22     5     6   ar
    23    13    14   ar
    24    14    15   ar
    25    15    16    1
    26    15    10   ar
    27     6     1   ar
    28    25    20    1
    29    24    27    1
