@<TRIPOS>MOLECULE
*****
 50 55 0 0 0
SMALL
GASTEIGER

@<TRIPOS>ATOM
      1 C         -11.6119  -10.9011   30.5384 C.3     1  UNL1        0.1535
      2 N         -10.6307  -11.4656   29.5993 N.am    1  UNL1       -0.2945
      3 C          -9.4780  -12.1965   30.0451 C.2     1  UNL1        0.2483
      4 O          -9.1093  -12.1024   31.2480 O.2     1  UNL1       -0.2701
      5 H         -10.7246  -11.2755   28.5766 H       1  UNL1        0.1501
      6 C          -8.7014  -13.0493   29.1111 C.ar    1  UNL1        0.0808
      7 C          -9.3617  -14.0548   28.3831 C.ar    1  UNL1        0.0080
      8 C          -8.6616  -14.8571   27.4790 C.ar    1  UNL1        0.0148
      9 C          -7.2876  -14.6634   27.2745 C.ar    1  UNL1        0.0502
     10 C          -6.6242  -13.6603   27.9945 C.ar    1  UNL1        0.0443
     11 C          -7.3194  -12.8549   28.9010 C.ar    1  UNL1        0.1457
     12 F          -6.6420  -11.8607   29.5267 F       1  UNL1       -0.2040
     13 N          -6.5684  -15.4583   26.3141 N.pl3   1  UNL1       -0.3040
     14 C          -5.6186  -16.4831   26.7634 C.3     1  UNL1        0.1122
     15 C          -4.4297  -16.5516   25.8043 C.3     1  UNL1        0.1123
     16 N          -4.9047  -16.6168   24.4178 N.pl3   1  UNL1       -0.3023
     17 C          -5.8498  -15.5894   23.9673 C.3     1  UNL1        0.1123
     18 C          -7.0396  -15.5195   24.9247 C.3     1  UNL1        0.1122
     19 C          -4.1940  -17.4174   23.4570 C.ar    1  UNL1        0.0759
     20 C          -2.7960  -17.3227   23.3471 C.ar    1  UNL1        0.0191
     21 C          -2.1072  -18.1032   22.4139 C.ar    1  UNL1        0.0311
     22 C          -2.8074  -18.9806   21.5816 C.ar    1  UNL1        0.1425
     23 F          -2.1379  -19.7360   20.6764 F       1  UNL1       -0.2041
     24 C          -4.1984  -19.0767   21.6798 C.ar    1  UNL1        0.0605
     25 C          -4.8925  -18.2986   22.6125 C.ar    1  UNL1        0.1556
     26 F          -6.2454  -18.3820   22.6732 F       1  UNL1       -0.2028
     27 C         -12.3193  -11.9867   31.3165 C.2     1  UNL1        0.2443
     28 O         -13.5800  -12.0307   31.3370 O.2     1  UNL1       -0.2730
     29 N         -11.5496  -13.0236   31.9459 N.am    1  UNL1       -0.2825
     30 H         -10.5505  -13.1307   31.6575 H       1  UNL1        0.1549
     31 C         -12.0969  -13.9951   32.8536 C.ar    1  UNL1        0.0535
     32 C         -11.8654  -13.8598   34.2293 C.ar    1  UNL1        0.0353
     33 C         -12.4129  -14.7886   35.1176 C.ar    1  UNL1        0.1002
     34 N         -13.1802  -15.8086   34.6505 N.ar    1  UNL1       -0.2422
     35 C         -13.4390  -15.9549   33.3241 C.ar    1  UNL1        0.1002
     36 C         -12.9097  -15.0487   32.4016 C.ar    1  UNL1        0.0353
     37 C         -10.9613   -9.8736   31.4921 C.3     1  UNL1        0.0569
     38 C          -8.0935   -6.4845   30.1724 C.ar    1  UNL1       -0.0224
     39 C          -8.7868   -5.2682   29.9244 C.ar    1  UNL1       -0.0028
     40 C         -10.1843   -5.1955   30.0563 C.ar    1  UNL1        0.0166
     41 C         -10.8655   -6.3470   30.4399 C.ar    1  UNL1        0.0563
     42 N         -12.1907   -6.4861   30.6165 N.ar    1  UNL1       -0.3523
     43 C         -12.3855   -7.7698   30.9930 C.ar    1  UNL1        0.0681
     44 C         -11.1712   -8.4468   31.0598 C.ar    1  UNL1       -0.0017
     45 C         -10.2087   -7.5220   30.6942 C.ar    1  UNL1        0.0128
     46 C          -8.8234   -7.6305   30.5640 C.ar    1  UNL1       -0.0031
     47 H         -12.9243   -5.7536   30.4912 H       1  UNL1        0.1660
     48 C          -5.8633   -6.1997   31.2959 C.3     1  UNL1        0.0047
     49 C          -6.5891   -6.5741   29.9987 C.3     1  UNL1        0.0224
     50 C          -6.1661   -7.9647   29.5132 C.3     1  UNL1        0.0047
@<TRIPOS>BOND
     1    48    49    1
     2    49    50    1
     3    49    38    1
     4    38    39   ar
     5    39    40   ar
     6    40    41   ar
     7    41    42   ar
     8    42    43   ar
     9    43    44   ar
    10    44    37    1
    11    37     1    1
    12     1     2    1
    13     2     3   am
    14     3     4    2
    15     3     6    1
    16     6     7   ar
    17     7     8   ar
    18     8     9   ar
    19     9    13    1
    20    13    14    1
    21    14    15    1
    22    15    16    1
    23    16    19    1
    24    19    20   ar
    25    20    21   ar
    26    21    22   ar
    27    22    23    1
    28    22    24   ar
    29    24    25   ar
    30    25    26    1
    31    16    17    1
    32    17    18    1
    33     9    10   ar
    34    10    11   ar
    35    11    12    1
    36     1    27    1
    37    27    28    2
    38    27    29   am
    39    29    31    1
    40    31    32   ar
    41    32    33   ar
    42    33    34   ar
    43    34    35   ar
    44    35    36   ar
    45    44    45   ar
    46    45    46   ar
    47    46    38   ar
    48    45    41   ar
    49    11     6   ar
    50    36    31   ar
    51    18    13    1
    52    25    19   ar
    53    42    47    1
    54     2     5    1
    55    29    30    1
@<TRIPOS>MOLECULE
*****
 50 55 0 0 0
SMALL
GASTEIGER

@<TRIPOS>ATOM
      1 C          -8.0128  -10.5525   32.7042 C.3     1  UNL1        0.1535
      2 N          -8.3266  -11.2084   31.4257 N.am    1  UNL1       -0.2945
      3 C          -7.3039  -11.7168   30.5555 C.2     1  UNL1        0.2483
      4 O          -6.1110  -11.3361   30.7095 O.2     1  UNL1       -0.2701
      5 H          -9.3162  -11.2488   31.0941 H       1  UNL1        0.1501
      6 C          -7.6277  -12.6713   29.4660 C.ar    1  UNL1        0.0808
      7 C          -6.5888  -13.1987   28.6788 C.ar    1  UNL1        0.0080
      8 C          -6.8604  -14.1172   27.6621 C.ar    1  UNL1        0.0148
      9 C          -8.1762  -14.5375   27.4182 C.ar    1  UNL1        0.0502
     10 C          -9.2158  -14.0182   28.2018 C.ar    1  UNL1        0.0443
     11 C          -8.9501  -13.0983   29.2201 C.ar    1  UNL1        0.1457
     12 F          -9.9847  -12.6732   29.9869 F       1  UNL1       -0.2040
     13 N          -8.4585  -15.5150   26.4003 N.pl3   1  UNL1       -0.3040
     14 C          -8.2923  -15.1766   24.9818 C.3     1  UNL1        0.1122
     15 C          -9.3704  -15.8698   24.1482 C.3     1  UNL1        0.1123
     16 N          -9.4515  -17.2891   24.5102 N.pl3   1  UNL1       -0.3023
     17 C          -9.6231  -17.6270   25.9272 C.3     1  UNL1        0.1123
     18 C          -8.5457  -16.9353   26.7625 C.3     1  UNL1        0.1122
     19 C          -9.7244  -18.2702   23.4942 C.ar    1  UNL1        0.0759
     20 C          -8.6943  -18.7337   22.6578 C.ar    1  UNL1        0.0191
     21 C          -8.9615  -19.6887   21.6724 C.ar    1  UNL1        0.0311
     22 C         -10.2577  -20.1855   21.5115 C.ar    1  UNL1        0.1425
     23 F         -10.5152  -21.1108   20.5546 F       1  UNL1       -0.2041
     24 C         -11.2895  -19.7255   22.3348 C.ar    1  UNL1        0.0605
     25 C         -11.0274  -18.7706   23.3229 C.ar    1  UNL1        0.1556
     26 F         -12.0467  -18.3128   24.0927 F       1  UNL1       -0.2028
     27 C          -7.6139   -9.1089   32.5006 C.2     1  UNL1        0.2443
     28 O          -7.2797   -8.3999   33.4893 O.2     1  UNL1       -0.2730
     29 N          -7.5201   -8.5810   31.1679 N.am    1  UNL1       -0.2825
     30 H          -7.5024   -9.2622   30.3752 H       1  UNL1        0.1549
     31 C          -7.3282   -7.1887   30.8646 C.ar    1  UNL1        0.0535
     32 C          -6.0450   -6.7233   30.5464 C.ar    1  UNL1        0.0353
     33 C          -5.8566   -5.3758   30.2298 C.ar    1  UNL1        0.1002
     34 N          -6.9159   -4.5245   30.2142 N.ar    1  UNL1       -0.2422
     35 C          -8.1751   -4.9499   30.4988 C.ar    1  UNL1        0.1002
     36 C          -8.4073   -6.2893   30.8219 C.ar    1  UNL1        0.0353
     37 C          -9.1854  -10.6650   33.7047 C.3     1  UNL1        0.0569
     38 C         -12.4006  -13.8706   32.7890 C.ar    1  UNL1       -0.0224
     39 C         -13.5005  -13.3293   32.0687 C.ar    1  UNL1       -0.0028
     40 C         -13.5446  -11.9634   31.7400 C.ar    1  UNL1        0.0166
     41 C         -12.4793  -11.1606   32.1371 C.ar    1  UNL1        0.0563
     42 N         -12.3337   -9.8412   31.9264 N.ar    1  UNL1       -0.3523
     43 C         -11.1483   -9.5021   32.4808 C.ar    1  UNL1        0.0681
     44 C         -10.5368  -10.6191   33.0427 C.ar    1  UNL1       -0.0017
     45 C         -11.4075  -11.6715   32.8205 C.ar    1  UNL1        0.0128
     46 C         -11.3366  -13.0208   33.1702 C.ar    1  UNL1       -0.0031
     47 H         -12.9980   -9.2038   31.4334 H       1  UNL1        0.1660
     48 C         -13.1629  -15.5871   34.4593 C.3     1  UNL1        0.0047
     49 C         -12.3662  -15.3376   33.1737 C.3     1  UNL1        0.0224
     50 C         -12.8724  -16.2252   32.0316 C.3     1  UNL1        0.0047
@<TRIPOS>BOND
     1    48    49    1
     2    49    50    1
     3    49    38    1
     4    38    39   ar
     5    39    40   ar
     6    40    41   ar
     7    41    42   ar
     8    42    43   ar
     9    43    44   ar
    10    44    37    1
    11    37     1    1
    12     1     2    1
    13     2     3   am
    14     3     4    2
    15     3     6    1
    16     6     7   ar
    17     7     8   ar
    18     8     9   ar
    19     9    13    1
    20    13    14    1
    21    14    15    1
    22    15    16    1
    23    16    19    1
    24    19    20   ar
    25    20    21   ar
    26    21    22   ar
    27    22    23    1
    28    22    24   ar
    29    24    25   ar
    30    25    26    1
    31    16    17    1
    32    17    18    1
    33     9    10   ar
    34    10    11   ar
    35    11    12    1
    36     1    27    1
    37    27    28    2
    38    27    29   am
    39    29    31    1
    40    31    32   ar
    41    32    33   ar
    42    33    34   ar
    43    34    35   ar
    44    35    36   ar
    45    44    45   ar
    46    45    46   ar
    47    46    38   ar
    48    45    41   ar
    49    11     6   ar
    50    36    31   ar
    51    18    13    1
    52    25    19   ar
    53    42    47    1
    54     2     5    1
    55    29    30    1
@<TRIPOS>MOLECULE
*****
 50 55 0 0 0
SMALL
GASTEIGER

@<TRIPOS>ATOM
      1 C          -9.2947  -11.2600   31.7734 C.3     1  UNL1        0.1535
      2 N          -8.6164  -12.2608   30.9358 N.am    1  UNL1       -0.2945
      3 C          -9.2182  -12.7991   29.7486 C.2     1  UNL1        0.2483
      4 O         -10.4598  -12.6683   29.5669 O.2     1  UNL1       -0.2701
      5 H          -7.6981  -12.6541   31.2409 H       1  UNL1        0.1501
      6 C          -8.4076  -13.5220   28.7371 C.ar    1  UNL1        0.0808
      7 C          -9.0159  -14.5095   27.9422 C.ar    1  UNL1        0.0080
      8 C          -8.2842  -15.1897   26.9659 C.ar    1  UNL1        0.0148
      9 C          -6.9307  -14.8885   26.7550 C.ar    1  UNL1        0.0502
     10 C          -6.3193  -13.9026   27.5417 C.ar    1  UNL1        0.0443
     11 C          -7.0463  -13.2192   28.5206 C.ar    1  UNL1        0.1457
     12 F          -6.4223  -12.2337   29.2123 F       1  UNL1       -0.2040
     13 N          -6.1817  -15.5555   25.7228 N.pl3   1  UNL1       -0.3040
     14 C          -5.2710  -16.6556   26.0615 C.3     1  UNL1        0.1122
     15 C          -4.0407  -16.6150   25.1546 C.3     1  UNL1        0.1123
     16 N          -4.4523  -16.4715   23.7539 N.pl3   1  UNL1       -0.3023
     17 C          -5.3581  -15.3688   23.4146 C.3     1  UNL1        0.1123
     18 C          -6.5894  -15.4078   24.3199 C.3     1  UNL1        0.1122
     19 C          -3.7119  -17.1439   22.7200 C.ar    1  UNL1        0.0759
     20 C          -2.5564  -16.5570   22.1761 C.ar    1  UNL1        0.0191
     21 C          -1.8373  -17.2133   21.1728 C.ar    1  UNL1        0.0311
     22 C          -2.2669  -18.4571   20.7023 C.ar    1  UNL1        0.1425
     23 F          -1.5689  -19.0916   19.7284 F       1  UNL1       -0.2041
     24 C          -3.4185  -19.0452   21.2332 C.ar    1  UNL1        0.0605
     25 C          -4.1413  -18.3932   22.2380 C.ar    1  UNL1        0.1556
     26 F          -5.2736  -18.9643   22.7203 F       1  UNL1       -0.2028
     27 C         -10.4318  -11.8749   32.5565 C.2     1  UNL1        0.2443
     28 O         -11.0330  -11.1980   33.4353 O.2     1  UNL1       -0.2730
     29 N         -10.8882  -13.1958   32.2239 N.am    1  UNL1       -0.2825
     30 H         -10.5827  -13.6000   31.3096 H       1  UNL1        0.1549
     31 C         -11.8313  -13.9440   33.0102 C.ar    1  UNL1        0.0535
     32 C         -12.8850  -14.6115   32.3710 C.ar    1  UNL1        0.0353
     33 C         -13.7916  -15.3578   33.1278 C.ar    1  UNL1        0.1002
     34 N         -13.6419  -15.4492   34.4756 N.ar    1  UNL1       -0.2422
     35 C         -12.6190  -14.8296   35.1217 C.ar    1  UNL1        0.1002
     36 C         -11.6908  -14.0722   34.4026 C.ar    1  UNL1        0.0353
     37 C          -8.3032  -10.5390   32.7146 C.3     1  UNL1        0.0569
     38 C          -9.2005   -6.3936   30.8538 C.ar    1  UNL1       -0.0224
     39 C          -8.0530   -5.8314   30.2304 C.ar    1  UNL1       -0.0028
     40 C          -6.8197   -6.5054   30.2492 C.ar    1  UNL1        0.0166
     41 C          -6.7581   -7.7383   30.8920 C.ar    1  UNL1        0.0563
     42 N          -5.6821   -8.5328   31.0240 N.ar    1  UNL1       -0.3523
     43 C          -6.1011   -9.6195   31.7104 C.ar    1  UNL1        0.0681
     44 C          -7.4560   -9.5128   32.0105 C.ar    1  UNL1       -0.0017
     45 C          -7.8589   -8.2973   31.4857 C.ar    1  UNL1        0.0128
     46 C          -9.0957   -7.6507   31.4928 C.ar    1  UNL1       -0.0031
     47 H          -4.7169   -8.3523   30.6685 H       1  UNL1        0.1660
     48 C         -10.5677   -4.5910   29.7591 C.3     1  UNL1        0.0047
     49 C         -10.5245   -5.6532   30.8634 C.3     1  UNL1        0.0224
     50 C         -11.7056   -6.6219   30.7415 C.3     1  UNL1        0.0047
@<TRIPOS>BOND
     1    48    49    1
     2    49    50    1
     3    49    38    1
     4    38    39   ar
     5    39    40   ar
     6    40    41   ar
     7    41    42   ar
     8    42    43   ar
     9    43    44   ar
    10    44    37    1
    11    37     1    1
    12     1     2    1
    13     2     3   am
    14     3     4    2
    15     3     6    1
    16     6     7   ar
    17     7     8   ar
    18     8     9   ar
    19     9    13    1
    20    13    14    1
    21    14    15    1
    22    15    16    1
    23    16    19    1
    24    19    20   ar
    25    20    21   ar
    26    21    22   ar
    27    22    23    1
    28    22    24   ar
    29    24    25   ar
    30    25    26    1
    31    16    17    1
    32    17    18    1
    33     9    10   ar
    34    10    11   ar
    35    11    12    1
    36     1    27    1
    37    27    28    2
    38    27    29   am
    39    29    31    1
    40    31    32   ar
    41    32    33   ar
    42    33    34   ar
    43    34    35   ar
    44    35    36   ar
    45    44    45   ar
    46    45    46   ar
    47    46    38   ar
    48    45    41   ar
    49    11     6   ar
    50    36    31   ar
    51    18    13    1
    52    25    19   ar
    53    42    47    1
    54     2     5    1
    55    29    30    1
@<TRIPOS>MOLECULE
*****
 50 55 0 0 0
SMALL
GASTEIGER

@<TRIPOS>ATOM
      1 C          -8.2272  -10.9245   33.4849 C.3     1  UNL1        0.1535
      2 N          -8.3593  -11.8040   32.3135 N.am    1  UNL1       -0.2945
      3 C          -8.2620  -11.3078   30.9696 C.2     1  UNL1        0.2483
      4 O          -8.3773  -10.0701   30.7542 O.2     1  UNL1       -0.2701
      5 H          -8.6029  -12.8108   32.4472 H       1  UNL1        0.1501
      6 C          -8.0441  -12.2278   29.8255 C.ar    1  UNL1        0.0808
      7 C          -6.7713  -12.3027   29.2327 C.ar    1  UNL1        0.0080
      8 C          -6.5300  -13.1767   28.1701 C.ar    1  UNL1        0.0148
      9 C          -7.5537  -14.0038   27.6849 C.ar    1  UNL1        0.0502
     10 C          -8.8237  -13.9365   28.2740 C.ar    1  UNL1        0.0443
     11 C          -9.0712  -13.0633   29.3371 C.ar    1  UNL1        0.1457
     12 F         -10.3006  -13.0809   29.9092 F       1  UNL1       -0.2040
     13 N          -7.3013  -14.9366   26.6183 N.pl3   1  UNL1       -0.3040
     14 C          -5.9325  -15.1594   26.1374 C.3     1  UNL1        0.1122
     15 C          -5.9405  -15.3969   24.6269 C.3     1  UNL1        0.1123
     16 N          -6.9605  -16.3923   24.2793 N.pl3   1  UNL1       -0.3023
     17 C          -8.3295  -16.1668   24.7555 C.3     1  UNL1        0.1123
     18 C          -8.3239  -15.9295   26.2657 C.3     1  UNL1        0.1122
     19 C          -6.7085  -17.3323   23.2200 C.ar    1  UNL1        0.0759
     20 C          -7.7675  -17.8205   22.4353 C.ar    1  UNL1        0.0191
     21 C          -7.5199  -18.7325   21.4050 C.ar    1  UNL1        0.0311
     22 C          -6.2160  -19.1668   21.1523 C.ar    1  UNL1        0.1425
     23 F          -5.9778  -20.0522   20.1534 F       1  UNL1       -0.2041
     24 C          -5.1576  -18.6912   21.9318 C.ar    1  UNL1        0.0605
     25 C          -5.3997  -17.7779   22.9634 C.ar    1  UNL1        0.1556
     26 F          -4.3649  -17.3502   23.7298 F       1  UNL1       -0.2028
     27 C          -7.5425   -9.6258   33.1257 C.2     1  UNL1        0.2443
     28 O          -8.1679   -8.5342   33.2201 O.2     1  UNL1       -0.2730
     29 N          -6.1493   -9.6327   32.7752 N.am    1  UNL1       -0.2825
     30 H          -5.5953  -10.4897   33.0015 H       1  UNL1        0.1549
     31 C          -5.4462   -8.4958   32.2458 C.ar    1  UNL1        0.0535
     32 C          -5.5348   -8.2071   30.8772 C.ar    1  UNL1        0.0353
     33 C          -4.8713   -7.0912   30.3612 C.ar    1  UNL1        0.1002
     34 N          -4.1573   -6.2807   31.1861 N.ar    1  UNL1       -0.2422
     35 C          -4.0690   -6.5232   32.5206 C.ar    1  UNL1        0.1002
     36 C          -4.7163   -7.6292   33.0774 C.ar    1  UNL1        0.0353
     37 C          -9.5943  -10.6603   34.1556 C.3     1  UNL1        0.0569
     38 C         -12.4652  -13.9754   32.6657 C.ar    1  UNL1       -0.0224
     39 C         -13.3614  -13.4951   31.6719 C.ar    1  UNL1       -0.0028
     40 C         -13.3352  -12.1490   31.2679 C.ar    1  UNL1        0.0166
     41 C         -12.4047  -11.3048   31.8666 C.ar    1  UNL1        0.0563
     42 N         -12.2227   -9.9951   31.6253 N.ar    1  UNL1       -0.3523
     43 C         -11.2102   -9.6032   32.4308 C.ar    1  UNL1        0.0681
     44 C         -10.7447  -10.6768   33.1845 C.ar    1  UNL1       -0.0017
     45 C         -11.5270  -11.7573   32.8161 C.ar    1  UNL1        0.0128
     46 C         -11.5325  -13.0850   33.2460 C.ar    1  UNL1       -0.0031
     47 H         -12.7523   -9.3979   30.9519 H       1  UNL1        0.1660
     48 C         -13.4819  -15.5883   34.3034 C.3     1  UNL1        0.0047
     49 C         -12.5136  -15.4197   33.1271 C.3     1  UNL1        0.0224
     50 C         -12.8790  -16.3611   31.9744 C.3     1  UNL1        0.0047
@<TRIPOS>BOND
     1    48    49    1
     2    49    50    1
     3    49    38    1
     4    38    39   ar
     5    39    40   ar
     6    40    41   ar
     7    41    42   ar
     8    42    43   ar
     9    43    44   ar
    10    44    37    1
    11    37     1    1
    12     1     2    1
    13     2     3   am
    14     3     4    2
    15     3     6    1
    16     6     7   ar
    17     7     8   ar
    18     8     9   ar
    19     9    13    1
    20    13    14    1
    21    14    15    1
    22    15    16    1
    23    16    19    1
    24    19    20   ar
    25    20    21   ar
    26    21    22   ar
    27    22    23    1
    28    22    24   ar
    29    24    25   ar
    30    25    26    1
    31    16    17    1
    32    17    18    1
    33     9    10   ar
    34    10    11   ar
    35    11    12    1
    36     1    27    1
    37    27    28    2
    38    27    29   am
    39    29    31    1
    40    31    32   ar
    41    32    33   ar
    42    33    34   ar
    43    34    35   ar
    44    35    36   ar
    45    44    45   ar
    46    45    46   ar
    47    46    38   ar
    48    45    41   ar
    49    11     6   ar
    50    36    31   ar
    51    18    13    1
    52    25    19   ar
    53    42    47    1
    54     2     5    1
    55    29    30    1
@<TRIPOS>MOLECULE
*****
 50 55 0 0 0
SMALL
GASTEIGER

@<TRIPOS>ATOM
      1 C          -8.6478  -10.3295   31.6105 C.3     1  UNL1        0.1535
      2 N          -8.0865  -11.4286   30.8104 N.am    1  UNL1       -0.2945
      3 C          -8.9118  -12.2999   30.0221 C.2     1  UNL1        0.2483
      4 O         -10.1533  -12.3468   30.2417 O.2     1  UNL1       -0.2701
      5 H          -7.0647  -11.6381   30.8640 H       1  UNL1        0.1501
      6 C          -8.3278  -13.1597   28.9627 C.ar    1  UNL1        0.0808
      7 C          -9.1465  -14.0910   28.2999 C.ar    1  UNL1        0.0080
      8 C          -8.6307  -14.8969   27.2823 C.ar    1  UNL1        0.0148
      9 C          -7.2870  -14.7806   26.8972 C.ar    1  UNL1        0.0502
     10 C          -6.4664  -13.8516   27.5516 C.ar    1  UNL1        0.0443
     11 C          -6.9770  -13.0430   28.5710 C.ar    1  UNL1        0.1457
     12 F          -6.1558  -12.1197   29.1299 F       1  UNL1       -0.2040
     13 N          -6.7593  -15.5779   25.8214 N.pl3   1  UNL1       -0.3040
     14 C          -5.3344  -15.9286   25.7891 C.3     1  UNL1        0.1122
     15 C          -4.8315  -15.9436   24.3452 C.3     1  UNL1        0.1123
     16 N          -5.7481  -16.7178   23.5010 N.pl3   1  UNL1       -0.3023
     17 C          -7.1713  -16.3638   23.5294 C.3     1  UNL1        0.1123
     18 C          -7.6763  -16.3487   24.9722 C.3     1  UNL1        0.1122
     19 C          -5.2240  -17.5232   22.4306 C.ar    1  UNL1        0.0759
     20 C          -4.6938  -18.7981   22.6935 C.ar    1  UNL1        0.0191
     21 C          -4.1868  -19.5799   21.6512 C.ar    1  UNL1        0.0311
     22 C          -4.2015  -19.0950   20.3407 C.ar    1  UNL1        0.1425
     23 F          -3.7084  -19.8541   19.3313 F       1  UNL1       -0.2041
     24 C          -4.7212  -17.8257   20.0711 C.ar    1  UNL1        0.0605
     25 C          -5.2306  -17.0397   21.1102 C.ar    1  UNL1        0.1556
     26 F          -5.7031  -15.7979   20.8348 F       1  UNL1       -0.2028
     27 C          -8.7367   -9.0519   30.8078 C.2     1  UNL1        0.2443
     28 O          -8.1006   -8.9406   29.7239 O.2     1  UNL1       -0.2730
     29 N          -9.6271   -8.0080   31.2338 N.am    1  UNL1       -0.2825
     30 H         -10.3533   -8.2489   31.9460 H       1  UNL1        0.1549
     31 C          -9.6597   -6.6916   30.6565 C.ar    1  UNL1        0.0535
     32 C         -10.8955   -6.0809   30.4031 C.ar    1  UNL1        0.0353
     33 C         -10.9330   -4.7933   29.8625 C.ar    1  UNL1        0.1002
     34 N          -9.7760   -4.1304   29.5993 N.ar    1  UNL1       -0.2422
     35 C          -8.5627   -4.6882   29.8525 C.ar    1  UNL1        0.1002
     36 C          -8.4803   -5.9745   30.3919 C.ar    1  UNL1        0.0353
     37 C         -10.0241  -10.7038   32.2058 C.3     1  UNL1        0.0569
     38 C         -12.3104  -14.5618   33.3638 C.ar    1  UNL1       -0.0224
     39 C         -11.8881  -15.0724   34.6217 C.ar    1  UNL1       -0.0028
     40 C         -10.8669  -14.4386   35.3506 C.ar    1  UNL1        0.0166
     41 C         -10.2867  -13.2968   34.8058 C.ar    1  UNL1        0.0563
     42 N          -9.3015  -12.5534   35.3378 N.ar    1  UNL1       -0.3523
     43 C          -9.0750  -11.5494   34.4613 C.ar    1  UNL1        0.0681
     44 C          -9.9289  -11.6569   33.3673 C.ar    1  UNL1       -0.0017
     45 C         -10.6928  -12.7870   33.6009 C.ar    1  UNL1        0.0128
     46 C         -11.6973  -13.3967   32.8479 C.ar    1  UNL1       -0.0031
     47 H          -8.8093  -12.7138   36.2448 H       1  UNL1        0.1660
     48 C         -12.8246  -16.4899   31.8356 C.3     1  UNL1        0.0047
     49 C         -13.3893  -15.2626   32.5599 C.3     1  UNL1        0.0224
     50 C         -14.5821  -15.6452   33.4427 C.3     1  UNL1        0.0047
@<TRIPOS>BOND
     1    48    49    1
     2    49    50    1
     3    49    38    1
     4    38    39   ar
     5    39    40   ar
     6    40    41   ar
     7    41    42   ar
     8    42    43   ar
     9    43    44   ar
    10    44    37    1
    11    37     1    1
    12     1     2    1
    13     2     3   am
    14     3     4    2
    15     3     6    1
    16     6     7   ar
    17     7     8   ar
    18     8     9   ar
    19     9    13    1
    20    13    14    1
    21    14    15    1
    22    15    16    1
    23    16    19    1
    24    19    20   ar
    25    20    21   ar
    26    21    22   ar
    27    22    23    1
    28    22    24   ar
    29    24    25   ar
    30    25    26    1
    31    16    17    1
    32    17    18    1
    33     9    10   ar
    34    10    11   ar
    35    11    12    1
    36     1    27    1
    37    27    28    2
    38    27    29   am
    39    29    31    1
    40    31    32   ar
    41    32    33   ar
    42    33    34   ar
    43    34    35   ar
    44    35    36   ar
    45    44    45   ar
    46    45    46   ar
    47    46    38   ar
    48    45    41   ar
    49    11     6   ar
    50    36    31   ar
    51    18    13    1
    52    25    19   ar
    53    42    47    1
    54     2     5    1
    55    29    30    1
@<TRIPOS>MOLECULE
*****
 50 55 0 0 0
SMALL
GASTEIGER

@<TRIPOS>ATOM
      1 C         -10.5262  -11.3353   30.2970 C.3     1  UNL1        0.1535
      2 N          -9.4124  -12.0390   29.6432 N.am    1  UNL1       -0.2945
      3 C          -9.5052  -13.4158   29.2464 C.2     1  UNL1        0.2483
      4 O         -10.4179  -14.1414   29.7283 O.2     1  UNL1       -0.2701
      5 H          -8.4946  -11.5554   29.5221 H       1  UNL1        0.1501
      6 C          -8.5355  -14.0062   28.2904 C.ar    1  UNL1        0.0808
      7 C          -8.9930  -14.9016   27.3075 C.ar    1  UNL1        0.0080
      8 C          -8.1078  -15.4546   26.3791 C.ar    1  UNL1        0.0148
      9 C          -6.7472  -15.1146   26.4061 C.ar    1  UNL1        0.0502
     10 C          -6.2856  -14.2198   27.3811 C.ar    1  UNL1        0.0443
     11 C          -7.1666  -13.6639   28.3131 C.ar    1  UNL1        0.1457
     12 F          -6.6786  -12.7583   29.1967 F       1  UNL1       -0.2040
     13 N          -5.8372  -15.6478   25.4269 N.pl3   1  UNL1       -0.3040
     14 C          -6.0150  -15.3370   24.0035 C.3     1  UNL1        0.1122
     15 C          -5.6291  -16.5463   23.1512 C.3     1  UNL1        0.1123
     16 N          -4.3286  -17.0711   23.5817 N.pl3   1  UNL1       -0.3023
     17 C          -4.1527  -17.3869   25.0034 C.3     1  UNL1        0.1123
     18 C          -4.5376  -16.1787   25.8574 C.3     1  UNL1        0.1122
     19 C          -3.4123  -17.5965   22.6052 C.ar    1  UNL1        0.0759
     20 C          -3.3613  -18.9774   22.3482 C.ar    1  UNL1        0.0191
     21 C          -2.4714  -19.4856   21.3972 C.ar    1  UNL1        0.0311
     22 C          -1.6240  -18.6215   20.6986 C.ar    1  UNL1        0.1425
     23 F          -0.7608  -19.1161   19.7775 F       1  UNL1       -0.2041
     24 C          -1.6637  -17.2474   20.9524 C.ar    1  UNL1        0.0605
     25 C          -2.5529  -16.7336   21.9023 C.ar    1  UNL1        0.1556
     26 F          -2.5565  -15.4010   22.1579 F       1  UNL1       -0.2028
     27 C         -11.4098  -12.2923   31.0637 C.2     1  UNL1        0.2443
     28 O         -12.6418  -12.3636   30.8012 O.2     1  UNL1       -0.2730
     29 N         -10.8212  -13.1894   32.0189 N.am    1  UNL1       -0.2825
     30 H          -9.7843  -13.3184   31.9901 H       1  UNL1        0.1549
     31 C         -11.5773  -14.0082   32.9273 C.ar    1  UNL1        0.0535
     32 C         -11.5408  -13.7286   34.3002 C.ar    1  UNL1        0.0353
     33 C         -12.2905  -14.5074   35.1851 C.ar    1  UNL1        0.1002
     34 N         -13.0644  -15.5205   34.7141 N.ar    1  UNL1       -0.2422
     35 C         -13.1360  -15.8035   33.3865 C.ar    1  UNL1        0.1002
     36 C         -12.4011  -15.0499   32.4676 C.ar    1  UNL1        0.0353
     37 C         -10.0213  -10.1969   31.2124 C.3     1  UNL1        0.0569
     38 C          -5.6112   -9.9704   29.8154 C.ar    1  UNL1       -0.0224
     39 C          -4.7139  -10.4487   30.8091 C.ar    1  UNL1       -0.0028
     40 C          -5.1886  -10.8910   32.0560 C.ar    1  UNL1        0.0166
     41 C          -6.5607  -10.8498   32.2852 C.ar    1  UNL1        0.0563
     42 N          -7.2091  -11.2203   33.4027 N.ar    1  UNL1       -0.3523
     43 C          -8.5225  -11.0107   33.1604 C.ar    1  UNL1        0.0681
     44 C          -8.7060  -10.5078   31.8755 C.ar    1  UNL1       -0.0017
     45 C          -7.4376  -10.4033   31.3320 C.ar    1  UNL1        0.0128
     46 C          -6.9987   -9.9490   30.0875 C.ar    1  UNL1       -0.0031
     47 H          -6.7881  -11.5960   34.2814 H       1  UNL1        0.1660
     48 C          -3.7665   -8.7225   28.6505 C.3     1  UNL1        0.0047
     49 C          -5.0987   -9.4617   28.4813 C.3     1  UNL1        0.0224
     50 C          -4.9710  -10.5997   27.4628 C.3     1  UNL1        0.0047
@<TRIPOS>BOND
     1    48    49    1
     2    49    50    1
     3    49    38    1
     4    38    39   ar
     5    39    40   ar
     6    40    41   ar
     7    41    42   ar
     8    42    43   ar
     9    43    44   ar
    10    44    37    1
    11    37     1    1
    12     1     2    1
    13     2     3   am
    14     3     4    2
    15     3     6    1
    16     6     7   ar
    17     7     8   ar
    18     8     9   ar
    19     9    13    1
    20    13    14    1
    21    14    15    1
    22    15    16    1
    23    16    19    1
    24    19    20   ar
    25    20    21   ar
    26    21    22   ar
    27    22    23    1
    28    22    24   ar
    29    24    25   ar
    30    25    26    1
    31    16    17    1
    32    17    18    1
    33     9    10   ar
    34    10    11   ar
    35    11    12    1
    36     1    27    1
    37    27    28    2
    38    27    29   am
    39    29    31    1
    40    31    32   ar
    41    32    33   ar
    42    33    34   ar
    43    34    35   ar
    44    35    36   ar
    45    44    45   ar
    46    45    46   ar
    47    46    38   ar
    48    45    41   ar
    49    11     6   ar
    50    36    31   ar
    51    18    13    1
    52    25    19   ar
    53    42    47    1
    54     2     5    1
    55    29    30    1
@<TRIPOS>MOLECULE
*****
 50 55 0 0 0
SMALL
GASTEIGER

@<TRIPOS>ATOM
      1 C          -9.0811   -9.9805   32.1679 C.3     1  UNL1        0.1535
      2 N          -8.8134  -10.6444   30.8831 N.am    1  UNL1       -0.2945
      3 C          -7.7839  -11.6341   30.7333 C.2     1  UNL1        0.2483
      4 O          -6.8815  -11.7297   31.6098 O.2     1  UNL1       -0.2701
      5 H          -9.3329  -10.3450   30.0279 H       1  UNL1        0.1501
      6 C          -7.7529  -12.5374   29.5562 C.ar    1  UNL1        0.0808
      7 C          -6.5437  -12.7294   28.8648 C.ar    1  UNL1        0.0080
      8 C          -6.4785  -13.5920   27.7681 C.ar    1  UNL1        0.0148
      9 C          -7.6191  -14.2908   27.3460 C.ar    1  UNL1        0.0502
     10 C          -8.8267  -14.1065   28.0331 C.ar    1  UNL1        0.0443
     11 C          -8.8981  -13.2442   29.1308 C.ar    1  UNL1        0.1457
     12 F         -10.0759  -13.1482   29.7961 F       1  UNL1       -0.2040
     13 N          -7.5495  -15.2129   26.2431 N.pl3   1  UNL1       -0.3040
     14 C          -6.3460  -15.2765   25.4054 C.3     1  UNL1        0.1122
     15 C          -6.7334  -15.5530   23.9523 C.3     1  UNL1        0.1123
     16 N          -7.6748  -16.6762   23.8874 N.pl3   1  UNL1       -0.3023
     17 C          -8.8803  -16.6100   24.7206 C.3     1  UNL1        0.1123
     18 C          -8.4952  -16.3341   26.1741 C.3     1  UNL1        0.1122
     19 C          -7.6028  -17.6053   22.7916 C.ar    1  UNL1        0.0759
     20 C          -8.7742  -18.0318   22.1425 C.ar    1  UNL1        0.0191
     21 C          -8.7016  -18.9333   21.0764 C.ar    1  UNL1        0.0311
     22 C          -7.4616  -19.4185   20.6525 C.ar    1  UNL1        0.1425
     23 F          -7.3931  -20.2936   19.6191 F       1  UNL1       -0.2041
     24 C          -6.2920  -19.0044   21.2964 C.ar    1  UNL1        0.0605
     25 C          -6.3590  -18.1019   22.3631 C.ar    1  UNL1        0.1556
     26 F          -5.2166  -17.7344   22.9963 F       1  UNL1       -0.2028
     27 C          -9.9837  -10.8182   33.0445 C.2     1  UNL1        0.2443
     28 O         -10.2723  -10.4289   34.2094 O.2     1  UNL1       -0.2730
     29 N         -10.5899  -12.0049   32.5080 N.am    1  UNL1       -0.2825
     30 H         -10.5788  -12.1300   31.4702 H       1  UNL1        0.1549
     31 C         -11.3132  -12.9664   33.2951 C.ar    1  UNL1        0.0535
     32 C         -12.5659  -13.4149   32.8545 C.ar    1  UNL1        0.0353
     33 C         -13.2634  -14.3652   33.6042 C.ar    1  UNL1        0.1002
     34 N         -12.7215  -14.8642   34.7464 N.ar    1  UNL1       -0.2422
     35 C         -11.5002  -14.4638   35.1888 C.ar    1  UNL1        0.1002
     36 C         -10.7698  -13.5142   34.4697 C.ar    1  UNL1        0.0353
     37 C          -7.7721   -9.6220   32.9072 C.3     1  UNL1        0.0569
     38 C          -9.0960   -5.7367   30.7615 C.ar    1  UNL1       -0.0224
     39 C          -7.9866   -5.0013   30.2617 C.ar    1  UNL1       -0.0028
     40 C          -6.6714   -5.4535   30.4657 C.ar    1  UNL1        0.0166
     41 C          -6.4901   -6.6421   31.1667 C.ar    1  UNL1        0.0563
     42 N          -5.3234   -7.2373   31.4685 N.ar    1  UNL1       -0.3523
     43 C          -5.6417   -8.3631   32.1459 C.ar    1  UNL1        0.0681
     44 C          -7.0229   -8.4828   32.2687 C.ar    1  UNL1       -0.0017
     45 C          -7.5505   -7.3671   31.6427 C.ar    1  UNL1        0.0128
     46 C          -8.8679   -6.9418   31.4652 C.ar    1  UNL1       -0.0031
     47 H          -4.3636   -6.9026   31.2289 H       1  UNL1        0.1660
     48 C         -10.5916   -4.2318   29.4140 C.3     1  UNL1        0.0047
     49 C         -10.5146   -5.2339   30.5714 C.3     1  UNL1        0.0224
     50 C         -11.4935   -6.3940   30.3607 C.3     1  UNL1        0.0047
@<TRIPOS>BOND
     1    48    49    1
     2    49    50    1
     3    49    38    1
     4    38    39   ar
     5    39    40   ar
     6    40    41   ar
     7    41    42   ar
     8    42    43   ar
     9    43    44   ar
    10    44    37    1
    11    37     1    1
    12     1     2    1
    13     2     3   am
    14     3     4    2
    15     3     6    1
    16     6     7   ar
    17     7     8   ar
    18     8     9   ar
    19     9    13    1
    20    13    14    1
    21    14    15    1
    22    15    16    1
    23    16    19    1
    24    19    20   ar
    25    20    21   ar
    26    21    22   ar
    27    22    23    1
    28    22    24   ar
    29    24    25   ar
    30    25    26    1
    31    16    17    1
    32    17    18    1
    33     9    10   ar
    34    10    11   ar
    35    11    12    1
    36     1    27    1
    37    27    28    2
    38    27    29   am
    39    29    31    1
    40    31    32   ar
    41    32    33   ar
    42    33    34   ar
    43    34    35   ar
    44    35    36   ar
    45    44    45   ar
    46    45    46   ar
    47    46    38   ar
    48    45    41   ar
    49    11     6   ar
    50    36    31   ar
    51    18    13    1
    52    25    19   ar
    53    42    47    1
    54     2     5    1
    55    29    30    1
@<TRIPOS>MOLECULE
*****
 50 55 0 0 0
SMALL
GASTEIGER

@<TRIPOS>ATOM
      1 C          -5.3726  -18.6705   21.3122 C.3     1  UNL1        0.1535
      2 N          -5.4682  -17.8944   22.5580 N.am    1  UNL1       -0.2945
      3 C          -6.1467  -16.6306   22.6217 C.2     1  UNL1        0.2483
      4 O          -6.4009  -16.0072   21.5548 O.2     1  UNL1       -0.2701
      5 H          -4.9703  -18.2266   23.4139 H       1  UNL1        0.1501
      6 C          -6.5407  -16.0357   23.9231 C.ar    1  UNL1        0.0808
      7 C          -5.5433  -15.6428   24.8329 C.ar    1  UNL1        0.0080
      8 C          -5.8832  -15.0582   26.0551 C.ar    1  UNL1        0.0148
      9 C          -7.2284  -14.8427   26.3891 C.ar    1  UNL1        0.0502
     10 C          -8.2273  -15.2289   25.4849 C.ar    1  UNL1        0.0443
     11 C          -7.8931  -15.8150   24.2607 C.ar    1  UNL1        0.1457
     12 F          -8.8954  -16.1149   23.3979 F       1  UNL1       -0.2040
     13 N          -7.5844  -14.2029   27.6281 N.pl3   1  UNL1       -0.3040
     14 C          -8.8672  -14.5032   28.2752 C.3     1  UNL1        0.1122
     15 C          -9.4239  -13.2455   28.9431 C.3     1  UNL1        0.1123
     16 N          -8.3823  -12.6013   29.7505 N.pl3   1  UNL1       -0.3023
     17 C          -7.1022  -12.2963   29.1023 C.3     1  UNL1        0.1123
     18 C          -6.5435  -13.5527   28.4342 C.3     1  UNL1        0.1122
     19 C          -8.7325  -11.9686   30.9940 C.ar    1  UNL1        0.0759
     20 C          -7.8691  -11.0278   31.5813 C.ar    1  UNL1        0.0191
     21 C          -8.2125  -10.4126   32.7889 C.ar    1  UNL1        0.0311
     22 C          -9.4168  -10.7336   33.4210 C.ar    1  UNL1        0.1425
     23 F          -9.7477  -10.1370   34.5926 F       1  UNL1       -0.2041
     24 C         -10.2785  -11.6728   32.8471 C.ar    1  UNL1        0.0605
     25 C          -9.9401  -12.2907   31.6384 C.ar    1  UNL1        0.1556
     26 F         -10.7738  -13.2224   31.1113 F       1  UNL1       -0.2028
     27 C          -3.9443  -19.0675   21.0174 C.2     1  UNL1        0.2443
     28 O          -3.6683  -20.2628   20.7230 O.2     1  UNL1       -0.2730
     29 N          -2.9228  -18.0583   20.9751 N.am    1  UNL1       -0.2825
     30 H          -3.2276  -17.0600   20.9184 H       1  UNL1        0.1549
     31 C          -1.5157  -18.3396   20.8844 C.ar    1  UNL1        0.0535
     32 C          -0.6707  -17.4261   20.2395 C.ar    1  UNL1        0.0353
     33 C           0.7004  -17.6839   20.1674 C.ar    1  UNL1        0.1002
     34 N           1.2138  -18.8072   20.7349 N.ar    1  UNL1       -0.2422
     35 C           0.4228  -19.7019   21.3842 C.ar    1  UNL1        0.1002
     36 C          -0.9540  -19.4828   21.4782 C.ar    1  UNL1        0.0353
     37 C          -6.2949  -19.9103   21.3416 C.3     1  UNL1        0.0569
     38 C         -10.4523  -19.3544   23.3062 C.ar    1  UNL1       -0.0224
     39 C         -11.4791  -19.1840   22.3376 C.ar    1  UNL1       -0.0028
     40 C         -11.1789  -19.1663   20.9646 C.ar    1  UNL1        0.0166
     41 C          -9.8495  -19.3242   20.5839 C.ar    1  UNL1        0.0563
     42 N          -9.3582  -19.3321   19.3329 N.ar    1  UNL1       -0.3523
     43 C          -8.0252  -19.5211   19.4554 C.ar    1  UNL1        0.0681
     44 C          -7.6717  -19.6387   20.7965 C.ar    1  UNL1       -0.0017
     45 C          -8.8520  -19.5018   21.5060 C.ar    1  UNL1        0.0128
     46 C          -9.1147  -19.5154   22.8766 C.ar    1  UNL1       -0.0031
     47 H          -9.8939  -19.2178   18.4438 H       1  UNL1        0.1660
     48 C          -9.7010  -18.5689   25.5724 C.3     1  UNL1        0.0047
     49 C         -10.7692  -19.3408   24.7896 C.3     1  UNL1        0.0224
     50 C         -12.1662  -18.7699   25.0558 C.3     1  UNL1        0.0047
@<TRIPOS>BOND
     1    48    49    1
     2    49    50    1
     3    49    38    1
     4    38    39   ar
     5    39    40   ar
     6    40    41   ar
     7    41    42   ar
     8    42    43   ar
     9    43    44   ar
    10    44    37    1
    11    37     1    1
    12     1     2    1
    13     2     3   am
    14     3     4    2
    15     3     6    1
    16     6     7   ar
    17     7     8   ar
    18     8     9   ar
    19     9    13    1
    20    13    14    1
    21    14    15    1
    22    15    16    1
    23    16    19    1
    24    19    20   ar
    25    20    21   ar
    26    21    22   ar
    27    22    23    1
    28    22    24   ar
    29    24    25   ar
    30    25    26    1
    31    16    17    1
    32    17    18    1
    33     9    10   ar
    34    10    11   ar
    35    11    12    1
    36     1    27    1
    37    27    28    2
    38    27    29   am
    39    29    31    1
    40    31    32   ar
    41    32    33   ar
    42    33    34   ar
    43    34    35   ar
    44    35    36   ar
    45    44    45   ar
    46    45    46   ar
    47    46    38   ar
    48    45    41   ar
    49    11     6   ar
    50    36    31   ar
    51    18    13    1
    52    25    19   ar
    53    42    47    1
    54     2     5    1
    55    29    30    1
@<TRIPOS>MOLECULE
*****
 50 55 0 0 0
SMALL
GASTEIGER

@<TRIPOS>ATOM
      1 C         -11.4212  -10.9994   31.0301 C.3     1  UNL1        0.1535
      2 N         -10.5913  -11.5463   29.9459 N.am    1  UNL1       -0.2945
      3 C          -9.3446  -12.2123   30.1984 C.2     1  UNL1        0.2483
      4 O          -8.7782  -12.0680   31.3165 O.2     1  UNL1       -0.2701
      5 H         -10.8700  -11.3895   28.9516 H       1  UNL1        0.1501
      6 C          -8.7010  -13.0560   29.1607 C.ar    1  UNL1        0.0808
      7 C          -9.4819  -13.9711   28.4329 C.ar    1  UNL1        0.0080
      8 C          -8.9087  -14.7613   27.4338 C.ar    1  UNL1        0.0148
      9 C          -7.5438  -14.6448   27.1325 C.ar    1  UNL1        0.0502
     10 C          -6.7606  -13.7318   27.8520 C.ar    1  UNL1        0.0443
     11 C          -7.3286  -12.9390   28.8533 C.ar    1  UNL1        0.1457
     12 F          -6.5391  -12.0300   29.4772 F       1  UNL1       -0.2040
     13 N          -6.9553  -15.4254   26.0763 N.pl3   1  UNL1       -0.3040
     14 C          -5.4978  -15.5763   25.9903 C.3     1  UNL1        0.1122
     15 C          -5.0603  -15.6095   24.5256 C.3     1  UNL1        0.1123
     16 N          -5.8935  -16.5535   23.7727 N.pl3   1  UNL1       -0.3023
     17 C          -7.3499  -16.3993   23.8544 C.3     1  UNL1        0.1123
     18 C          -7.7897  -16.3663   25.3182 C.3     1  UNL1        0.1122
     19 C          -5.3071  -17.3422   22.7224 C.ar    1  UNL1        0.0759
     20 C          -5.9000  -17.3840   21.4486 C.ar    1  UNL1        0.0191
     21 C          -5.3273  -18.1497   20.4287 C.ar    1  UNL1        0.0311
     22 C          -4.1620  -18.8816   20.6723 C.ar    1  UNL1        0.1425
     23 F          -3.6086  -19.6245   19.6824 F       1  UNL1       -0.2041
     24 C          -3.5692  -18.8507   21.9379 C.ar    1  UNL1        0.0605
     25 C          -4.1377  -18.0855   22.9617 C.ar    1  UNL1        0.1556
     26 F          -3.5663  -18.0913   24.1924 F       1  UNL1       -0.2028
     27 C         -11.5598   -9.4986   30.9158 C.2     1  UNL1        0.2443
     28 O         -12.6974   -8.9603   31.0036 O.2     1  UNL1       -0.2730
     29 N         -10.3811   -8.6844   30.8092 N.am    1  UNL1       -0.2825
     30 H          -9.4629   -9.1246   31.0457 H       1  UNL1        0.1549
     31 C         -10.3981   -7.2769   30.5160 C.ar    1  UNL1        0.0535
     32 C         -11.3470   -6.4548   31.1392 C.ar    1  UNL1        0.0353
     33 C         -11.3542   -5.0831   30.8747 C.ar    1  UNL1        0.1002
     34 N         -10.4345   -4.5468   30.0299 N.ar    1  UNL1       -0.2422
     35 C          -9.4896   -5.3149   29.4259 C.ar    1  UNL1        0.1002
     36 C          -9.4478   -6.6914   29.6621 C.ar    1  UNL1        0.0353
     37 C         -12.8082  -11.6790   31.0835 C.3     1  UNL1        0.0569
     38 C         -10.2200  -12.9187   34.7189 C.ar    1  UNL1       -0.0224
     39 C         -10.6562  -14.1466   35.2876 C.ar    1  UNL1       -0.0028
     40 C         -11.7714  -14.8258   34.7674 C.ar    1  UNL1        0.0166
     41 C         -12.4309  -14.2623   33.6790 C.ar    1  UNL1        0.0563
     42 N         -13.5108  -14.7481   33.0431 N.ar    1  UNL1       -0.3523
     43 C         -13.7878  -13.8710   32.0523 C.ar    1  UNL1        0.0681
     44 C         -12.8710  -12.8238   32.0593 C.ar    1  UNL1       -0.0017
     45 C         -12.0137  -13.0865   33.1134 C.ar    1  UNL1        0.0128
     46 C         -10.9160  -12.3826   33.6109 C.ar    1  UNL1       -0.0031
     47 H         -14.0322  -15.6254   33.2647 H       1  UNL1        0.1660
     48 C          -8.1557  -13.0961   36.1417 C.3     1  UNL1        0.0047
     49 C          -9.0369  -12.1671   35.2990 C.3     1  UNL1        0.0224
     50 C          -8.2191  -11.4809   34.1995 C.3     1  UNL1        0.0047
@<TRIPOS>BOND
     1    48    49    1
     2    49    50    1
     3    49    38    1
     4    38    39   ar
     5    39    40   ar
     6    40    41   ar
     7    41    42   ar
     8    42    43   ar
     9    43    44   ar
    10    44    37    1
    11    37     1    1
    12     1     2    1
    13     2     3   am
    14     3     4    2
    15     3     6    1
    16     6     7   ar
    17     7     8   ar
    18     8     9   ar
    19     9    13    1
    20    13    14    1
    21    14    15    1
    22    15    16    1
    23    16    19    1
    24    19    20   ar
    25    20    21   ar
    26    21    22   ar
    27    22    23    1
    28    22    24   ar
    29    24    25   ar
    30    25    26    1
    31    16    17    1
    32    17    18    1
    33     9    10   ar
    34    10    11   ar
    35    11    12    1
    36     1    27    1
    37    27    28    2
    38    27    29   am
    39    29    31    1
    40    31    32   ar
    41    32    33   ar
    42    33    34   ar
    43    34    35   ar
    44    35    36   ar
    45    44    45   ar
    46    45    46   ar
    47    46    38   ar
    48    45    41   ar
    49    11     6   ar
    50    36    31   ar
    51    18    13    1
    52    25    19   ar
    53    42    47    1
    54     2     5    1
    55    29    30    1
