@<TRIPOS>MOLECULE
*****
 62 66 0 0 0
SMALL
GASTEIGER

@<TRIPOS>ATOM
      1 C          47.7109   11.4402  -18.9832 C.ar    1  UNL1        0.0610
      2 C          46.4337   11.9415  -19.2693 C.ar    1  UNL1        0.0079
      3 C          45.9949   12.0527  -20.5849 C.ar    1  UNL1        0.0390
      4 C          46.8383   11.6984  -21.6409 C.ar    1  UNL1        0.1600
      5 C          48.1071   11.1541  -21.3777 C.ar    1  UNL1        0.1055
      6 C          48.5388   10.9740  -20.0382 C.ar    1  UNL1        0.0974
      7 N          49.3345   12.3360  -17.2694 N.am    1  UNL1       -0.3040
      8 C          48.1896   11.5212  -17.5874 C.2     1  UNL1        0.2460
      9 O          47.5545   10.9164  -16.6825 O.2     1  UNL1       -0.2701
     10 H          49.7497   12.8856  -18.0571 H       1  UNL1        0.1496
     11 C          51.4288   12.8300  -16.0438 C.3     1  UNL1        0.0196
     12 C          49.9326   12.4782  -15.9282 C.3     1  UNL1        0.0572
     13 C          49.1874   13.5613  -15.1257 C.3     1  UNL1        0.0196
     14 C          49.8040   11.1359  -15.1792 C.3     1  UNL1        0.0196
     15 C          49.8097   10.2605  -19.7380 C.2     1  UNL1        0.3395
     16 O          49.9896    9.0723  -20.1143 O.2     1  UNL1       -0.2450
     17 O          50.8135   10.8997  -19.0155 O.3     1  UNL1       -0.4771
     18 H          51.6827   10.4258  -18.8012 H       1  UNL1        0.2954
     19 N          48.9566   10.8062  -22.4780 N.pl3   1  UNL1       -0.2118
     20 H          48.8055    9.8935  -22.9621 H       1  UNL1        0.1738
     21 S          50.4829   11.6045  -22.6939 S.O2    1  UNL1        0.0745
     22 O          51.4920   10.6405  -23.2479 O.2     1  UNL1       -0.1499
     23 O          50.9820   12.0660  -21.3549 O.2     1  UNL1       -0.1499
     24 C          50.2874   12.9591  -23.8239 C.ar    1  UNL1        0.1356
     25 C          50.6511   14.2345  -23.3735 C.ar    1  UNL1        0.0207
     26 C          50.5787   15.3418  -24.2171 C.ar    1  UNL1       -0.0028
     27 C          50.1288   15.2081  -25.5365 C.ar    1  UNL1       -0.0216
     28 C          49.7534   13.9280  -25.9937 C.ar    1  UNL1        0.0085
     29 C          49.8361   12.8091  -25.1549 C.ar    1  UNL1        0.0762
     30 CL         49.3789   11.2559  -25.8440 Cl      1  UNL1       -0.0809
     31 C          50.0550   16.4652  -26.3865 C.3     1  UNL1        0.0224
     32 C          51.1496   17.4998  -26.1643 C.3     1  UNL1        0.0047
     33 C          49.7282   17.7812  -25.6931 C.3     1  UNL1        0.0047
     34 O          46.4093   11.8448  -22.9642 O.3     1  UNL1       -0.4513
     35 C          46.2064   13.0748  -23.6126 C.ar    1  UNL1        0.1580
     36 C          46.9877   14.2127  -23.3318 C.ar    1  UNL1        0.0677
     37 C          46.8683   15.3637  -24.1123 C.ar    1  UNL1        0.1398
     38 F          47.6914   16.4158  -23.8704 F       1  UNL1       -0.2044
     39 C          45.9617   15.4001  -25.1844 C.ar    1  UNL1        0.0175
     40 C          45.1361   14.2909  -25.4231 C.ar    1  UNL1        0.0130
     41 C          45.2484   13.1412  -24.6349 C.ar    1  UNL1        0.0919
     42 CL         44.2532   11.7432  -25.0121 Cl      1  UNL1       -0.0791
     43 C          46.0145   16.5285  -26.1813 C.3     1  UNL1        0.1382
     44 C          46.3136   15.9818  -27.5459 C.2     1  UNL1        0.3234
     45 O          47.1336   16.5791  -28.2947 O.2     1  UNL1       -0.2497
     46 O          45.6595   14.8212  -27.9813 O.3     1  UNL1       -0.4215
     47 C          46.2506   13.8252  -28.8142 C.3     1  UNL1        0.3207
     48 O          45.4708   13.7405  -29.9947 O.3     1  UNL1       -0.3070
     49 C          46.0449   12.8337  -30.9192 C.3     1  UNL1        0.2456
     50 C          46.0287   11.3994  -30.3445 C.3     1  UNL1        0.1781
     51 O          46.5816   10.4770  -31.2516 O.3     1  UNL1       -0.3790
     52 C          46.7837   11.3637  -29.0063 C.3     1  UNL1        0.1733
     53 O          46.6127   10.1018  -28.4152 O.3     1  UNL1       -0.3793
     54 C          46.2476   12.4670  -28.0753 C.3     1  UNL1        0.2106
     55 O          47.0517   12.5482  -26.9271 O.3     1  UNL1       -0.3766
     56 H          47.5155   10.7591  -31.4371 H       1  UNL1        0.2106
     57 H          47.3685    9.9707  -27.7854 H       1  UNL1        0.2105
     58 H          46.7025   11.8795  -26.2813 H       1  UNL1        0.2107
     59 C          45.2455   12.8822  -32.1870 C.2     1  UNL1        0.3439
     60 O          45.7196   13.4393  -33.2132 O.2     1  UNL1       -0.2475
     61 O          43.9916   12.2801  -32.2411 O.3     1  UNL1       -0.4785
     62 H          43.4461   12.2906  -33.0944 H       1  UNL1        0.2951
@<TRIPOS>BOND
     1    11    12    1
     2    12    13    1
     3    12    14    1
     4    12     7    1
     5     7     8   am
     6     8     9    2
     7     8     1    1
     8     1     2   ar
     9     2     3   ar
    10     3     4   ar
    11     4    34    1
    12    34    35    1
    13    35    36   ar
    14    36    37   ar
    15    37    38    1
    16    37    39   ar
    17    39    43    1
    18    43    44    1
    19    44    45    2
    20    44    46    1
    21    46    47    1
    22    47    48    1
    23    48    49    1
    24    49    59    1
    25    59    60    2
    26    59    61    1
    27    49    50    1
    28    50    51    1
    29    50    52    1
    30    52    53    1
    31    52    54    1
    32    54    55    1
    33    39    40   ar
    34    40    41   ar
    35    41    42    1
    36     4     5   ar
    37     5    19    1
    38    19    21    1
    39    21    22    2
    40    21    23    2
    41    21    24    1
    42    24    25   ar
    43    25    26   ar
    44    26    27   ar
    45    27    31    1
    46    31    32    1
    47    32    33    1
    48    27    28   ar
    49    28    29   ar
    50    29    30    1
    51     5     6   ar
    52     6    15    1
    53    15    16    2
    54    15    17    1
    55     6     1   ar
    56    41    35   ar
    57    29    24   ar
    58    54    47    1
    59    33    31    1
    60     7    10    1
    61    61    62    1
    62    51    56    1
    63    53    57    1
    64    55    58    1
    65    19    20    1
    66    17    18    1
@<TRIPOS>MOLECULE
*****
 62 66 0 0 0
SMALL
GASTEIGER

@<TRIPOS>ATOM
      1 C          50.5507   12.4889  -17.7821 C.ar    1  UNL1        0.0610
      2 C          51.7575   13.0525  -18.2186 C.ar    1  UNL1        0.0079
      3 C          52.0601   13.1151  -19.5751 C.ar    1  UNL1        0.0390
      4 C          51.1780   12.5828  -20.5188 C.ar    1  UNL1        0.1600
      5 C          49.9435   12.0507  -20.1084 C.ar    1  UNL1        0.1055
      6 C          49.5956   12.0425  -18.7329 C.ar    1  UNL1        0.0974
      7 N          49.4828   13.1414  -15.5891 N.am    1  UNL1       -0.3040
      8 C          50.3691   12.2807  -16.3303 C.2     1  UNL1        0.2460
      9 O          50.9532   11.3155  -15.7689 O.2     1  UNL1       -0.2701
     10 H          48.9580   13.8585  -16.1416 H       1  UNL1        0.1496
     11 C          48.2816   14.1884  -13.6936 C.3     1  UNL1        0.0196
     12 C          49.2374   13.0631  -14.1363 C.3     1  UNL1        0.0572
     13 C          48.6518   11.6866  -13.7693 C.3     1  UNL1        0.0196
     14 C          50.5772   13.2413  -13.3932 C.3     1  UNL1        0.0196
     15 C          48.2357   11.6265  -18.2948 C.2     1  UNL1        0.3395
     16 O          47.7906   10.4801  -18.5658 O.2     1  UNL1       -0.2450
     17 O          47.4282   12.5157  -17.5910 O.3     1  UNL1       -0.4771
     18 H          46.4994   12.2477  -17.2887 H       1  UNL1        0.2954
     19 N          49.0597   11.5034  -21.0947 N.pl3   1  UNL1       -0.2118
     20 H          48.1171   11.9343  -21.2209 H       1  UNL1        0.1738
     21 S          49.3153    9.8995  -21.7076 S.O2    1  UNL1        0.0745
     22 O          48.0558    9.0929  -21.5745 O.2     1  UNL1       -0.1499
     23 O          50.3748    9.2284  -20.8818 O.2     1  UNL1       -0.1499
     24 C          49.7749    9.9868  -23.4197 C.ar    1  UNL1        0.1356
     25 C          50.7769    9.1155  -23.8655 C.ar    1  UNL1        0.0207
     26 C          51.1570    9.0840  -25.2062 C.ar    1  UNL1       -0.0028
     27 C          50.5524    9.9329  -26.1416 C.ar    1  UNL1       -0.0216
     28 C          49.5486   10.8182  -25.6977 C.ar    1  UNL1        0.0085
     29 C          49.1529   10.8456  -24.3542 C.ar    1  UNL1        0.0762
     30 CL         47.8639   11.9624  -23.9214 Cl      1  UNL1       -0.0809
     31 C          51.0379    9.8567  -27.5792 C.3     1  UNL1        0.0224
     32 C          52.3764    9.1681  -27.8078 C.3     1  UNL1        0.0047
     33 C          52.2596   10.6788  -27.9678 C.3     1  UNL1        0.0047
     34 O          51.4999   12.6136  -21.8797 O.3     1  UNL1       -0.4513
     35 C          50.9298   13.4869  -22.8214 C.ar    1  UNL1        0.1580
     36 C          49.9679   14.4532  -22.4676 C.ar    1  UNL1        0.0677
     37 C          49.5511   15.4099  -23.3946 C.ar    1  UNL1        0.1398
     38 F          48.6848   16.3785  -23.0022 F       1  UNL1       -0.2044
     39 C          50.0843   15.4146  -24.6940 C.ar    1  UNL1        0.0175
     40 C          50.9925   14.4121  -25.0669 C.ar    1  UNL1        0.0130
     41 C          51.4026   13.4474  -24.1413 C.ar    1  UNL1        0.0919
     42 CL         52.6003   12.2545  -24.6207 Cl      1  UNL1       -0.0791
     43 C          49.8403   16.5879  -25.6071 C.3     1  UNL1        0.1382
     44 C          48.3828   16.6613  -25.9550 C.2     1  UNL1        0.3234
     45 O          47.6654   17.5726  -25.4605 O.2     1  UNL1       -0.2497
     46 O          47.8303   15.6998  -26.8121 O.3     1  UNL1       -0.4215
     47 C          47.3065   14.4433  -26.3854 C.3     1  UNL1        0.3207
     48 O          47.0689   13.6654  -27.5462 O.3     1  UNL1       -0.3070
     49 C          46.6308   12.3625  -27.2040 C.3     1  UNL1        0.2456
     50 C          45.2583   12.4264  -26.4969 C.3     1  UNL1        0.1781
     51 O          44.7948   11.1416  -26.1594 O.3     1  UNL1       -0.3790
     52 C          45.3553   13.3142  -25.2461 C.3     1  UNL1        0.1733
     53 O          44.0695   13.5026  -24.7149 O.3     1  UNL1       -0.3793
     54 C          45.9844   14.6701  -25.6164 C.3     1  UNL1        0.2106
     55 O          46.2338   15.4097  -24.4492 O.3     1  UNL1       -0.3766
     56 H          45.4682   10.7260  -25.5593 H       1  UNL1        0.2106
     57 H          44.1820   13.7388  -23.7575 H       1  UNL1        0.2105
     58 H          45.3961   15.8957  -24.2299 H       1  UNL1        0.2107
     59 C          46.5164   11.5566  -28.4635 C.2     1  UNL1        0.3439
     60 O          46.4011   10.3030  -28.4044 O.2     1  UNL1       -0.2475
     61 O          46.5025   12.1972  -29.6992 O.3     1  UNL1       -0.4785
     62 H          46.4101   11.6683  -30.5581 H       1  UNL1        0.2951
@<TRIPOS>BOND
     1    11    12    1
     2    12    13    1
     3    12    14    1
     4    12     7    1
     5     7     8   am
     6     8     9    2
     7     8     1    1
     8     1     2   ar
     9     2     3   ar
    10     3     4   ar
    11     4    34    1
    12    34    35    1
    13    35    36   ar
    14    36    37   ar
    15    37    38    1
    16    37    39   ar
    17    39    43    1
    18    43    44    1
    19    44    45    2
    20    44    46    1
    21    46    47    1
    22    47    48    1
    23    48    49    1
    24    49    59    1
    25    59    60    2
    26    59    61    1
    27    49    50    1
    28    50    51    1
    29    50    52    1
    30    52    53    1
    31    52    54    1
    32    54    55    1
    33    39    40   ar
    34    40    41   ar
    35    41    42    1
    36     4     5   ar
    37     5    19    1
    38    19    21    1
    39    21    22    2
    40    21    23    2
    41    21    24    1
    42    24    25   ar
    43    25    26   ar
    44    26    27   ar
    45    27    31    1
    46    31    32    1
    47    32    33    1
    48    27    28   ar
    49    28    29   ar
    50    29    30    1
    51     5     6   ar
    52     6    15    1
    53    15    16    2
    54    15    17    1
    55     6     1   ar
    56    41    35   ar
    57    29    24   ar
    58    54    47    1
    59    33    31    1
    60     7    10    1
    61    61    62    1
    62    51    56    1
    63    53    57    1
    64    55    58    1
    65    19    20    1
    66    17    18    1
@<TRIPOS>MOLECULE
*****
 62 66 0 0 0
SMALL
GASTEIGER

@<TRIPOS>ATOM
      1 C          50.0854   12.7305  -18.2561 C.ar    1  UNL1        0.0610
      2 C          51.3379   12.9163  -18.8571 C.ar    1  UNL1        0.0079
      3 C          51.4336   13.3573  -20.1731 C.ar    1  UNL1        0.0390
      4 C          50.2784   13.5863  -20.9248 C.ar    1  UNL1        0.1600
      5 C          49.0120   13.4474  -20.3313 C.ar    1  UNL1        0.1055
      6 C          48.9039   13.0626  -18.9699 C.ar    1  UNL1        0.0974
      7 N          49.9043   12.8933  -15.7430 N.am    1  UNL1       -0.3040
      8 C          50.0441   12.0850  -16.9273 C.2     1  UNL1        0.2460
      9 O          50.0778   10.8276  -16.8523 O.2     1  UNL1       -0.2701
     10 H          49.7840   13.9221  -15.8912 H       1  UNL1        0.1496
     11 C          48.7260   11.3776  -14.1788 C.3     1  UNL1        0.0196
     12 C          49.8823   12.3805  -14.3597 C.3     1  UNL1        0.0572
     13 C          51.2284   11.7144  -14.0179 C.3     1  UNL1        0.0196
     14 C          49.6588   13.5614  -13.3929 C.3     1  UNL1        0.0196
     15 C          47.5839   13.0593  -18.2829 C.2     1  UNL1        0.3395
     16 O          47.4085   13.7023  -17.2145 O.2     1  UNL1       -0.2450
     17 O          46.5263   12.3232  -18.8099 O.3     1  UNL1       -0.4771
     18 H          45.6230   12.3091  -18.3519 H       1  UNL1        0.2954
     19 N          47.8423   13.6801  -21.1256 N.pl3   1  UNL1       -0.2118
     20 H          47.2603   14.5246  -20.9299 H       1  UNL1        0.1738
     21 S          47.1258   12.3844  -22.0320 S.O2    1  UNL1        0.0745
     22 O          45.7064   12.1733  -21.5905 O.2     1  UNL1       -0.1499
     23 O          47.8832   11.1189  -21.7496 O.2     1  UNL1       -0.1499
     24 C          47.1461   12.7895  -23.7599 C.ar    1  UNL1        0.1356
     25 C          47.2006   11.7282  -24.6723 C.ar    1  UNL1        0.0207
     26 C          47.1654   11.9598  -26.0464 C.ar    1  UNL1       -0.0028
     27 C          47.0853   13.2638  -26.5506 C.ar    1  UNL1       -0.0216
     28 C          47.0382   14.3372  -25.6374 C.ar    1  UNL1        0.0085
     29 C          47.0602   14.1105  -24.2551 C.ar    1  UNL1        0.0762
     30 CL         46.9569   15.5224  -23.2101 Cl      1  UNL1       -0.0809
     31 C          47.0759   13.4362  -28.0600 C.3     1  UNL1        0.0224
     32 C          45.7745   13.9276  -28.6787 C.3     1  UNL1        0.0047
     33 C          46.2190   12.4849  -28.8848 C.3     1  UNL1        0.0047
     34 O          50.3760   13.9947  -22.2591 O.3     1  UNL1       -0.4513
     35 C          50.7093   13.1547  -23.3350 C.ar    1  UNL1        0.1580
     36 C          50.9454   11.7759  -23.1697 C.ar    1  UNL1        0.0677
     37 C          51.1076   10.9470  -24.2810 C.ar    1  UNL1        0.1398
     38 F          51.2521    9.6102  -24.0942 F       1  UNL1       -0.2044
     39 C          51.0421   11.4823  -25.5779 C.ar    1  UNL1        0.0175
     40 C          50.8733   12.8657  -25.7417 C.ar    1  UNL1        0.0130
     41 C          50.7209   13.6979  -24.6282 C.ar    1  UNL1        0.0919
     42 CL         50.4333   15.4137  -24.8738 Cl      1  UNL1       -0.0791
     43 C          50.9538   10.5660  -26.7704 C.3     1  UNL1        0.1382
     44 C          52.2278   10.6409  -27.5591 C.2     1  UNL1        0.3234
     45 O          53.2341   11.2226  -27.0707 O.2     1  UNL1       -0.2497
     46 O          52.2772   10.0796  -28.8424 O.3     1  UNL1       -0.4215
     47 C          52.9548    8.8671  -29.1680 C.3     1  UNL1        0.3207
     48 O          54.3059    9.1957  -29.4430 O.3     1  UNL1       -0.3070
     49 C          55.0727    8.0302  -29.6881 C.3     1  UNL1        0.2456
     50 C          54.5803    7.3241  -30.9714 C.3     1  UNL1        0.1781
     51 O          55.3369    6.1697  -31.2442 O.3     1  UNL1       -0.3790
     52 C          53.0892    6.9766  -30.8378 C.3     1  UNL1        0.1733
     53 O          52.6167    6.4962  -32.0694 O.3     1  UNL1       -0.3793
     54 C          52.2981    8.2278  -30.4133 C.3     1  UNL1        0.2106
     55 O          50.9716    7.8716  -30.1216 O.3     1  UNL1       -0.3766
     56 H          55.2490    5.5603  -30.4650 H       1  UNL1        0.2106
     57 H          51.8099    5.9505  -31.8786 H       1  UNL1        0.2105
     58 H          50.4722    7.8875  -30.9798 H       1  UNL1        0.2107
     59 C          56.5078    8.4342  -29.8492 C.2     1  UNL1        0.3439
     60 O          57.3901    7.5614  -30.0686 O.2     1  UNL1       -0.2475
     61 O          56.8617    9.7792  -29.7912 O.3     1  UNL1       -0.4785
     62 H          57.8243   10.0694  -29.9137 H       1  UNL1        0.2951
@<TRIPOS>BOND
     1    11    12    1
     2    12    13    1
     3    12    14    1
     4    12     7    1
     5     7     8   am
     6     8     9    2
     7     8     1    1
     8     1     2   ar
     9     2     3   ar
    10     3     4   ar
    11     4    34    1
    12    34    35    1
    13    35    36   ar
    14    36    37   ar
    15    37    38    1
    16    37    39   ar
    17    39    43    1
    18    43    44    1
    19    44    45    2
    20    44    46    1
    21    46    47    1
    22    47    48    1
    23    48    49    1
    24    49    59    1
    25    59    60    2
    26    59    61    1
    27    49    50    1
    28    50    51    1
    29    50    52    1
    30    52    53    1
    31    52    54    1
    32    54    55    1
    33    39    40   ar
    34    40    41   ar
    35    41    42    1
    36     4     5   ar
    37     5    19    1
    38    19    21    1
    39    21    22    2
    40    21    23    2
    41    21    24    1
    42    24    25   ar
    43    25    26   ar
    44    26    27   ar
    45    27    31    1
    46    31    32    1
    47    32    33    1
    48    27    28   ar
    49    28    29   ar
    50    29    30    1
    51     5     6   ar
    52     6    15    1
    53    15    16    2
    54    15    17    1
    55     6     1   ar
    56    41    35   ar
    57    29    24   ar
    58    54    47    1
    59    33    31    1
    60     7    10    1
    61    61    62    1
    62    51    56    1
    63    53    57    1
    64    55    58    1
    65    19    20    1
    66    17    18    1
@<TRIPOS>MOLECULE
*****
 62 66 0 0 0
SMALL
GASTEIGER

@<TRIPOS>ATOM
      1 C          50.3405   12.4423  -17.8958 C.ar    1  UNL1        0.0610
      2 C          51.6533   12.7963  -18.2363 C.ar    1  UNL1        0.0079
      3 C          52.0260   12.9360  -19.5694 C.ar    1  UNL1        0.0390
      4 C          51.1027   12.6892  -20.5884 C.ar    1  UNL1        0.1600
      5 C          49.7702   12.3741  -20.2712 C.ar    1  UNL1        0.1055
      6 C          49.3627   12.2944  -18.9145 C.ar    1  UNL1        0.0974
      7 N          49.5035   13.1415  -15.6186 N.am    1  UNL1       -0.3040
      8 C          50.0535   12.1268  -16.4809 C.2     1  UNL1        0.2460
      9 O          50.2444   10.9543  -16.0605 O.2     1  UNL1       -0.2701
     10 H          49.2807   14.0620  -16.0637 H       1  UNL1        0.1496
     11 C          48.3372   14.1383  -13.6748 C.3     1  UNL1        0.0196
     12 C          49.2022   12.9689  -14.1846 C.3     1  UNL1        0.0572
     13 C          48.4826   11.6274  -13.9501 C.3     1  UNL1        0.0196
     14 C          50.5264   12.9612  -13.3936 C.3     1  UNL1        0.0196
     15 C          47.9286   12.1146  -18.5603 C.2     1  UNL1        0.3395
     16 O          47.3973   12.7970  -17.6450 O.2     1  UNL1       -0.2450
     17 O          47.1588   11.1683  -19.2311 O.3     1  UNL1       -0.4771
     18 H          46.1822   11.0327  -18.9991 H       1  UNL1        0.2954
     19 N          48.8442   12.1174  -21.3343 N.pl3   1  UNL1       -0.2118
     20 H          48.1319   12.8440  -21.5683 H       1  UNL1        0.1738
     21 S          48.5686   10.4941  -21.8843 S.O2    1  UNL1        0.0745
     22 O          47.0970   10.1963  -21.8866 O.2     1  UNL1       -0.1499
     23 O          49.2244    9.5405  -20.9274 O.2     1  UNL1       -0.1499
     24 C          49.2042   10.3117  -23.5314 C.ar    1  UNL1        0.1356
     25 C          48.9049   11.3209  -24.4553 C.ar    1  UNL1        0.0207
     26 C          49.4111   11.2794  -25.7534 C.ar    1  UNL1       -0.0028
     27 C          50.2248   10.2188  -26.1707 C.ar    1  UNL1       -0.0216
     28 C          50.5232    9.1953  -25.2477 C.ar    1  UNL1        0.0085
     29 C          50.0283    9.2378  -23.9378 C.ar    1  UNL1        0.0762
     30 CL         50.4974    7.9273  -22.8614 Cl      1  UNL1       -0.0809
     31 C          50.7177   10.2321  -27.6077 C.3     1  UNL1        0.0224
     32 C          50.8957    8.8760  -28.2766 C.3     1  UNL1        0.0047
     33 C          52.1169    9.7013  -27.8906 C.3     1  UNL1        0.0047
     34 O          51.4883   12.7946  -21.9289 O.3     1  UNL1       -0.4513
     35 C          50.9232   13.6812  -22.8610 C.ar    1  UNL1        0.1580
     36 C          49.9865   14.6664  -22.4921 C.ar    1  UNL1        0.0677
     37 C          49.5766   15.6333  -23.4116 C.ar    1  UNL1        0.1398
     38 F          48.7360   16.6188  -23.0054 F       1  UNL1       -0.2044
     39 C          50.0914   15.6295  -24.7184 C.ar    1  UNL1        0.0175
     40 C          50.9735   14.6092  -25.1057 C.ar    1  UNL1        0.0130
     41 C          51.3765   13.6345  -24.1876 C.ar    1  UNL1        0.0919
     42 CL         52.5425   12.4181  -24.6857 Cl      1  UNL1       -0.0791
     43 C          49.8590   16.8094  -25.6260 C.3     1  UNL1        0.1382
     44 C          48.5331   16.6635  -26.3127 C.2     1  UNL1        0.3234
     45 O          47.7283   17.6338  -26.3346 O.2     1  UNL1       -0.2497
     46 O          48.1958   15.4391  -26.9055 O.3     1  UNL1       -0.4215
     47 C          47.0099   14.7010  -26.6154 C.3     1  UNL1        0.3207
     48 O          47.1325   14.2011  -25.2948 O.3     1  UNL1       -0.3070
     49 C          45.9517   13.5290  -24.8940 C.3     1  UNL1        0.2456
     50 C          45.7301   12.2701  -25.7622 C.3     1  UNL1        0.1781
     51 O          44.5692   11.5767  -25.3733 O.3     1  UNL1       -0.3790
     52 C          45.6551   12.6644  -27.2457 C.3     1  UNL1        0.1733
     53 O          45.6283   11.5005  -28.0303 O.3     1  UNL1       -0.3793
     54 C          46.8727   13.5312  -27.6171 C.3     1  UNL1        0.2106
     55 O          46.7147   14.0349  -28.9182 O.3     1  UNL1       -0.3766
     56 H          43.8002   12.1974  -25.4708 H       1  UNL1        0.2106
     57 H          45.2184   11.7456  -28.9003 H       1  UNL1        0.2105
     58 H          47.0596   13.3423  -29.5406 H       1  UNL1        0.2107
     59 C          46.0982   13.1343  -23.4547 C.2     1  UNL1        0.3439
     60 O          46.8855   13.7679  -22.7018 O.2     1  UNL1       -0.2475
     61 O          45.3373   12.0884  -22.9403 O.3     1  UNL1       -0.4785
     62 H          45.4132   11.8201  -21.9666 H       1  UNL1        0.2951
@<TRIPOS>BOND
     1    11    12    1
     2    12    13    1
     3    12    14    1
     4    12     7    1
     5     7     8   am
     6     8     9    2
     7     8     1    1
     8     1     2   ar
     9     2     3   ar
    10     3     4   ar
    11     4    34    1
    12    34    35    1
    13    35    36   ar
    14    36    37   ar
    15    37    38    1
    16    37    39   ar
    17    39    43    1
    18    43    44    1
    19    44    45    2
    20    44    46    1
    21    46    47    1
    22    47    48    1
    23    48    49    1
    24    49    59    1
    25    59    60    2
    26    59    61    1
    27    49    50    1
    28    50    51    1
    29    50    52    1
    30    52    53    1
    31    52    54    1
    32    54    55    1
    33    39    40   ar
    34    40    41   ar
    35    41    42    1
    36     4     5   ar
    37     5    19    1
    38    19    21    1
    39    21    22    2
    40    21    23    2
    41    21    24    1
    42    24    25   ar
    43    25    26   ar
    44    26    27   ar
    45    27    31    1
    46    31    32    1
    47    32    33    1
    48    27    28   ar
    49    28    29   ar
    50    29    30    1
    51     5     6   ar
    52     6    15    1
    53    15    16    2
    54    15    17    1
    55     6     1   ar
    56    41    35   ar
    57    29    24   ar
    58    54    47    1
    59    33    31    1
    60     7    10    1
    61    61    62    1
    62    51    56    1
    63    53    57    1
    64    55    58    1
    65    19    20    1
    66    17    18    1
@<TRIPOS>MOLECULE
*****
 62 66 0 0 0
SMALL
GASTEIGER

@<TRIPOS>ATOM
      1 C          50.8024   12.8808  -18.6419 C.ar    1  UNL1        0.0610
      2 C          51.1857   14.0616  -19.2925 C.ar    1  UNL1        0.0079
      3 C          50.9144   14.2452  -20.6447 C.ar    1  UNL1        0.0390
      4 C          50.2869   13.2367  -21.3804 C.ar    1  UNL1        0.1600
      5 C          49.8558   12.0618  -20.7408 C.ar    1  UNL1        0.1055
      6 C          50.0677   11.8924  -19.3482 C.ar    1  UNL1        0.0974
      7 N          50.4073   12.9410  -16.1488 N.am    1  UNL1       -0.3040
      8 C          51.2811   12.6649  -17.2605 C.2     1  UNL1        0.2460
      9 O          52.4333   12.1894  -17.0753 O.2     1  UNL1       -0.2701
     10 H          49.4325   13.2401  -16.3840 H       1  UNL1        0.1496
     11 C          49.8292   13.6490  -13.8473 C.3     1  UNL1        0.0196
     12 C          50.7695   12.8002  -14.7254 C.3     1  UNL1        0.0572
     13 C          50.7056   11.3199  -14.3044 C.3     1  UNL1        0.0196
     14 C          52.2126   13.3063  -14.5249 C.3     1  UNL1        0.0196
     15 C          49.4848   10.7291  -18.6261 C.2     1  UNL1        0.3395
     16 O          49.8086    9.5505  -18.9292 O.2     1  UNL1       -0.2450
     17 O          48.5534   10.9343  -17.6119 O.3     1  UNL1       -0.4771
     18 H          48.1461   10.1522  -17.1135 H       1  UNL1        0.2954
     19 N          49.2219   11.0389  -21.5189 N.pl3   1  UNL1       -0.2118
     20 H          49.7931   10.5064  -22.2119 H       1  UNL1        0.1738
     21 S          47.4943   11.0084  -21.6861 S.O2    1  UNL1        0.0745
     22 O          46.8586   11.8111  -20.5880 O.2     1  UNL1       -0.1499
     23 O          47.0190    9.5908  -21.5472 O.2     1  UNL1       -0.1499
     24 C          47.0397   11.7022  -23.2553 C.ar    1  UNL1        0.1356
     25 C          45.9607   12.5950  -23.2793 C.ar    1  UNL1        0.0207
     26 C          45.5754   13.2243  -24.4618 C.ar    1  UNL1       -0.0028
     27 C          46.2525   12.9705  -25.6611 C.ar    1  UNL1       -0.0216
     28 C          47.3346   12.0665  -25.6452 C.ar    1  UNL1        0.0085
     29 C          47.7351   11.4407  -24.4576 C.ar    1  UNL1        0.0762
     30 CL         49.1224   10.3622  -24.5488 Cl      1  UNL1       -0.0809
     31 C          45.7579   13.6761  -26.9123 C.3     1  UNL1        0.0224
     32 C          46.3804   13.2363  -28.2303 C.3     1  UNL1        0.0047
     33 C          46.7232   14.5999  -27.6433 C.3     1  UNL1        0.0047
     34 O          50.0474   13.4078  -22.7478 O.3     1  UNL1       -0.4513
     35 C          50.9386   13.0455  -23.7720 C.ar    1  UNL1        0.1580
     36 C          51.9674   12.1033  -23.5775 C.ar    1  UNL1        0.0677
     37 C          52.7228   11.6463  -24.6586 C.ar    1  UNL1        0.1398
     38 F          53.6523   10.6782  -24.4546 F       1  UNL1       -0.2044
     39 C          52.4671   12.1272  -25.9533 C.ar    1  UNL1        0.0175
     40 C          51.4873   13.1146  -26.1377 C.ar    1  UNL1        0.0130
     41 C          50.7373   13.5800  -25.0531 C.ar    1  UNL1        0.0919
     42 CL         49.4657   14.7596  -25.3338 Cl      1  UNL1       -0.0791
     43 C          53.0916   11.4530  -27.1472 C.3     1  UNL1        0.1382
     44 C          52.1524   10.4161  -27.6889 C.2     1  UNL1        0.3234
     45 O          51.2096    9.9874  -26.9699 O.2     1  UNL1       -0.2497
     46 O          52.3482    9.9197  -28.9849 O.3     1  UNL1       -0.4215
     47 C          53.0883    8.7401  -29.2947 C.3     1  UNL1        0.3207
     48 O          54.4398    9.1233  -29.4830 O.3     1  UNL1       -0.3070
     49 C          55.2626    7.9921  -29.7063 C.3     1  UNL1        0.2456
     50 C          54.8721    7.2976  -31.0303 C.3     1  UNL1        0.1781
     51 O          55.6858    6.1776  -31.2815 O.3     1  UNL1       -0.3790
     52 C          53.3898    6.8935  -30.9916 C.3     1  UNL1        0.1733
     53 O          53.0077    6.4240  -32.2582 O.3     1  UNL1       -0.3793
     54 C          52.5293    8.1055  -30.5890 C.3     1  UNL1        0.2106
     55 O          51.2023    7.6952  -30.3830 O.3     1  UNL1       -0.3766
     56 H          55.5758    5.5482  -30.5213 H       1  UNL1        0.2106
     57 H          52.2122    5.8454  -32.1262 H       1  UNL1        0.2105
     58 H          50.7533    7.7122  -31.2685 H       1  UNL1        0.2107
     59 C          56.6885    8.4511  -29.7746 C.2     1  UNL1        0.3439
     60 O          57.6244    7.6075  -29.8003 O.2     1  UNL1       -0.2475
     61 O          56.9780    9.8109  -29.8451 O.3     1  UNL1       -0.4785
     62 H          57.9352   10.1362  -29.9075 H       1  UNL1        0.2951
@<TRIPOS>BOND
     1    11    12    1
     2    12    13    1
     3    12    14    1
     4    12     7    1
     5     7     8   am
     6     8     9    2
     7     8     1    1
     8     1     2   ar
     9     2     3   ar
    10     3     4   ar
    11     4    34    1
    12    34    35    1
    13    35    36   ar
    14    36    37   ar
    15    37    38    1
    16    37    39   ar
    17    39    43    1
    18    43    44    1
    19    44    45    2
    20    44    46    1
    21    46    47    1
    22    47    48    1
    23    48    49    1
    24    49    59    1
    25    59    60    2
    26    59    61    1
    27    49    50    1
    28    50    51    1
    29    50    52    1
    30    52    53    1
    31    52    54    1
    32    54    55    1
    33    39    40   ar
    34    40    41   ar
    35    41    42    1
    36     4     5   ar
    37     5    19    1
    38    19    21    1
    39    21    22    2
    40    21    23    2
    41    21    24    1
    42    24    25   ar
    43    25    26   ar
    44    26    27   ar
    45    27    31    1
    46    31    32    1
    47    32    33    1
    48    27    28   ar
    49    28    29   ar
    50    29    30    1
    51     5     6   ar
    52     6    15    1
    53    15    16    2
    54    15    17    1
    55     6     1   ar
    56    41    35   ar
    57    29    24   ar
    58    54    47    1
    59    33    31    1
    60     7    10    1
    61    61    62    1
    62    51    56    1
    63    53    57    1
    64    55    58    1
    65    19    20    1
    66    17    18    1
@<TRIPOS>MOLECULE
*****
 62 66 0 0 0
SMALL
GASTEIGER

@<TRIPOS>ATOM
      1 C          49.1775   11.4913  -18.5225 C.ar    1  UNL1        0.0610
      2 C          47.9891   10.8752  -18.9379 C.ar    1  UNL1        0.0079
      3 C          47.6224   10.8763  -20.2800 C.ar    1  UNL1        0.0390
      4 C          48.4189   11.5248  -21.2271 C.ar    1  UNL1        0.1600
      5 C          49.6357   12.1130  -20.8411 C.ar    1  UNL1        0.1055
      6 C          50.0520   12.0596  -19.4858 C.ar    1  UNL1        0.0974
      7 N          48.8786   12.7474  -16.3526 N.am    1  UNL1       -0.3040
      8 C          49.4190   11.6210  -17.0703 C.2     1  UNL1        0.2460
      9 O          50.0514   10.7129  -16.4677 O.2     1  UNL1       -0.2701
     10 H          48.2820   13.4085  -16.9021 H       1  UNL1        0.1496
     11 C          48.3554   14.3163  -14.5096 C.3     1  UNL1        0.0196
     12 C          49.0718   13.0130  -14.9142 C.3     1  UNL1        0.0572
     13 C          48.5455   11.8303  -14.0796 C.3     1  UNL1        0.0196
     14 C          50.5797   13.1789  -14.6352 C.3     1  UNL1        0.0196
     15 C          51.4027   12.5390  -19.0856 C.2     1  UNL1        0.3395
     16 O          52.2111   11.7764  -18.4933 O.2     1  UNL1       -0.2450
     17 O          51.7816   13.8526  -19.3479 O.3     1  UNL1       -0.4771
     18 H          52.6966   14.1939  -19.0789 H       1  UNL1        0.2954
     19 N          50.4308   12.7790  -21.8298 N.pl3   1  UNL1       -0.2118
     20 H          51.2596   12.2837  -22.2270 H       1  UNL1        0.1738
     21 S          50.3454   14.5038  -22.0074 S.O2    1  UNL1        0.0745
     22 O          51.7277   15.0897  -21.9945 O.2     1  UNL1       -0.1499
     23 O          49.5981   15.0749  -20.8369 O.2     1  UNL1       -0.1499
     24 C          49.5567   14.9015  -23.5469 C.ar    1  UNL1        0.1356
     25 C          48.3888   15.6731  -23.4947 C.ar    1  UNL1        0.0207
     26 C          47.7399   16.0734  -24.6616 C.ar    1  UNL1       -0.0028
     27 C          48.2346   15.7039  -25.9185 C.ar    1  UNL1       -0.0216
     28 C          49.4054   14.9203  -25.9777 C.ar    1  UNL1        0.0085
     29 C          50.0697   14.5256  -24.8091 C.ar    1  UNL1        0.0762
     30 CL         51.5426   13.5830  -25.0045 Cl      1  UNL1       -0.0809
     31 C          47.4580   16.1583  -27.1426 C.3     1  UNL1        0.0224
     32 C          45.9705   16.4161  -26.9455 C.3     1  UNL1        0.0047
     33 C          46.4346   15.2008  -27.7386 C.3     1  UNL1        0.0047
     34 O          48.0308   11.5565  -22.5706 O.3     1  UNL1       -0.4513
     35 C          48.8436   11.1760  -23.6518 C.ar    1  UNL1        0.1580
     36 C          49.9909   10.3756  -23.4872 C.ar    1  UNL1        0.0677
     37 C          50.6746    9.8808  -24.5990 C.ar    1  UNL1        0.1398
     38 F          51.7278    9.0454  -24.4106 F       1  UNL1       -0.2044
     39 C          50.2270   10.1819  -25.8958 C.ar    1  UNL1        0.0175
     40 C          49.1239   11.0334  -26.0609 C.ar    1  UNL1        0.0130
     41 C          48.4449   11.5374  -24.9471 C.ar    1  UNL1        0.0919
     42 CL         47.0208   12.5371  -25.1920 Cl      1  UNL1       -0.0791
     43 C          50.7950    9.4461  -27.0815 C.3     1  UNL1        0.1382
     44 C          51.9334   10.2307  -27.6636 C.2     1  UNL1        0.3234
     45 O          52.4439   11.1771  -27.0052 O.2     1  UNL1       -0.2497
     46 O          52.4033    9.9144  -28.9456 O.3     1  UNL1       -0.4215
     47 C          53.1440    8.7382  -29.2668 C.3     1  UNL1        0.3207
     48 O          54.4915    9.1269  -29.4717 O.3     1  UNL1       -0.3070
     49 C          55.3156    7.9992  -29.7075 C.3     1  UNL1        0.2456
     50 C          54.9110    7.3056  -31.0276 C.3     1  UNL1        0.1781
     51 O          55.7257    6.1891  -31.2912 O.3     1  UNL1       -0.3790
     52 C          53.4308    6.8958  -30.9708 C.3     1  UNL1        0.1733
     53 O          53.0345    6.4271  -32.2334 O.3     1  UNL1       -0.3793
     54 C          52.5709    8.1038  -30.5551 C.3     1  UNL1        0.2106
     55 O          51.2482    7.6880  -30.3331 O.3     1  UNL1       -0.3766
     56 H          55.6277    5.5580  -30.5308 H       1  UNL1        0.2106
     57 H          52.2429    5.8452  -32.0923 H       1  UNL1        0.2105
     58 H          50.7879    7.7050  -31.2128 H       1  UNL1        0.2107
     59 C          56.7388    8.4638  -29.7930 C.2     1  UNL1        0.3439
     60 O          57.6723    7.6252  -29.9099 O.2     1  UNL1       -0.2475
     61 O          57.0272    9.8255  -29.7785 O.3     1  UNL1       -0.4785
     62 H          57.9819   10.1557  -29.8512 H       1  UNL1        0.2951
@<TRIPOS>BOND
     1    11    12    1
     2    12    13    1
     3    12    14    1
     4    12     7    1
     5     7     8   am
     6     8     9    2
     7     8     1    1
     8     1     2   ar
     9     2     3   ar
    10     3     4   ar
    11     4    34    1
    12    34    35    1
    13    35    36   ar
    14    36    37   ar
    15    37    38    1
    16    37    39   ar
    17    39    43    1
    18    43    44    1
    19    44    45    2
    20    44    46    1
    21    46    47    1
    22    47    48    1
    23    48    49    1
    24    49    59    1
    25    59    60    2
    26    59    61    1
    27    49    50    1
    28    50    51    1
    29    50    52    1
    30    52    53    1
    31    52    54    1
    32    54    55    1
    33    39    40   ar
    34    40    41   ar
    35    41    42    1
    36     4     5   ar
    37     5    19    1
    38    19    21    1
    39    21    22    2
    40    21    23    2
    41    21    24    1
    42    24    25   ar
    43    25    26   ar
    44    26    27   ar
    45    27    31    1
    46    31    32    1
    47    32    33    1
    48    27    28   ar
    49    28    29   ar
    50    29    30    1
    51     5     6   ar
    52     6    15    1
    53    15    16    2
    54    15    17    1
    55     6     1   ar
    56    41    35   ar
    57    29    24   ar
    58    54    47    1
    59    33    31    1
    60     7    10    1
    61    61    62    1
    62    51    56    1
    63    53    57    1
    64    55    58    1
    65    19    20    1
    66    17    18    1
@<TRIPOS>MOLECULE
*****
 62 66 0 0 0
SMALL
GASTEIGER

@<TRIPOS>ATOM
      1 C          47.8438   11.4845  -19.0198 C.ar    1  UNL1        0.0610
      2 C          46.5826   11.9966  -19.3541 C.ar    1  UNL1        0.0079
      3 C          46.2051   12.1362  -20.6859 C.ar    1  UNL1        0.0390
      4 C          47.0952   11.8002  -21.7090 C.ar    1  UNL1        0.1600
      5 C          48.3489   11.2456  -21.3989 C.ar    1  UNL1        0.1055
      6 C          48.7179   11.0366  -20.0450 C.ar    1  UNL1        0.0974
      7 N          49.3939   12.3329  -17.2164 N.am    1  UNL1       -0.3040
      8 C          48.2579   11.5352  -17.6021 C.2     1  UNL1        0.2460
      9 O          47.5763   10.9200  -16.7391 O.2     1  UNL1       -0.2701
     10 H          49.8500   12.8929  -17.9736 H       1  UNL1        0.1496
     11 C          49.6876   11.1366  -15.0682 C.3     1  UNL1        0.0196
     12 C          49.9304   12.4447  -15.8465 C.3     1  UNL1        0.0572
     13 C          51.4349   12.7718  -15.8896 C.3     1  UNL1        0.0196
     14 C          49.1993   13.5894  -15.1157 C.3     1  UNL1        0.0196
     15 C          49.9715   10.3122  -19.7014 C.2     1  UNL1        0.3395
     16 O          50.0644    9.0667  -19.8624 O.2     1  UNL1       -0.2450
     17 O          51.0568   11.0083  -19.1763 O.3     1  UNL1       -0.4771
     18 H          51.9155   10.5283  -18.9352 H       1  UNL1        0.2954
     19 N          49.2471   10.9168  -22.4660 N.pl3   1  UNL1       -0.2118
     20 H          49.1936    9.9663  -22.8946 H       1  UNL1        0.1738
     21 S          50.6925   11.8459  -22.7131 S.O2    1  UNL1        0.0745
     22 O          51.7673   10.9763  -23.2987 O.2     1  UNL1       -0.1499
     23 O          51.1828   12.3421  -21.3833 O.2     1  UNL1       -0.1499
     24 C          50.3520   13.1844  -23.8279 C.ar    1  UNL1        0.1356
     25 C          50.6991   14.4762  -23.4124 C.ar    1  UNL1        0.0207
     26 C          50.5143   15.5742  -24.2509 C.ar    1  UNL1       -0.0028
     27 C          49.9652   15.4142  -25.5292 C.ar    1  UNL1       -0.0216
     28 C          49.6061   14.1173  -25.9504 C.ar    1  UNL1        0.0085
     29 C          49.8012   13.0079  -25.1175 C.ar    1  UNL1        0.0762
     30 CL         49.3529   11.4333  -25.7624 Cl      1  UNL1       -0.0809
     31 C          49.7724   16.6619  -26.3744 C.3     1  UNL1        0.0224
     32 C          50.9323   17.6478  -26.4033 C.3     1  UNL1        0.0047
     33 C          49.6506   18.0007  -25.6588 C.3     1  UNL1        0.0047
     34 O          46.7281   11.9751  -23.0474 O.3     1  UNL1       -0.4513
     35 C          46.4305   13.2117  -23.6447 C.ar    1  UNL1        0.1580
     36 C          47.0435   14.4125  -23.2371 C.ar    1  UNL1        0.0677
     37 C          46.8486   15.5889  -23.9628 C.ar    1  UNL1        0.1398
     38 F          47.5164   16.7120  -23.5948 F       1  UNL1       -0.2044
     39 C          46.0330   15.5873  -25.1062 C.ar    1  UNL1        0.0175
     40 C          45.3693   14.4070  -25.4744 C.ar    1  UNL1        0.0130
     41 C          45.5564   13.2308  -24.7415 C.ar    1  UNL1        0.0919
     42 CL         44.7709   11.7533  -25.2775 Cl      1  UNL1       -0.0791
     43 C          46.0286   16.7748  -26.0334 C.3     1  UNL1        0.1382
     44 C          45.7303   16.3211  -27.4320 C.2     1  UNL1        0.3234
     45 O          44.7755   16.8421  -28.0698 O.2     1  UNL1       -0.2497
     46 O          46.5062   15.3052  -28.0066 O.3     1  UNL1       -0.4215
     47 C          45.9786   14.2123  -28.7565 C.3     1  UNL1        0.3207
     48 O          46.6652   13.0429  -28.3443 O.3     1  UNL1       -0.3070
     49 C          46.1360   11.8923  -28.9789 C.3     1  UNL1        0.2456
     50 C          46.3770   11.9619  -30.5037 C.3     1  UNL1        0.1781
     51 O          45.8720   10.8218  -31.1554 O.3     1  UNL1       -0.3790
     52 C          45.7424   13.2395  -31.0756 C.3     1  UNL1        0.1733
     53 O          46.1163   13.3759  -32.4219 O.3     1  UNL1       -0.3793
     54 C          46.2102   14.4622  -30.2646 C.3     1  UNL1        0.2106
     55 O          45.4973   15.6009  -30.6732 O.3     1  UNL1       -0.3766
     56 H          44.8983   10.7727  -30.9663 H       1  UNL1        0.2106
     57 H          45.4359   13.9537  -32.8557 H       1  UNL1        0.2105
     58 H          45.9778   15.9778  -31.4562 H       1  UNL1        0.2107
     59 C          46.8185   10.6837  -28.4113 C.2     1  UNL1        0.3439
     60 O          47.0408    9.6810  -29.1417 O.2     1  UNL1       -0.2475
     61 O          47.2388   10.6823  -27.0843 O.3     1  UNL1       -0.4785
     62 H          47.7151    9.8798  -26.6905 H       1  UNL1        0.2951
@<TRIPOS>BOND
     1    11    12    1
     2    12    13    1
     3    12    14    1
     4    12     7    1
     5     7     8   am
     6     8     9    2
     7     8     1    1
     8     1     2   ar
     9     2     3   ar
    10     3     4   ar
    11     4    34    1
    12    34    35    1
    13    35    36   ar
    14    36    37   ar
    15    37    38    1
    16    37    39   ar
    17    39    43    1
    18    43    44    1
    19    44    45    2
    20    44    46    1
    21    46    47    1
    22    47    48    1
    23    48    49    1
    24    49    59    1
    25    59    60    2
    26    59    61    1
    27    49    50    1
    28    50    51    1
    29    50    52    1
    30    52    53    1
    31    52    54    1
    32    54    55    1
    33    39    40   ar
    34    40    41   ar
    35    41    42    1
    36     4     5   ar
    37     5    19    1
    38    19    21    1
    39    21    22    2
    40    21    23    2
    41    21    24    1
    42    24    25   ar
    43    25    26   ar
    44    26    27   ar
    45    27    31    1
    46    31    32    1
    47    32    33    1
    48    27    28   ar
    49    28    29   ar
    50    29    30    1
    51     5     6   ar
    52     6    15    1
    53    15    16    2
    54    15    17    1
    55     6     1   ar
    56    41    35   ar
    57    29    24   ar
    58    54    47    1
    59    33    31    1
    60     7    10    1
    61    61    62    1
    62    51    56    1
    63    53    57    1
    64    55    58    1
    65    19    20    1
    66    17    18    1
@<TRIPOS>MOLECULE
*****
 62 66 0 0 0
SMALL
GASTEIGER

@<TRIPOS>ATOM
      1 C          49.2592   12.5359  -19.1336 C.ar    1  UNL1        0.0610
      2 C          49.0500   13.8635  -19.5313 C.ar    1  UNL1        0.0079
      3 C          49.3298   14.2651  -20.8336 C.ar    1  UNL1        0.0390
      4 C          49.8580   13.3553  -21.7530 C.ar    1  UNL1        0.1600
      5 C          50.0368   12.0094  -21.3898 C.ar    1  UNL1        0.1055
      6 C          49.6920   11.5742  -20.0841 C.ar    1  UNL1        0.0974
      7 N          49.9973   12.8396  -16.7381 N.am    1  UNL1       -0.3040
      8 C          49.1235   12.2139  -17.6976 C.2     1  UNL1        0.2460
      9 O          48.2063   11.4342  -17.3254 O.2     1  UNL1       -0.2701
     10 H          50.6691   13.5496  -17.1117 H       1  UNL1        0.1496
     11 C          48.8966   13.4255  -14.5986 C.3     1  UNL1        0.0196
     12 C          49.9897   12.5831  -15.2851 C.3     1  UNL1        0.0572
     13 C          49.7633   11.0845  -15.0108 C.3     1  UNL1        0.0196
     14 C          51.3576   12.9889  -14.6993 C.3     1  UNL1        0.0196
     15 C          49.7289   10.1295  -19.7294 C.2     1  UNL1        0.3395
     16 O          50.8222    9.5097  -19.6515 O.2     1  UNL1       -0.2450
     17 O          48.5427    9.4389  -19.4965 O.3     1  UNL1       -0.4771
     18 H          48.5519    8.4548  -19.2568 H       1  UNL1        0.2954
     19 N          50.5877   11.0976  -22.3482 N.pl3   1  UNL1       -0.2118
     20 H          51.6205   11.0907  -22.5011 H       1  UNL1        0.1738
     21 S          49.5750   10.3893  -23.5674 S.O2    1  UNL1        0.0745
     22 O          48.3590   11.2430  -23.7835 O.2     1  UNL1       -0.1499
     23 O          49.1079    9.0450  -23.0882 O.2     1  UNL1       -0.1499
     24 C          50.4799   10.2654  -25.0892 C.ar    1  UNL1        0.1356
     25 C          49.7968    9.7757  -26.2097 C.ar    1  UNL1        0.0207
     26 C          50.4204    9.6985  -27.4539 C.ar    1  UNL1       -0.0028
     27 C          51.7526   10.0996  -27.6129 C.ar    1  UNL1       -0.0216
     28 C          52.4485   10.5860  -26.4870 C.ar    1  UNL1        0.0085
     29 C          51.8236   10.6782  -25.2366 C.ar    1  UNL1        0.0762
     30 CL         52.7762   11.3366  -23.9117 Cl      1  UNL1       -0.0809
     31 C          52.3696    9.9625  -28.9945 C.3     1  UNL1        0.0224
     32 C          52.2908    8.5855  -29.6393 C.3     1  UNL1        0.0047
     33 C          53.6278    9.1163  -29.1370 C.3     1  UNL1        0.0047
     34 O          50.1729   13.7690  -23.0516 O.3     1  UNL1       -0.4513
     35 C          49.2517   14.2929  -23.9744 C.ar    1  UNL1        0.1580
     36 C          47.9820   14.7639  -23.5872 C.ar    1  UNL1        0.0677
     37 C          47.1642   15.4290  -24.5022 C.ar    1  UNL1        0.1398
     38 F          45.9810   15.9438  -24.0803 F       1  UNL1       -0.2044
     39 C          47.5986   15.6306  -25.8225 C.ar    1  UNL1        0.0175
     40 C          48.8348   15.1036  -26.2264 C.ar    1  UNL1        0.0130
     41 C          49.6499   14.4283  -25.3125 C.ar    1  UNL1        0.0919
     42 CL         51.2253   13.8504  -25.8335 Cl      1  UNL1       -0.0791
     43 C          46.8449   16.5657  -26.7320 C.3     1  UNL1        0.1382
     44 C          45.8366   15.7908  -27.5281 C.2     1  UNL1        0.3234
     45 O          45.0264   16.4008  -28.2771 O.2     1  UNL1       -0.2497
     46 O          45.7940   14.3946  -27.4126 O.3     1  UNL1       -0.4215
     47 C          46.3713   13.4887  -28.3513 C.3     1  UNL1        0.3207
     48 O          45.6030   13.5612  -29.5401 O.3     1  UNL1       -0.3070
     49 C          46.1663   12.7548  -30.5594 C.3     1  UNL1        0.2456
     50 C          46.1108   11.2641  -30.1565 C.3     1  UNL1        0.1781
     51 O          46.6524   10.4408  -31.1606 O.3     1  UNL1       -0.3790
     52 C          46.8499   11.0542  -28.8254 C.3     1  UNL1        0.1733
     53 O          46.6433    9.7365  -28.3873 O.3     1  UNL1       -0.3793
     54 C          46.3289   12.0540  -27.7763 C.3     1  UNL1        0.2106
     55 O          47.1218   11.9812  -26.6198 O.3     1  UNL1       -0.3766
     56 H          47.5946   10.7200  -31.3040 H       1  UNL1        0.2106
     57 H          47.3889    9.5147  -27.7709 H       1  UNL1        0.2105
     58 H          46.7502   11.2504  -26.0596 H       1  UNL1        0.2107
     59 C          45.3824   12.9702  -31.8195 C.2     1  UNL1        0.3439
     60 O          45.5734   14.0037  -32.5149 O.2     1  UNL1       -0.2475
     61 O          44.4667   12.0100  -32.2406 O.3     1  UNL1       -0.4785
     62 H          43.9409   12.1334  -33.0975 H       1  UNL1        0.2951
@<TRIPOS>BOND
     1    11    12    1
     2    12    13    1
     3    12    14    1
     4    12     7    1
     5     7     8   am
     6     8     9    2
     7     8     1    1
     8     1     2   ar
     9     2     3   ar
    10     3     4   ar
    11     4    34    1
    12    34    35    1
    13    35    36   ar
    14    36    37   ar
    15    37    38    1
    16    37    39   ar
    17    39    43    1
    18    43    44    1
    19    44    45    2
    20    44    46    1
    21    46    47    1
    22    47    48    1
    23    48    49    1
    24    49    59    1
    25    59    60    2
    26    59    61    1
    27    49    50    1
    28    50    51    1
    29    50    52    1
    30    52    53    1
    31    52    54    1
    32    54    55    1
    33    39    40   ar
    34    40    41   ar
    35    41    42    1
    36     4     5   ar
    37     5    19    1
    38    19    21    1
    39    21    22    2
    40    21    23    2
    41    21    24    1
    42    24    25   ar
    43    25    26   ar
    44    26    27   ar
    45    27    31    1
    46    31    32    1
    47    32    33    1
    48    27    28   ar
    49    28    29   ar
    50    29    30    1
    51     5     6   ar
    52     6    15    1
    53    15    16    2
    54    15    17    1
    55     6     1   ar
    56    41    35   ar
    57    29    24   ar
    58    54    47    1
    59    33    31    1
    60     7    10    1
    61    61    62    1
    62    51    56    1
    63    53    57    1
    64    55    58    1
    65    19    20    1
    66    17    18    1
@<TRIPOS>MOLECULE
*****
 62 66 0 0 0
SMALL
GASTEIGER

@<TRIPOS>ATOM
      1 C          47.7475   11.4244  -18.8729 C.ar    1  UNL1        0.0610
      2 C          46.4724   11.9312  -19.1592 C.ar    1  UNL1        0.0079
      3 C          46.0363   12.0494  -20.4750 C.ar    1  UNL1        0.0390
      4 C          46.8804   11.6968  -21.5310 C.ar    1  UNL1        0.1600
      5 C          48.1469   11.1472  -21.2679 C.ar    1  UNL1        0.1055
      6 C          48.5756   10.9600  -19.9284 C.ar    1  UNL1        0.0974
      7 N          49.3898   12.2822  -17.1576 N.am    1  UNL1       -0.3040
      8 C          48.2240   11.4979  -17.4759 C.2     1  UNL1        0.2460
      9 O          47.5697   10.9145  -16.5707 O.2     1  UNL1       -0.2701
     10 H          49.8224   12.8170  -17.9462 H       1  UNL1        0.1496
     11 C          49.8364   11.0951  -15.0307 C.3     1  UNL1        0.0196
     12 C          49.9875   12.4134  -15.8151 C.3     1  UNL1        0.0572
     13 C          51.4736   12.8017  -15.9302 C.3     1  UNL1        0.0196
     14 C          49.2470   13.5261  -15.0453 C.3     1  UNL1        0.0196
     15 C          49.8436   10.2410  -19.6291 C.2     1  UNL1        0.3395
     16 O          49.8727    8.9845  -19.5519 O.2     1  UNL1       -0.2450
     17 O          51.0165   10.9586  -19.4109 O.3     1  UNL1       -0.4771
     18 H          51.8865   10.4831  -19.2035 H       1  UNL1        0.2954
     19 N          48.9972   10.8011  -22.3682 N.pl3   1  UNL1       -0.2118
     20 H          49.0750    9.7985  -22.6488 H       1  UNL1        0.1738
     21 S          50.2329   11.8982  -22.9002 S.O2    1  UNL1        0.0745
     22 O          51.3689   11.9062  -21.9185 O.2     1  UNL1       -0.1499
     23 O          49.6615   13.2861  -22.9463 O.2     1  UNL1       -0.1499
     24 C          50.8367   11.3841  -24.4881 C.ar    1  UNL1        0.1356
     25 C          49.9448   10.7096  -25.3316 C.ar    1  UNL1        0.0207
     26 C          50.3248   10.3206  -26.6150 C.ar    1  UNL1       -0.0028
     27 C          51.6151   10.5855  -27.0906 C.ar    1  UNL1       -0.0216
     28 C          52.5204   11.2571  -26.2433 C.ar    1  UNL1        0.0085
     29 C          52.1406   11.6622  -24.9572 C.ar    1  UNL1        0.0762
     30 CL         53.3396   12.5271  -24.0030 Cl      1  UNL1       -0.0809
     31 C          51.9616   10.1088  -28.4908 C.3     1  UNL1        0.0224
     32 C          51.4987    8.7073  -28.8644 C.3     1  UNL1        0.0047
     33 C          52.9790    8.9846  -28.6341 C.3     1  UNL1        0.0047
     34 O          46.4543   11.8502  -22.8545 O.3     1  UNL1       -0.4513
     35 C          46.3273   13.0806  -23.5211 C.ar    1  UNL1        0.1580
     36 C          47.2184   14.1500  -23.3056 C.ar    1  UNL1        0.0677
     37 C          47.1610   15.2919  -24.1064 C.ar    1  UNL1        0.1398
     38 F          48.0842   16.2713  -23.9297 F       1  UNL1       -0.2044
     39 C          46.2080   15.3878  -25.1336 C.ar    1  UNL1        0.0175
     40 C          45.2774   14.3517  -25.3056 C.ar    1  UNL1        0.0130
     41 C          45.3283   13.2120  -24.4969 C.ar    1  UNL1        0.0919
     42 CL         44.1968   11.9006  -24.7921 Cl      1  UNL1       -0.0791
     43 C          46.3090   16.4877  -26.1583 C.3     1  UNL1        0.1382
     44 C          46.2508   15.8990  -27.5370 C.2     1  UNL1        0.3234
     45 O          46.5875   16.5971  -28.5315 O.2     1  UNL1       -0.2497
     46 O          45.8011   14.5822  -27.7050 O.3     1  UNL1       -0.4215
     47 C          46.3476   13.6555  -28.6418 C.3     1  UNL1        0.3207
     48 O          45.5167   13.6713  -29.7899 O.3     1  UNL1       -0.3070
     49 C          46.0429   12.8411  -30.8098 C.3     1  UNL1        0.2456
     50 C          46.0405   11.3645  -30.3543 C.3     1  UNL1        0.1781
     51 O          46.5463   10.5174  -31.3573 O.3     1  UNL1       -0.3790
     52 C          46.8527   11.2158  -29.0580 C.3     1  UNL1        0.1733
     53 O          46.6976    9.9104  -28.5652 O.3     1  UNL1       -0.3793
     54 C          46.3661   12.2412  -28.0172 C.3     1  UNL1        0.2106
     55 O          47.2199   12.2244  -26.9026 O.3     1  UNL1       -0.3766
     56 H          47.4734   10.8098  -31.5599 H       1  UNL1        0.2106
     57 H          47.4790    9.7249  -27.9821 H       1  UNL1        0.2105
     58 H          46.8939   11.5065  -26.2990 H       1  UNL1        0.2107
     59 C          45.1896   12.9968  -32.0330 C.2     1  UNL1        0.3439
     60 O          45.4109   13.9362  -32.8436 O.2     1  UNL1       -0.2475
     61 O          44.1731   12.0818  -32.2922 O.3     1  UNL1       -0.4785
     62 H          43.5983   12.1642  -33.1220 H       1  UNL1        0.2951
@<TRIPOS>BOND
     1    11    12    1
     2    12    13    1
     3    12    14    1
     4    12     7    1
     5     7     8   am
     6     8     9    2
     7     8     1    1
     8     1     2   ar
     9     2     3   ar
    10     3     4   ar
    11     4    34    1
    12    34    35    1
    13    35    36   ar
    14    36    37   ar
    15    37    38    1
    16    37    39   ar
    17    39    43    1
    18    43    44    1
    19    44    45    2
    20    44    46    1
    21    46    47    1
    22    47    48    1
    23    48    49    1
    24    49    59    1
    25    59    60    2
    26    59    61    1
    27    49    50    1
    28    50    51    1
    29    50    52    1
    30    52    53    1
    31    52    54    1
    32    54    55    1
    33    39    40   ar
    34    40    41   ar
    35    41    42    1
    36     4     5   ar
    37     5    19    1
    38    19    21    1
    39    21    22    2
    40    21    23    2
    41    21    24    1
    42    24    25   ar
    43    25    26   ar
    44    26    27   ar
    45    27    31    1
    46    31    32    1
    47    32    33    1
    48    27    28   ar
    49    28    29   ar
    50    29    30    1
    51     5     6   ar
    52     6    15    1
    53    15    16    2
    54    15    17    1
    55     6     1   ar
    56    41    35   ar
    57    29    24   ar
    58    54    47    1
    59    33    31    1
    60     7    10    1
    61    61    62    1
    62    51    56    1
    63    53    57    1
    64    55    58    1
    65    19    20    1
    66    17    18    1
