@<TRIPOS>MOLECULE
*****
 45 50 0 0 0
SMALL
GASTEIGER

@<TRIPOS>ATOM
      1 C          11.5770   81.0569   25.2556 C.ar    1  UNL1        0.0702
      2 C          12.5136   81.6174   26.1309 C.ar    1  UNL1        0.0191
      3 C          13.3330   82.6658   25.7099 C.ar    1  UNL1        0.0356
      4 C          13.2263   83.1477   24.3925 C.ar    1  UNL1        0.1319
      5 N          12.3243   82.5654   23.5528 N.ar    1  UNL1       -0.2279
      6 C          11.5138   81.5464   23.9420 C.ar    1  UNL1        0.1149
      7 N          14.0495   84.2400   23.9196 N.pl3   1  UNL1       -0.2904
      8 C          13.7902   85.6226   24.3595 C.3     1  UNL1        0.0925
      9 C          14.5237   86.6485   23.4825 C.3     1  UNL1        0.0280
     10 C          14.4003   86.2577   21.9988 C.3     1  UNL1        0.0797
     11 C          15.0178   84.8572   21.7211 C.3     1  UNL1        0.1842
     12 F          14.2281   84.1868   20.8010 F       1  UNL1       -0.2353
     13 C          15.1608   83.9935   22.9871 C.3     1  UNL1        0.1274
     14 C          15.0327   87.3405   21.1029 C.3     1  UNL1        0.2081
     15 O          14.1253   87.7579   20.0813 O.3     1  UNL1       -0.4754
     16 C          14.2602   87.4912   18.7089 C.ar    1  UNL1        0.1388
     17 C          14.1675   88.4938   17.7250 C.ar    1  UNL1        0.0369
     18 C          14.3078   88.1677   16.3747 C.ar    1  UNL1        0.0033
     19 C          14.5446   86.8464   15.9900 C.ar    1  UNL1        0.0066
     20 C          14.6465   85.8328   16.9572 C.ar    1  UNL1        0.0785
     21 C          14.5041   86.1690   18.3161 C.ar    1  UNL1        0.0433
     22 C          14.8991   84.4334   16.5480 C.2     1  UNL1        0.3381
     23 O          15.7946   83.7529   17.1179 O.2     1  UNL1       -0.2451
     24 O          14.1489   83.8541   15.5277 O.3     1  UNL1       -0.4771
     25 H          14.3137   82.8969   15.2399 H       1  UNL1        0.2954
     26 C          11.2554   78.6463   25.9840 C.2     1  UNL1        0.2839
     27 O          12.4145   78.3138   25.6168 O.2     1  UNL1       -0.2665
     28 N          10.7554   79.9625   25.6973 N.am    1  UNL1       -0.2766
     29 H           9.7214   80.1120   25.7301 H       1  UNL1        0.1553
     30 C           8.1457   78.0975   25.4344 C.3     1  UNL1        0.0345
     31 C           9.0349   77.4259   26.4372 C.ar    1  UNL1        0.0202
     32 C          10.3924   77.6691   26.6746 C.ar    1  UNL1        0.1946
     33 O          10.8320   76.8776   27.6368 O.2     1  UNL1       -0.4492
     34 C           9.8294   76.1338   28.0361 C.ar    1  UNL1        0.1452
     35 C           9.8437   75.1607   29.0292 C.ar    1  UNL1        0.0375
     36 C           8.6469   74.4744   29.2981 C.ar    1  UNL1        0.0031
     37 C           7.4597   74.7689   28.5746 C.ar    1  UNL1        0.0002
     38 C           7.4881   75.7676   27.5717 C.ar    1  UNL1        0.0028
     39 C           8.6934   76.4292   27.3312 C.ar    1  UNL1        0.0337
     40 C           6.2012   74.0371   28.8674 C.ar    1  UNL1        0.0000
     41 C           5.7911   72.9641   28.0532 C.ar    1  UNL1        0.0000
     42 C           4.6051   72.2774   28.3308 C.ar    1  UNL1        0.0000
     43 C           3.8170   72.6518   29.4213 C.ar    1  UNL1        0.0000
     44 C           4.2131   73.7141   30.2367 C.ar    1  UNL1        0.0000
     45 C           5.3976   74.4050   29.9634 C.ar    1  UNL1        0.0000
@<TRIPOS>BOND
     1    30    31    1
     2    31    32   ar
     3    32    26    1
     4    26    27    2
     5    26    28   am
     6    28     1    1
     7     1     2   ar
     8     2     3   ar
     9     3     4   ar
    10     4     7    1
    11     7     8    1
    12     8     9    1
    13     9    10    1
    14    10    14    1
    15    14    15    1
    16    15    16    1
    17    16    17   ar
    18    17    18   ar
    19    18    19   ar
    20    19    20   ar
    21    20    22    1
    22    22    23    2
    23    22    24    1
    24    20    21   ar
    25    10    11    1
    26    11    12    1
    27    11    13    1
    28     4     5   ar
    29     5     6   ar
    30    32    33   ar
    31    33    34   ar
    32    34    35   ar
    33    35    36   ar
    34    36    37   ar
    35    37    40    1
    36    40    41   ar
    37    41    42   ar
    38    42    43   ar
    39    43    44   ar
    40    44    45   ar
    41    37    38   ar
    42    38    39   ar
    43    39    31   ar
    44     6     1   ar
    45    39    34   ar
    46    13     7    1
    47    45    40   ar
    48    21    16   ar
    49    28    29    1
    50    24    25    1
@<TRIPOS>MOLECULE
*****
 45 50 0 0 0
SMALL
GASTEIGER

@<TRIPOS>ATOM
      1 C          11.9861   80.7400   25.0566 C.ar    1  UNL1        0.0702
      2 C          11.2823   81.8847   24.6666 C.ar    1  UNL1        0.0191
      3 C          11.9683   83.0255   24.2473 C.ar    1  UNL1        0.0356
      4 C          13.3751   83.0272   24.2344 C.ar    1  UNL1        0.1319
      5 N          14.0356   81.9079   24.6450 N.ar    1  UNL1       -0.2279
      6 C          13.3887   80.7847   25.0536 C.ar    1  UNL1        0.1149
      7 N          14.1242   84.1855   23.7966 N.pl3   1  UNL1       -0.2904
      8 C          13.7580   85.5366   24.2580 C.3     1  UNL1        0.0925
      9 C          14.4289   86.6304   23.4135 C.3     1  UNL1        0.0280
     10 C          14.3581   86.2615   21.9208 C.3     1  UNL1        0.0797
     11 C          15.0802   84.9153   21.6274 C.3     1  UNL1        0.1842
     12 F          14.3562   84.2081   20.6812 F       1  UNL1       -0.2353
     13 C          15.2653   84.0389   22.8793 C.3     1  UNL1        0.1274
     14 C          14.9244   87.4051   21.0566 C.3     1  UNL1        0.2081
     15 O          14.0108   87.7676   20.0196 O.3     1  UNL1       -0.4754
     16 C          14.1875   87.5156   18.6492 C.ar    1  UNL1        0.1388
     17 C          14.1169   88.5274   17.6730 C.ar    1  UNL1        0.0369
     18 C          14.2987   88.2158   16.3242 C.ar    1  UNL1        0.0033
     19 C          14.5556   86.8999   15.9336 C.ar    1  UNL1        0.0066
     20 C          14.6359   85.8773   16.8933 C.ar    1  UNL1        0.0785
     21 C          14.4517   86.1990   18.2507 C.ar    1  UNL1        0.0433
     22 C          14.9098   84.4838   16.4779 C.2     1  UNL1        0.3381
     23 O          15.8457   83.8298   17.0130 O.2     1  UNL1       -0.2451
     24 O          14.1351   83.8806   15.4903 O.3     1  UNL1       -0.4771
     25 H          14.3141   82.9272   15.1985 H       1  UNL1        0.2954
     26 C          10.2314   79.6130   26.5044 C.2     1  UNL1        0.2839
     27 O          10.0760   80.6362   27.2239 O.2     1  UNL1       -0.2665
     28 N          11.2655   79.5800   25.5073 N.am    1  UNL1       -0.2766
     29 H          11.5712   78.6470   25.1487 H       1  UNL1        0.1553
     30 C           8.1614   79.1308   28.9035 C.3     1  UNL1        0.0345
     31 C           8.4710   78.2148   27.7580 C.ar    1  UNL1        0.0202
     32 C           9.3765   78.4288   26.7126 C.ar    1  UNL1        0.1946
     33 O           9.3719   77.3938   25.8914 O.2     1  UNL1       -0.4492
     34 C           8.5106   76.5192   26.3506 C.ar    1  UNL1        0.1452
     35 C           8.1854   75.2851   25.7986 C.ar    1  UNL1        0.0375
     36 C           7.2250   74.4991   26.4586 C.ar    1  UNL1        0.0031
     37 C           6.6067   74.9554   27.6541 C.ar    1  UNL1        0.0002
     38 C           6.9669   76.2182   28.1831 C.ar    1  UNL1        0.0028
     39 C           7.9242   76.9719   27.5020 C.ar    1  UNL1        0.0337
     40 C           5.5932   74.1165   28.3424 C.ar    1  UNL1        0.0000
     41 C           5.3207   72.8102   27.8932 C.ar    1  UNL1        0.0000
     42 C           4.3651   72.0228   28.5429 C.ar    1  UNL1        0.0000
     43 C           3.6726   72.5278   29.6455 C.ar    1  UNL1        0.0000
     44 C           3.9340   73.8219   30.1009 C.ar    1  UNL1        0.0000
     45 C           4.8879   74.6141   29.4547 C.ar    1  UNL1        0.0000
@<TRIPOS>BOND
     1    30    31    1
     2    31    32   ar
     3    32    26    1
     4    26    27    2
     5    26    28   am
     6    28     1    1
     7     1     2   ar
     8     2     3   ar
     9     3     4   ar
    10     4     7    1
    11     7     8    1
    12     8     9    1
    13     9    10    1
    14    10    14    1
    15    14    15    1
    16    15    16    1
    17    16    17   ar
    18    17    18   ar
    19    18    19   ar
    20    19    20   ar
    21    20    22    1
    22    22    23    2
    23    22    24    1
    24    20    21   ar
    25    10    11    1
    26    11    12    1
    27    11    13    1
    28     4     5   ar
    29     5     6   ar
    30    32    33   ar
    31    33    34   ar
    32    34    35   ar
    33    35    36   ar
    34    36    37   ar
    35    37    40    1
    36    40    41   ar
    37    41    42   ar
    38    42    43   ar
    39    43    44   ar
    40    44    45   ar
    41    37    38   ar
    42    38    39   ar
    43    39    31   ar
    44     6     1   ar
    45    39    34   ar
    46    13     7    1
    47    45    40   ar
    48    21    16   ar
    49    28    29    1
    50    24    25    1
@<TRIPOS>MOLECULE
*****
 45 50 0 0 0
SMALL
GASTEIGER

@<TRIPOS>ATOM
      1 C          11.7670   80.7004   25.1800 C.ar    1  UNL1        0.0702
      2 C          11.1848   81.9604   25.0038 C.ar    1  UNL1        0.0191
      3 C          11.9645   83.0485   24.6089 C.ar    1  UNL1        0.0356
      4 C          13.3460   82.8781   24.4047 C.ar    1  UNL1        0.1319
      5 N          13.8916   81.6460   24.6096 N.ar    1  UNL1       -0.2279
      6 C          13.1514   80.5718   24.9904 C.ar    1  UNL1        0.1149
      7 N          14.1879   83.9777   23.9847 N.pl3   1  UNL1       -0.2904
      8 C          14.0241   85.3185   24.5747 C.3     1  UNL1        0.0925
      9 C          14.7471   86.3966   23.7533 C.3     1  UNL1        0.0280
     10 C          14.5089   86.1626   22.2507 C.3     1  UNL1        0.0797
     11 C          15.0394   84.7731   21.7951 C.3     1  UNL1        0.1842
     12 F          14.1604   84.2318   20.8710 F       1  UNL1       -0.2353
     13 C          15.2231   83.7811   22.9577 C.3     1  UNL1        0.1274
     14 C          15.1327   87.3033   21.4232 C.3     1  UNL1        0.2081
     15 O          14.1820   88.3416   21.1792 O.3     1  UNL1       -0.4754
     16 C          13.4844   88.5457   19.9772 C.ar    1  UNL1        0.1388
     17 C          12.1212   88.8946   19.9371 C.ar    1  UNL1        0.0369
     18 C          11.4802   89.0822   18.7110 C.ar    1  UNL1        0.0033
     19 C          12.1863   88.9289   17.5161 C.ar    1  UNL1        0.0066
     20 C          13.5486   88.5870   17.5354 C.ar    1  UNL1        0.0785
     21 C          14.1880   88.3997   18.7749 C.ar    1  UNL1        0.0433
     22 C          14.2959   88.4266   16.2684 C.2     1  UNL1        0.3381
     23 O          14.9936   89.3734   15.8139 O.2     1  UNL1       -0.2451
     24 O          14.2353   87.2263   15.5649 O.3     1  UNL1       -0.4771
     25 H          14.7430   87.1059   14.6966 H       1  UNL1        0.2954
     26 C          11.4802   78.3791   26.1670 C.2     1  UNL1        0.2839
     27 O          12.7101   78.1186   26.0754 O.2     1  UNL1       -0.2665
     28 N          10.9544   79.5941   25.6087 N.am    1  UNL1       -0.2766
     29 H           9.9267   79.6446   25.4246 H       1  UNL1        0.1553
     30 C           8.3406   78.0346   25.6216 C.3     1  UNL1        0.0345
     31 C           9.1982   77.2613   26.5775 C.ar    1  UNL1        0.0202
     32 C          10.5690   77.4154   26.8133 C.ar    1  UNL1        0.1946
     33 O          10.9708   76.5497   27.7269 O.2     1  UNL1       -0.4492
     34 C           9.9312   75.8423   28.0963 C.ar    1  UNL1        0.1452
     35 C           9.8983   74.8175   29.0355 C.ar    1  UNL1        0.0375
     36 C           8.6670   74.1853   29.2799 C.ar    1  UNL1        0.0031
     37 C           7.4927   74.5841   28.5859 C.ar    1  UNL1        0.0002
     38 C           7.5695   75.6325   27.6377 C.ar    1  UNL1        0.0028
     39 C           8.8082   76.2382   27.4204 C.ar    1  UNL1        0.0337
     40 C           6.1974   73.9086   28.8523 C.ar    1  UNL1        0.0000
     41 C           5.3728   74.3339   29.9113 C.ar    1  UNL1        0.0000
     42 C           4.1540   73.6952   30.1603 C.ar    1  UNL1        0.0000
     43 C           3.7447   72.6283   29.3575 C.ar    1  UNL1        0.0000
     44 C           4.5535   72.1972   28.3038 C.ar    1  UNL1        0.0000
     45 C           5.7737   72.8314   28.0507 C.ar    1  UNL1        0.0000
@<TRIPOS>BOND
     1    30    31    1
     2    31    32   ar
     3    32    26    1
     4    26    27    2
     5    26    28   am
     6    28     1    1
     7     1     2   ar
     8     2     3   ar
     9     3     4   ar
    10     4     7    1
    11     7     8    1
    12     8     9    1
    13     9    10    1
    14    10    14    1
    15    14    15    1
    16    15    16    1
    17    16    17   ar
    18    17    18   ar
    19    18    19   ar
    20    19    20   ar
    21    20    22    1
    22    22    23    2
    23    22    24    1
    24    20    21   ar
    25    10    11    1
    26    11    12    1
    27    11    13    1
    28     4     5   ar
    29     5     6   ar
    30    32    33   ar
    31    33    34   ar
    32    34    35   ar
    33    35    36   ar
    34    36    37   ar
    35    37    40    1
    36    40    41   ar
    37    41    42   ar
    38    42    43   ar
    39    43    44   ar
    40    44    45   ar
    41    37    38   ar
    42    38    39   ar
    43    39    31   ar
    44     6     1   ar
    45    39    34   ar
    46    13     7    1
    47    45    40   ar
    48    21    16   ar
    49    28    29    1
    50    24    25    1
@<TRIPOS>MOLECULE
*****
 45 50 0 0 0
SMALL
GASTEIGER

@<TRIPOS>ATOM
      1 C          11.7186   80.7956   25.2575 C.ar    1  UNL1        0.0702
      2 C          13.0917   80.6293   25.0461 C.ar    1  UNL1        0.0191
      3 C          13.8754   81.7042   24.6240 C.ar    1  UNL1        0.0356
      4 C          13.2757   82.9559   24.3942 C.ar    1  UNL1        0.1319
      5 N          11.9317   83.0829   24.5821 N.ar    1  UNL1       -0.2279
      6 C          11.1498   82.0514   24.9961 C.ar    1  UNL1        0.1149
      7 N          14.0542   84.0984   23.9665 N.pl3   1  UNL1       -0.2904
      8 C          13.7569   85.4469   24.4819 C.3     1  UNL1        0.0925
      9 C          14.4411   86.5410   23.6486 C.3     1  UNL1        0.0280
     10 C          14.3053   86.2235   22.1486 C.3     1  UNL1        0.0797
     11 C          14.9639   84.8609   21.7886 C.3     1  UNL1        0.1842
     12 F          14.1812   84.2126   20.8470 F       1  UNL1       -0.2353
     13 C          15.1570   83.9382   23.0055 C.3     1  UNL1        0.1274
     14 C          14.8863   87.3720   21.3010 C.3     1  UNL1        0.2081
     15 O          16.2995   87.2319   21.1439 O.3     1  UNL1       -0.4754
     16 C          17.2753   88.0000   21.8001 C.ar    1  UNL1        0.1388
     17 C          18.2342   88.7652   21.1096 C.ar    1  UNL1        0.0369
     18 C          19.1820   89.5075   21.8168 C.ar    1  UNL1        0.0033
     19 C          19.1839   89.4999   23.2132 C.ar    1  UNL1        0.0066
     20 C          18.2314   88.7476   23.9203 C.ar    1  UNL1        0.0785
     21 C          17.2793   88.0021   23.2008 C.ar    1  UNL1        0.0433
     22 C          18.2337   88.7419   25.4000 C.2     1  UNL1        0.3381
     23 O          17.1757   88.9848   26.0415 O.2     1  UNL1       -0.2451
     24 O          19.4065   88.4678   26.0990 O.3     1  UNL1       -0.4771
     25 H          19.4191   88.4614   27.1119 H       1  UNL1        0.2954
     26 C          11.4613   78.4635   26.2273 C.2     1  UNL1        0.2839
     27 O          12.6963   78.2246   26.1469 O.2     1  UNL1       -0.2665
     28 N          10.9206   79.6730   25.6709 N.am    1  UNL1       -0.2766
     29 H           9.8942   79.7072   25.4764 H       1  UNL1        0.1553
     30 C           8.3080   78.1544   25.7429 C.3     1  UNL1        0.0345
     31 C           9.1832   77.3417   26.6488 C.ar    1  UNL1        0.0202
     32 C          10.5600   77.4805   26.8581 C.ar    1  UNL1        0.1946
     33 O          10.9780   76.5792   27.7289 O.2     1  UNL1       -0.4492
     34 C           9.9433   75.8633   28.0957 C.ar    1  UNL1        0.1452
     35 C           9.9266   74.8040   28.9964 C.ar    1  UNL1        0.0375
     36 C           8.6978   74.1688   29.2456 C.ar    1  UNL1        0.0031
     37 C           7.5100   74.5989   28.5947 C.ar    1  UNL1        0.0002
     38 C           7.5706   75.6818   27.6849 C.ar    1  UNL1        0.0028
     39 C           8.8072   76.2895   27.4616 C.ar    1  UNL1        0.0337
     40 C           6.2175   73.9198   28.8658 C.ar    1  UNL1        0.0000
     41 C           5.8036   72.8281   28.0789 C.ar    1  UNL1        0.0000
     42 C           4.5856   72.1912   28.3359 C.ar    1  UNL1        0.0000
     43 C           3.7689   72.6346   29.3785 C.ar    1  UNL1        0.0000
     44 C           4.1684   73.7162   30.1664 C.ar    1  UNL1        0.0000
     45 C           5.3849   74.3575   29.9134 C.ar    1  UNL1        0.0000
@<TRIPOS>BOND
     1    30    31    1
     2    31    32   ar
     3    32    26    1
     4    26    27    2
     5    26    28   am
     6    28     1    1
     7     1     2   ar
     8     2     3   ar
     9     3     4   ar
    10     4     7    1
    11     7     8    1
    12     8     9    1
    13     9    10    1
    14    10    14    1
    15    14    15    1
    16    15    16    1
    17    16    17   ar
    18    17    18   ar
    19    18    19   ar
    20    19    20   ar
    21    20    22    1
    22    22    23    2
    23    22    24    1
    24    20    21   ar
    25    10    11    1
    26    11    12    1
    27    11    13    1
    28     4     5   ar
    29     5     6   ar
    30    32    33   ar
    31    33    34   ar
    32    34    35   ar
    33    35    36   ar
    34    36    37   ar
    35    37    40    1
    36    40    41   ar
    37    41    42   ar
    38    42    43   ar
    39    43    44   ar
    40    44    45   ar
    41    37    38   ar
    42    38    39   ar
    43    39    31   ar
    44     6     1   ar
    45    39    34   ar
    46    13     7    1
    47    45    40   ar
    48    21    16   ar
    49    28    29    1
    50    24    25    1
@<TRIPOS>MOLECULE
*****
 45 50 0 0 0
SMALL
GASTEIGER

@<TRIPOS>ATOM
      1 C          10.5260   81.0967   24.8236 C.ar    1  UNL1        0.0702
      2 C          10.1769   80.3415   23.6987 C.ar    1  UNL1        0.0191
      3 C           9.4836   79.1390   23.8441 C.ar    1  UNL1        0.0356
      4 C           9.1508   78.6778   25.1309 C.ar    1  UNL1        0.1319
      5 N           9.5268   79.4199   26.2105 N.ar    1  UNL1       -0.2279
      6 C          10.1988   80.5953   26.0927 C.ar    1  UNL1        0.1149
      7 N           8.4233   77.4419   25.3247 N.pl3   1  UNL1       -0.2904
      8 C           9.0783   76.2713   25.9356 C.3     1  UNL1        0.0925
      9 C           8.2656   74.9854   25.7220 C.3     1  UNL1        0.0280
     10 C           7.7394   74.9284   24.2766 C.3     1  UNL1        0.0797
     11 C           6.8186   76.1398   23.9531 C.3     1  UNL1        0.1842
     12 F           7.0603   76.5604   22.6553 F       1  UNL1       -0.2353
     13 C           7.0153   77.3269   24.9130 C.3     1  UNL1        0.1274
     14 C           7.0214   73.5895   24.0180 C.3     1  UNL1        0.2081
     15 O           7.6176   72.8885   22.9250 O.3     1  UNL1       -0.4754
     16 C           8.9587   72.9924   22.5210 C.ar    1  UNL1        0.1388
     17 C           9.8561   71.9089   22.5719 C.ar    1  UNL1        0.0369
     18 C          11.1796   72.0733   22.1586 C.ar    1  UNL1        0.0033
     19 C          11.6222   73.3115   21.6885 C.ar    1  UNL1        0.0066
     20 C          10.7404   74.4030   21.6243 C.ar    1  UNL1        0.0785
     21 C           9.4081   74.2298   22.0424 C.ar    1  UNL1        0.0433
     22 C          11.2106   75.7139   21.1244 C.2     1  UNL1        0.3381
     23 O          10.5745   76.7676   21.3982 O.2     1  UNL1       -0.2451
     24 O          12.3620   75.7962   20.3454 O.3     1  UNL1       -0.4771
     25 H          12.6926   76.6885   19.9981 H       1  UNL1        0.2954
     26 C          12.6809   82.4389   24.8360 C.2     1  UNL1        0.2839
     27 O          13.3284   81.5145   25.3974 O.2     1  UNL1       -0.2665
     28 N          11.2598   82.3224   24.6588 N.am    1  UNL1       -0.2766
     29 H          10.7144   83.1965   24.4822 H       1  UNL1        0.1553
     30 C          15.4931   82.6122   23.3080 C.3     1  UNL1        0.0345
     31 C          14.6033   83.7433   23.7277 C.ar    1  UNL1        0.0202
     32 C          13.3762   83.6633   24.3956 C.ar    1  UNL1        0.1946
     33 O          12.8884   84.8754   24.5917 O.2     1  UNL1       -0.4492
     34 C          13.7362   85.7375   24.0859 C.ar    1  UNL1        0.1452
     35 C          13.6217   87.1232   24.0690 C.ar    1  UNL1        0.0375
     36 C          14.6543   87.8636   23.4682 C.ar    1  UNL1        0.0031
     37 C          15.7802   87.2121   22.8958 C.ar    1  UNL1        0.0002
     38 C          15.8581   85.7991   22.9347 C.ar    1  UNL1        0.0028
     39 C          14.8151   85.0957   23.5394 C.ar    1  UNL1        0.0337
     40 C          16.8650   88.0048   22.2635 C.ar    1  UNL1        0.0000
     41 C          16.6798   88.5872   20.9950 C.ar    1  UNL1        0.0000
     42 C          17.7034   89.3324   20.4016 C.ar    1  UNL1        0.0000
     43 C          18.9200   89.5054   21.0653 C.ar    1  UNL1        0.0000
     44 C          19.1159   88.9330   22.3240 C.ar    1  UNL1        0.0000
     45 C          18.0963   88.1861   22.9219 C.ar    1  UNL1        0.0000
@<TRIPOS>BOND
     1    30    31    1
     2    31    32   ar
     3    32    26    1
     4    26    27    2
     5    26    28   am
     6    28     1    1
     7     1     2   ar
     8     2     3   ar
     9     3     4   ar
    10     4     7    1
    11     7     8    1
    12     8     9    1
    13     9    10    1
    14    10    14    1
    15    14    15    1
    16    15    16    1
    17    16    17   ar
    18    17    18   ar
    19    18    19   ar
    20    19    20   ar
    21    20    22    1
    22    22    23    2
    23    22    24    1
    24    20    21   ar
    25    10    11    1
    26    11    12    1
    27    11    13    1
    28     4     5   ar
    29     5     6   ar
    30    32    33   ar
    31    33    34   ar
    32    34    35   ar
    33    35    36   ar
    34    36    37   ar
    35    37    40    1
    36    40    41   ar
    37    41    42   ar
    38    42    43   ar
    39    43    44   ar
    40    44    45   ar
    41    37    38   ar
    42    38    39   ar
    43    39    31   ar
    44     6     1   ar
    45    39    34   ar
    46    13     7    1
    47    45    40   ar
    48    21    16   ar
    49    28    29    1
    50    24    25    1
@<TRIPOS>MOLECULE
*****
 45 50 0 0 0
SMALL
GASTEIGER

@<TRIPOS>ATOM
      1 C          11.8097   80.8530   25.0381 C.ar    1  UNL1        0.0702
      2 C          11.2374   82.0892   24.7187 C.ar    1  UNL1        0.0191
      3 C          12.0463   83.1709   24.3672 C.ar    1  UNL1        0.0356
      4 C          13.4449   83.0192   24.3518 C.ar    1  UNL1        0.1319
      5 N          13.9767   81.8116   24.6934 N.ar    1  UNL1       -0.2279
      6 C          13.2087   80.7438   25.0352 C.ar    1  UNL1        0.1149
      7 N          14.3184   84.1124   23.9829 N.pl3   1  UNL1       -0.2904
      8 C          14.2132   85.4194   24.6561 C.3     1  UNL1        0.0925
      9 C          14.9603   86.5198   23.8876 C.3     1  UNL1        0.0280
     10 C          14.6877   86.3868   22.3785 C.3     1  UNL1        0.0797
     11 C          15.1598   85.0101   21.8293 C.3     1  UNL1        0.1842
     12 F          14.2460   84.5574   20.8915 F       1  UNL1       -0.2353
     13 C          15.3279   83.9429   22.9259 C.3     1  UNL1        0.1274
     14 C          15.3377   87.5536   21.6096 C.3     1  UNL1        0.2081
     15 O          14.3954   88.6005   21.3699 O.3     1  UNL1       -0.4754
     16 C          13.4693   88.6413   20.3147 C.ar    1  UNL1        0.1388
     17 C          12.0774   88.5923   20.5201 C.ar    1  UNL1        0.0369
     18 C          11.2050   88.6342   19.4308 C.ar    1  UNL1        0.0033
     19 C          11.7055   88.7285   18.1306 C.ar    1  UNL1        0.0066
     20 C          13.0909   88.7847   17.9055 C.ar    1  UNL1        0.0785
     21 C          13.9640   88.7422   19.0082 C.ar    1  UNL1        0.0433
     22 C          13.6196   88.8864   16.5272 C.2     1  UNL1        0.3381
     23 O          12.8474   88.7737   15.5368 O.2     1  UNL1       -0.2451
     24 O          14.9773   89.1077   16.3107 O.3     1  UNL1       -0.4771
     25 H          15.3496   89.1790   15.3713 H       1  UNL1        0.2954
     26 C          10.0662   79.7824   26.5411 C.2     1  UNL1        0.2839
     27 O          10.1601   80.6939   27.4066 O.2     1  UNL1       -0.2665
     28 N          10.9642   79.7542   25.4197 N.am    1  UNL1       -0.2766
     29 H          11.0722   78.8534   24.9007 H       1  UNL1        0.1553
     30 C           9.4726   78.0711   29.1854 C.3     1  UNL1        0.0345
     31 C           8.7954   77.9680   27.8520 C.ar    1  UNL1        0.0202
     32 C           9.0582   78.7168   26.6993 C.ar    1  UNL1        0.1946
     33 O           8.2536   78.3393   25.7217 O.2     1  UNL1       -0.4492
     34 C           7.4829   77.3838   26.1807 C.ar    1  UNL1        0.1452
     35 C           6.4883   76.6979   25.4924 C.ar    1  UNL1        0.0375
     36 C           5.7743   75.7028   26.1821 C.ar    1  UNL1        0.0031
     37 C           6.0629   75.4092   27.5423 C.ar    1  UNL1        0.0002
     38 C           7.0841   76.1308   28.2062 C.ar    1  UNL1        0.0028
     39 C           7.7729   77.1116   27.4909 C.ar    1  UNL1        0.0337
     40 C           5.3018   74.3559   28.2607 C.ar    1  UNL1        0.0000
     41 C           5.2949   73.0295   27.7883 C.ar    1  UNL1        0.0000
     42 C           4.5765   72.0399   28.4664 C.ar    1  UNL1        0.0000
     43 C           3.8590   72.3611   29.6208 C.ar    1  UNL1        0.0000
     44 C           3.8582   73.6730   30.0996 C.ar    1  UNL1        0.0000
     45 C           4.5740   74.6669   29.4252 C.ar    1  UNL1        0.0000
@<TRIPOS>BOND
     1    30    31    1
     2    31    32   ar
     3    32    26    1
     4    26    27    2
     5    26    28   am
     6    28     1    1
     7     1     2   ar
     8     2     3   ar
     9     3     4   ar
    10     4     7    1
    11     7     8    1
    12     8     9    1
    13     9    10    1
    14    10    14    1
    15    14    15    1
    16    15    16    1
    17    16    17   ar
    18    17    18   ar
    19    18    19   ar
    20    19    20   ar
    21    20    22    1
    22    22    23    2
    23    22    24    1
    24    20    21   ar
    25    10    11    1
    26    11    12    1
    27    11    13    1
    28     4     5   ar
    29     5     6   ar
    30    32    33   ar
    31    33    34   ar
    32    34    35   ar
    33    35    36   ar
    34    36    37   ar
    35    37    40    1
    36    40    41   ar
    37    41    42   ar
    38    42    43   ar
    39    43    44   ar
    40    44    45   ar
    41    37    38   ar
    42    38    39   ar
    43    39    31   ar
    44     6     1   ar
    45    39    34   ar
    46    13     7    1
    47    45    40   ar
    48    21    16   ar
    49    28    29    1
    50    24    25    1
@<TRIPOS>MOLECULE
*****
 45 50 0 0 0
SMALL
GASTEIGER

@<TRIPOS>ATOM
      1 C          10.6129   81.2026   24.9943 C.ar    1  UNL1        0.0702
      2 C          10.3133   80.6997   26.2652 C.ar    1  UNL1        0.0191
      3 C           9.5066   79.5693   26.4040 C.ar    1  UNL1        0.0356
      4 C           8.9791   78.9448   25.2591 C.ar    1  UNL1        0.1319
      5 N           9.2649   79.4717   24.0349 N.ar    1  UNL1       -0.2279
      6 C          10.0509   80.5688   23.8756 C.ar    1  UNL1        0.1149
      7 N           8.1474   77.7648   25.3588 N.pl3   1  UNL1       -0.2904
      8 C           7.4997   77.1976   24.1624 C.3     1  UNL1        0.0925
      9 C           6.3981   76.1925   24.5311 C.3     1  UNL1        0.0280
     10 C           5.5563   76.7378   25.6987 C.3     1  UNL1        0.0797
     11 C           6.4249   76.9869   26.9650 C.3     1  UNL1        0.1842
     12 F           5.9945   78.1458   27.5905 F       1  UNL1       -0.2353
     13 C           7.9282   77.1082   26.6573 C.3     1  UNL1        0.1274
     14 C           4.3781   75.7914   26.0004 C.3     1  UNL1        0.2081
     15 O           3.1346   76.3768   25.6099 O.3     1  UNL1       -0.4754
     16 C           2.8838   77.0261   24.3900 C.ar    1  UNL1        0.1388
     17 C           2.6079   78.4038   24.3026 C.ar    1  UNL1        0.0369
     18 C           2.3638   78.9937   23.0609 C.ar    1  UNL1        0.0033
     19 C           2.3952   78.2234   21.8966 C.ar    1  UNL1        0.0066
     20 C           2.6747   76.8484   21.9624 C.ar    1  UNL1        0.0785
     21 C           2.9197   76.2608   23.2173 C.ar    1  UNL1        0.0433
     22 C           2.7091   76.0338   20.7276 C.2     1  UNL1        0.3381
     23 O           3.6469   76.1731   19.8963 O.2     1  UNL1       -0.2451
     24 O           1.7043   75.1042   20.4717 O.3     1  UNL1       -0.4771
     25 H           1.7183   74.5415   19.6295 H       1  UNL1        0.2954
     26 C          12.8549   82.3587   24.7085 C.2     1  UNL1        0.2839
     27 O          13.5012   81.2984   24.9249 O.2     1  UNL1       -0.2665
     28 N          11.4272   82.3811   24.8686 N.am    1  UNL1       -0.2766
     29 H          10.9615   83.3096   24.9853 H       1  UNL1        0.1553
     30 C          15.6518   82.5647   23.1565 C.3     1  UNL1        0.0345
     31 C          14.7896   83.6869   23.6510 C.ar    1  UNL1        0.0202
     32 C          13.5691   83.5926   24.3291 C.ar    1  UNL1        0.1946
     33 O          13.1078   84.8007   24.5998 O.2     1  UNL1       -0.4492
     34 C          13.9664   85.6738   24.1327 C.ar    1  UNL1        0.1452
     35 C          13.8793   87.0601   24.1958 C.ar    1  UNL1        0.0375
     36 C          14.9192   87.8136   23.6245 C.ar    1  UNL1        0.0031
     37 C          16.0251   87.1743   23.0017 C.ar    1  UNL1        0.0002
     38 C          16.0754   85.7601   22.9595 C.ar    1  UNL1        0.0028
     39 C          15.0259   85.0436   23.5369 C.ar    1  UNL1        0.0337
     40 C          17.1178   87.9808   22.4012 C.ar    1  UNL1        0.0000
     41 C          17.0427   88.4019   21.0598 C.ar    1  UNL1        0.0000
     42 C          18.0736   89.1605   20.4968 C.ar    1  UNL1        0.0000
     43 C          19.1880   89.5075   21.2637 C.ar    1  UNL1        0.0000
     44 C          19.2743   89.0962   22.5955 C.ar    1  UNL1        0.0000
     45 C          18.2469   88.3367   23.1635 C.ar    1  UNL1        0.0000
@<TRIPOS>BOND
     1    30    31    1
     2    31    32   ar
     3    32    26    1
     4    26    27    2
     5    26    28   am
     6    28     1    1
     7     1     2   ar
     8     2     3   ar
     9     3     4   ar
    10     4     7    1
    11     7     8    1
    12     8     9    1
    13     9    10    1
    14    10    14    1
    15    14    15    1
    16    15    16    1
    17    16    17   ar
    18    17    18   ar
    19    18    19   ar
    20    19    20   ar
    21    20    22    1
    22    22    23    2
    23    22    24    1
    24    20    21   ar
    25    10    11    1
    26    11    12    1
    27    11    13    1
    28     4     5   ar
    29     5     6   ar
    30    32    33   ar
    31    33    34   ar
    32    34    35   ar
    33    35    36   ar
    34    36    37   ar
    35    37    40    1
    36    40    41   ar
    37    41    42   ar
    38    42    43   ar
    39    43    44   ar
    40    44    45   ar
    41    37    38   ar
    42    38    39   ar
    43    39    31   ar
    44     6     1   ar
    45    39    34   ar
    46    13     7    1
    47    45    40   ar
    48    21    16   ar
    49    28    29    1
    50    24    25    1
@<TRIPOS>MOLECULE
*****
 45 50 0 0 0
SMALL
GASTEIGER

@<TRIPOS>ATOM
      1 C          10.6250   81.1465   24.7558 C.ar    1  UNL1        0.0702
      2 C          10.3696   80.6650   26.0445 C.ar    1  UNL1        0.0191
      3 C           9.6554   79.4797   26.2256 C.ar    1  UNL1        0.0356
      4 C           9.1760   78.7768   25.1052 C.ar    1  UNL1        0.1319
      5 N           9.4159   79.2827   23.8625 N.ar    1  UNL1       -0.2279
      6 C          10.1120   80.4325   23.6621 C.ar    1  UNL1        0.1149
      7 N           8.4406   77.5388   25.2491 N.pl3   1  UNL1       -0.2904
      8 C           7.0015   77.5512   25.5675 C.3     1  UNL1        0.0925
      9 C           6.5054   76.1713   26.0250 C.3     1  UNL1        0.0280
     10 C           7.5212   75.5408   26.9945 C.3     1  UNL1        0.0797
     11 C           8.9134   75.3550   26.3259 C.3     1  UNL1        0.1842
     12 F           9.9039   75.6394   27.2520 F       1  UNL1       -0.2353
     13 C           9.1149   76.2414   25.0837 C.3     1  UNL1        0.1274
     14 C           6.9799   74.2088   27.5494 C.3     1  UNL1        0.2081
     15 O           7.0580   74.1757   28.9756 O.3     1  UNL1       -0.4754
     16 C           6.8871   75.2775   29.8298 C.ar    1  UNL1        0.1388
     17 C           5.7871   75.4045   30.6990 C.ar    1  UNL1        0.0369
     18 C           5.6696   76.5249   31.5239 C.ar    1  UNL1        0.0033
     19 C           6.6432   77.5255   31.4959 C.ar    1  UNL1        0.0066
     20 C           7.7513   77.4142   30.6398 C.ar    1  UNL1        0.0785
     21 C           7.8630   76.2821   29.8115 C.ar    1  UNL1        0.0433
     22 C           8.7829   78.4746   30.6126 C.2     1  UNL1        0.3381
     23 O           8.8146   79.3584   31.5114 O.2     1  UNL1       -0.2451
     24 O           9.7300   78.5065   29.5921 O.3     1  UNL1       -0.4771
     25 H          10.4405   79.2280   29.5640 H       1  UNL1        0.2954
     26 C          12.7287   82.5578   24.9226 C.2     1  UNL1        0.2839
     27 O          13.3254   81.6994   25.6268 O.2     1  UNL1       -0.2665
     28 N          11.3430   82.3808   24.5861 N.am    1  UNL1       -0.2766
     29 H          10.8020   83.2207   24.2788 H       1  UNL1        0.1553
     30 C          15.4463   82.6763   23.2274 C.3     1  UNL1        0.0345
     31 C          14.6282   83.8253   23.7348 C.ar    1  UNL1        0.0202
     32 C          13.4422   83.7692   24.4756 C.ar    1  UNL1        0.1946
     33 O          13.0144   84.9916   24.7373 O.2     1  UNL1       -0.4492
     34 C          13.8620   85.8376   24.2049 C.ar    1  UNL1        0.1452
     35 C          13.8001   87.2264   24.2358 C.ar    1  UNL1        0.0375
     36 C          14.8216   87.9471   23.5934 C.ar    1  UNL1        0.0031
     37 C          15.8843   87.2733   22.9329 C.ar    1  UNL1        0.0002
     38 C          15.9100   85.8579   22.9254 C.ar    1  UNL1        0.0028
     39 C          14.8798   85.1743   23.5734 C.ar    1  UNL1        0.0337
     40 C          16.9578   88.0455   22.2574 C.ar    1  UNL1        0.0000
     41 C          16.7882   88.5023   20.9365 C.ar    1  UNL1        0.0000
     42 C          17.8013   89.2284   20.3026 C.ar    1  UNL1        0.0000
     43 C          18.9917   89.5070   20.9777 C.ar    1  UNL1        0.0000
     44 C          19.1720   89.0597   22.2883 C.ar    1  UNL1        0.0000
     45 C          18.1628   88.3324   22.9268 C.ar    1  UNL1        0.0000
@<TRIPOS>BOND
     1    30    31    1
     2    31    32   ar
     3    32    26    1
     4    26    27    2
     5    26    28   am
     6    28     1    1
     7     1     2   ar
     8     2     3   ar
     9     3     4   ar
    10     4     7    1
    11     7     8    1
    12     8     9    1
    13     9    10    1
    14    10    14    1
    15    14    15    1
    16    15    16    1
    17    16    17   ar
    18    17    18   ar
    19    18    19   ar
    20    19    20   ar
    21    20    22    1
    22    22    23    2
    23    22    24    1
    24    20    21   ar
    25    10    11    1
    26    11    12    1
    27    11    13    1
    28     4     5   ar
    29     5     6   ar
    30    32    33   ar
    31    33    34   ar
    32    34    35   ar
    33    35    36   ar
    34    36    37   ar
    35    37    40    1
    36    40    41   ar
    37    41    42   ar
    38    42    43   ar
    39    43    44   ar
    40    44    45   ar
    41    37    38   ar
    42    38    39   ar
    43    39    31   ar
    44     6     1   ar
    45    39    34   ar
    46    13     7    1
    47    45    40   ar
    48    21    16   ar
    49    28    29    1
    50    24    25    1
@<TRIPOS>MOLECULE
*****
 45 50 0 0 0
SMALL
GASTEIGER

@<TRIPOS>ATOM
      1 C           9.9717   79.5262   23.9148 C.ar    1  UNL1        0.0702
      2 C           9.6976   79.2638   22.5680 C.ar    1  UNL1        0.0191
      3 C           9.0868   78.0663   22.1931 C.ar    1  UNL1        0.0356
      4 C           8.7620   77.1124   23.1749 C.ar    1  UNL1        0.1319
      5 N           9.0647   77.3823   24.4761 N.ar    1  UNL1       -0.2279
      6 C           9.6556   78.5428   24.8647 C.ar    1  UNL1        0.1149
      7 N           8.1185   75.8631   22.8294 N.pl3   1  UNL1       -0.2904
      8 C           8.2334   75.3088   21.4685 C.3     1  UNL1        0.0925
      9 C           7.2047   74.1964   21.2157 C.3     1  UNL1        0.0280
     10 C           5.8350   74.6055   21.7865 C.3     1  UNL1        0.0797
     11 C           5.9046   74.8580   23.3199 C.3     1  UNL1        0.1842
     12 F           5.1020   75.9414   23.6389 F       1  UNL1       -0.2353
     13 C           7.3333   75.1215   23.8287 C.3     1  UNL1        0.1274
     14 C           4.7692   73.5486   21.4370 C.3     1  UNL1        0.2081
     15 O           3.5919   74.1606   20.9068 O.3     1  UNL1       -0.4754
     16 C           3.4113   75.5370   20.6929 C.ar    1  UNL1        0.1388
     17 C           2.7188   76.3643   21.5973 C.ar    1  UNL1        0.0369
     18 C           2.5689   77.7264   21.3295 C.ar    1  UNL1        0.0033
     19 C           3.1072   78.2790   20.1655 C.ar    1  UNL1        0.0066
     20 C           3.8068   77.4711   19.2538 C.ar    1  UNL1        0.0785
     21 C           3.9540   76.0993   19.5305 C.ar    1  UNL1        0.0433
     22 C           4.3781   78.0585   18.0217 C.2     1  UNL1        0.3381
     23 O           4.5383   79.3053   17.9231 O.2     1  UNL1       -0.2451
     24 O           4.7446   77.2383   16.9576 O.3     1  UNL1       -0.4771
     25 H           5.1366   77.6301   16.1097 H       1  UNL1        0.2954
     26 C          12.0108   80.8554   24.6360 C.2     1  UNL1        0.2839
     27 O          12.6787   79.8162   24.8868 O.2     1  UNL1       -0.2665
     28 N          10.6216   80.7549   24.2830 N.am    1  UNL1       -0.2766
     29 H          10.0279   81.6096   24.3808 H       1  UNL1        0.1553
     30 C          13.1152   82.2491   27.3027 C.3     1  UNL1        0.0345
     31 C          13.1291   82.7947   25.9065 C.ar    1  UNL1        0.0202
     32 C          12.6449   82.1831   24.7446 C.ar    1  UNL1        0.1946
     33 O          12.8358   82.9743   23.7040 O.2     1  UNL1       -0.4492
     34 C          13.4184   84.0679   24.1310 C.ar    1  UNL1        0.1452
     35 C          13.8040   85.1692   23.3747 C.ar    1  UNL1        0.0375
     36 C          14.4201   86.2435   24.0395 C.ar    1  UNL1        0.0031
     37 C          14.6408   86.2019   25.4428 C.ar    1  UNL1        0.0002
     38 C          14.2324   85.0617   26.1758 C.ar    1  UNL1        0.0028
     39 C          13.6236   84.0137   25.4836 C.ar    1  UNL1        0.0337
     40 C          15.2929   87.3429   26.1341 C.ar    1  UNL1        0.0000
     41 C          16.3418   88.0498   25.5157 C.ar    1  UNL1        0.0000
     42 C          16.9546   89.1232   26.1696 C.ar    1  UNL1        0.0000
     43 C          16.5288   89.5031   27.4443 C.ar    1  UNL1        0.0000
     44 C          15.4892   88.8101   28.0683 C.ar    1  UNL1        0.0000
     45 C          14.8734   87.7354   27.4196 C.ar    1  UNL1        0.0000
@<TRIPOS>BOND
     1    30    31    1
     2    31    32   ar
     3    32    26    1
     4    26    27    2
     5    26    28   am
     6    28     1    1
     7     1     2   ar
     8     2     3   ar
     9     3     4   ar
    10     4     7    1
    11     7     8    1
    12     8     9    1
    13     9    10    1
    14    10    14    1
    15    14    15    1
    16    15    16    1
    17    16    17   ar
    18    17    18   ar
    19    18    19   ar
    20    19    20   ar
    21    20    22    1
    22    22    23    2
    23    22    24    1
    24    20    21   ar
    25    10    11    1
    26    11    12    1
    27    11    13    1
    28     4     5   ar
    29     5     6   ar
    30    32    33   ar
    31    33    34   ar
    32    34    35   ar
    33    35    36   ar
    34    36    37   ar
    35    37    40    1
    36    40    41   ar
    37    41    42   ar
    38    42    43   ar
    39    43    44   ar
    40    44    45   ar
    41    37    38   ar
    42    38    39   ar
    43    39    31   ar
    44     6     1   ar
    45    39    34   ar
    46    13     7    1
    47    45    40   ar
    48    21    16   ar
    49    28    29    1
    50    24    25    1
