@<TRIPOS>MOLECULE
*****
 59 63 0 0 0
SMALL
GASTEIGER

@<TRIPOS>ATOM
      1 C          49.6852   12.0021  -19.9450 C.ar    1  UNL1        0.0993
      2 C          49.7594   12.0129  -18.5464 C.ar    1  UNL1        0.0235
      3 C          50.8530   12.6026  -17.8873 C.ar    1  UNL1        0.0548
      4 C          51.8685   13.1925  -18.6609 C.ar    1  UNL1        0.0077
      5 C          51.7937   13.1893  -20.0556 C.ar    1  UNL1        0.0390
      6 C          50.7049   12.6057  -20.7085 C.ar    1  UNL1        0.1598
      7 C          50.9857   12.5371  -16.4086 C.2     1  UNL1        0.2458
      8 O          51.9960   11.9735  -15.9071 O.2     1  UNL1       -0.2701
      9 N          49.9793   13.1001  -15.5449 N.am    1  UNL1       -0.3040
     10 H          49.3951   13.8773  -15.9276 H       1  UNL1        0.1496
     11 C          49.7043   12.6343  -14.1714 C.3     1  UNL1        0.0572
     12 C          48.7739   13.6263  -13.4451 C.3     1  UNL1        0.0196
     13 C          49.0667   11.2328  -14.2055 C.3     1  UNL1        0.0196
     14 C          51.0335   12.5537  -13.3929 C.3     1  UNL1        0.0196
     15 N          48.6298   11.2759  -20.5747 N.pl3   1  UNL1       -0.2120
     16 H          47.6466   11.5022  -20.3061 H       1  UNL1        0.1738
     17 S          48.9395    9.6911  -21.1927 S.O2    1  UNL1        0.0745
     18 O          47.7378    8.8127  -20.9866 O.2     1  UNL1       -0.1499
     19 O          50.0905    9.0884  -20.4371 O.2     1  UNL1       -0.1499
     20 C          50.2199   10.1132  -25.5864 C.ar    1  UNL1       -0.0216
     21 C          50.9010    9.2564  -24.6990 C.ar    1  UNL1       -0.0028
     22 C          50.4734    9.1193  -23.3775 C.ar    1  UNL1        0.0207
     23 C          49.3580    9.8245  -22.9072 C.ar    1  UNL1        0.1356
     24 C          48.6713   10.6876  -23.7878 C.ar    1  UNL1        0.0762
     25 CL         47.2888   11.6525  -23.2813 Cl      1  UNL1       -0.0809
     26 C          49.1040   10.8197  -25.1125 C.ar    1  UNL1        0.0085
     27 C          52.7182   10.5162  -28.5513 C.3     1  UNL1        0.0003
     28 C          51.9701    9.7362  -27.4704 C.3     1  UNL1        0.0044
     29 C          50.6596    9.1064  -27.9391 C.3     1  UNL1        0.0047
     30 C          50.6356   10.3340  -27.0315 C.3     1  UNL1        0.0224
     31 O          50.6923   12.5985  -22.1110 O.3     1  UNL1       -0.4513
     32 C          50.2273   13.6466  -22.9195 C.ar    1  UNL1        0.1580
     33 C          49.2050   14.5092  -22.4869 C.ar    1  UNL1        0.0677
     34 C          48.7573   15.5460  -23.3098 C.ar    1  UNL1        0.1398
     35 F          47.7720   16.3663  -22.8642 F       1  UNL1       -0.2044
     36 C          49.3296   15.7378  -24.5796 C.ar    1  UNL1        0.0175
     37 C          50.3740   14.8972  -24.9959 C.ar    1  UNL1        0.0130
     38 C          50.8210   13.8591  -24.1717 C.ar    1  UNL1        0.0919
     39 CL         52.1218   12.8178  -24.7281 Cl      1  UNL1       -0.0791
     40 C          48.8824   16.8723  -25.4612 C.3     1  UNL1        0.1382
     41 C          48.0252   16.3506  -26.5685 C.2     1  UNL1        0.3234
     42 O          48.3015   16.6404  -27.7643 O.2     1  UNL1       -0.2497
     43 O          46.8906   15.5937  -26.2549 O.3     1  UNL1       -0.4215
     44 C          46.9116   14.1911  -25.9890 C.3     1  UNL1        0.3207
     45 O          47.6096   13.5271  -27.0436 O.3     1  UNL1       -0.3070
     46 C          46.7974   12.8597  -28.0052 C.3     1  UNL1        0.2456
     47 C          45.8360   11.8038  -27.3732 C.3     1  UNL1        0.1781
     48 O          46.4026   10.5171  -27.4246 O.3     1  UNL1       -0.3790
     49 C          45.4455   12.1496  -25.9205 C.3     1  UNL1        0.1733
     50 O          44.1849   11.6147  -25.5971 O.3     1  UNL1       -0.3793
     51 C          45.4770   13.6686  -25.7164 C.3     1  UNL1        0.2106
     52 O          45.0457   14.0126  -24.4223 O.3     1  UNL1       -0.3766
     53 H          47.2752   10.5545  -26.9514 H       1  UNL1        0.2106
     54 H          43.5050   12.0852  -26.1475 H       1  UNL1        0.2105
     55 H          45.6363   13.5502  -23.7714 H       1  UNL1        0.2107
     56 C          46.0924   13.8127  -28.9501 C.2     1  UNL1        0.3439
     57 O          45.3967   13.3848  -29.9072 O.2     1  UNL1       -0.2475
     58 O          46.1686   15.1873  -28.7400 O.3     1  UNL1       -0.4785
     59 H          46.6787   15.5730  -27.9545 H       1  UNL1        0.2951
@<TRIPOS>BOND
     1    27    28    1
     2    28    29    1
     3    29    30    1
     4    30    20    1
     5    20    21   ar
     6    21    22   ar
     7    22    23   ar
     8    23    17    1
     9    17    18    2
    10    17    19    2
    11    17    15    1
    12    15     1    1
    13     1     2   ar
    14     2     3   ar
    15     3     7    1
    16     7     8    2
    17     7     9   am
    18     9    11    1
    19    11    12    1
    20    11    13    1
    21    11    14    1
    22     3     4   ar
    23     4     5   ar
    24     5     6   ar
    25     6    31    1
    26    31    32    1
    27    32    33   ar
    28    33    34   ar
    29    34    35    1
    30    34    36   ar
    31    36    40    1
    32    40    41    1
    33    41    42    2
    34    41    43    1
    35    43    44    1
    36    44    45    1
    37    45    46    1
    38    46    56    1
    39    56    57    2
    40    56    58    1
    41    46    47    1
    42    47    48    1
    43    47    49    1
    44    49    50    1
    45    49    51    1
    46    51    52    1
    47    36    37   ar
    48    37    38   ar
    49    38    39    1
    50    23    24   ar
    51    24    25    1
    52    24    26   ar
    53    30    28    1
    54    26    20   ar
    55     6     1   ar
    56    38    32   ar
    57    51    44    1
    58    15    16    1
    59     9    10    1
    60    58    59    1
    61    48    53    1
    62    50    54    1
    63    52    55    1
@<TRIPOS>MOLECULE
*****
 59 63 0 0 0
SMALL
GASTEIGER

@<TRIPOS>ATOM
      1 C          49.8055   11.5982  -25.7889 C.ar    1  UNL1        0.0993
      2 C          50.0252   10.8919  -26.9783 C.ar    1  UNL1        0.0235
      3 C          50.9432    9.8274  -27.0253 C.ar    1  UNL1        0.0548
      4 C          51.6308    9.4774  -25.8494 C.ar    1  UNL1        0.0077
      5 C          51.4086   10.1756  -24.6603 C.ar    1  UNL1        0.0390
      6 C          50.4938   11.2308  -24.6149 C.ar    1  UNL1        0.1598
      7 C          51.2508    9.1334  -28.3028 C.2     1  UNL1        0.2458
      8 O          50.4595    8.2481  -28.7268 O.2     1  UNL1       -0.2701
      9 N          52.4367    9.4519  -29.0565 N.am    1  UNL1       -0.3040
     10 H          52.8453   10.4056  -28.9326 H       1  UNL1        0.1496
     11 C          53.1227    8.5140  -29.9669 C.3     1  UNL1        0.0572
     12 C          53.4310    7.1899  -29.2396 C.3     1  UNL1        0.0196
     13 C          52.2515    8.2496  -31.2091 C.3     1  UNL1        0.0196
     14 C          54.4560    9.1413  -30.4228 C.3     1  UNL1        0.0196
     15 N          48.9697   12.7551  -25.8174 N.pl3   1  UNL1       -0.2120
     16 H          49.3417   13.6425  -25.4124 H       1  UNL1        0.1738
     17 S          47.2522   12.5617  -25.8630 S.O2    1  UNL1        0.0745
     18 O          46.5826   13.7394  -25.2128 O.2     1  UNL1       -0.1499
     19 O          46.8785   11.3290  -25.0885 O.2     1  UNL1       -0.1499
     20 C          46.1436   12.0244  -30.2908 C.ar    1  UNL1       -0.0216
     21 C          46.5698   10.9385  -29.5004 C.ar    1  UNL1       -0.0028
     22 C          46.8693   11.1195  -28.1493 C.ar    1  UNL1        0.0207
     23 C          46.7482   12.3799  -27.5498 C.ar    1  UNL1        0.1356
     24 C          46.3251   13.4743  -28.3342 C.ar    1  UNL1        0.0762
     25 CL         46.1868   15.1056  -27.6872 Cl      1  UNL1       -0.0809
     26 C          46.0247   13.2861  -29.6885 C.ar    1  UNL1        0.0085
     27 C          43.9870   12.4665  -33.5077 C.3     1  UNL1        0.0003
     28 C          44.8646   12.9523  -32.3543 C.3     1  UNL1        0.0044
     29 C          46.3557   13.0185  -32.6801 C.3     1  UNL1        0.0047
     30 C          45.8205   11.9141  -31.7717 C.3     1  UNL1        0.0224
     31 O          50.3308   11.9222  -23.4056 O.3     1  UNL1       -0.4513
     32 C          49.1837   11.8781  -22.5989 C.ar    1  UNL1        0.1580
     33 C          48.5062   10.6714  -22.3517 C.ar    1  UNL1        0.0677
     34 C          47.3650   10.6519  -21.5456 C.ar    1  UNL1        0.1398
     35 F          46.7338    9.4716  -21.3205 F       1  UNL1       -0.2044
     36 C          46.8855   11.8418  -20.9704 C.ar    1  UNL1        0.0175
     37 C          47.5832   13.0400  -21.1898 C.ar    1  UNL1        0.0130
     38 C          48.7251   13.0587  -21.9976 C.ar    1  UNL1        0.0919
     39 CL         49.5676   14.5774  -22.2616 Cl      1  UNL1       -0.0791
     40 C          45.6792   11.8295  -20.0709 C.3     1  UNL1        0.1382
     41 C          46.0484   12.3385  -18.7153 C.2     1  UNL1        0.3234
     42 O          45.3821   13.2740  -18.1947 O.2     1  UNL1       -0.2497
     43 O          47.1688   11.8056  -18.0678 O.3     1  UNL1       -0.4215
     44 C          48.2723   12.5843  -17.6048 C.3     1  UNL1        0.3207
     45 O          49.1637   12.8241  -18.6949 O.3     1  UNL1       -0.3070
     46 C          50.3420   12.0237  -18.7240 C.3     1  UNL1        0.2456
     47 C          51.1936   12.1331  -17.4197 C.3     1  UNL1        0.1781
     48 O          52.2175   13.0862  -17.5690 O.3     1  UNL1       -0.3790
     49 C          50.3395   12.4678  -16.1783 C.3     1  UNL1        0.1733
     50 O          50.9358   11.9662  -15.0068 O.3     1  UNL1       -0.3793
     51 C          48.9174   11.9245  -16.3583 C.3     1  UNL1        0.2106
     52 O          48.1431   12.1466  -15.2049 O.3     1  UNL1       -0.3766
     53 H          51.7901   13.9509  -17.8066 H       1  UNL1        0.2106
     54 H          50.9123   10.9744  -15.0547 H       1  UNL1        0.2105
     55 H          48.1347   13.1236  -15.0270 H       1  UNL1        0.2107
     56 C          50.0754   10.5904  -19.1394 C.2     1  UNL1        0.3439
     57 O          50.9996    9.8560  -19.5751 O.2     1  UNL1       -0.2475
     58 O          48.8002   10.0486  -18.9983 O.3     1  UNL1       -0.4785
     59 H          48.0379   10.5896  -18.6080 H       1  UNL1        0.2951
@<TRIPOS>BOND
     1    27    28    1
     2    28    29    1
     3    29    30    1
     4    30    20    1
     5    20    21   ar
     6    21    22   ar
     7    22    23   ar
     8    23    17    1
     9    17    18    2
    10    17    19    2
    11    17    15    1
    12    15     1    1
    13     1     2   ar
    14     2     3   ar
    15     3     7    1
    16     7     8    2
    17     7     9   am
    18     9    11    1
    19    11    12    1
    20    11    13    1
    21    11    14    1
    22     3     4   ar
    23     4     5   ar
    24     5     6   ar
    25     6    31    1
    26    31    32    1
    27    32    33   ar
    28    33    34   ar
    29    34    35    1
    30    34    36   ar
    31    36    40    1
    32    40    41    1
    33    41    42    2
    34    41    43    1
    35    43    44    1
    36    44    45    1
    37    45    46    1
    38    46    56    1
    39    56    57    2
    40    56    58    1
    41    46    47    1
    42    47    48    1
    43    47    49    1
    44    49    50    1
    45    49    51    1
    46    51    52    1
    47    36    37   ar
    48    37    38   ar
    49    38    39    1
    50    23    24   ar
    51    24    25    1
    52    24    26   ar
    53    30    28    1
    54    26    20   ar
    55     6     1   ar
    56    38    32   ar
    57    51    44    1
    58    15    16    1
    59     9    10    1
    60    58    59    1
    61    48    53    1
    62    50    54    1
    63    52    55    1
@<TRIPOS>MOLECULE
*****
 59 63 0 0 0
SMALL
GASTEIGER

@<TRIPOS>ATOM
      1 C          49.5648   12.1750  -20.1753 C.ar    1  UNL1        0.0993
      2 C          49.0209   12.0391  -18.8919 C.ar    1  UNL1        0.0235
      3 C          49.7948   12.3087  -17.7488 C.ar    1  UNL1        0.0548
      4 C          51.1260   12.7288  -17.9194 C.ar    1  UNL1        0.0077
      5 C          51.6690   12.8719  -19.1983 C.ar    1  UNL1        0.0390
      6 C          50.8976   12.6066  -20.3327 C.ar    1  UNL1        0.1598
      7 C          49.2554   12.0783  -16.3834 C.2     1  UNL1        0.2458
      8 O          48.2295   12.7109  -16.0136 O.2     1  UNL1       -0.2701
      9 N          49.8880   11.1517  -15.4794 N.am    1  UNL1       -0.3040
     10 H          50.4471   10.3747  -15.8983 H       1  UNL1        0.1496
     11 C          49.8194   11.2447  -14.0077 C.3     1  UNL1        0.0572
     12 C          50.4197   12.5808  -13.5264 C.3     1  UNL1        0.0196
     13 C          48.3586   11.1161  -13.5369 C.3     1  UNL1        0.0196
     14 C          50.6400   10.0923  -13.3930 C.3     1  UNL1        0.0196
     15 N          48.7901   11.7618  -21.3008 N.pl3   1  UNL1       -0.2120
     16 H          47.9077   12.2795  -21.5091 H       1  UNL1        0.1738
     17 S          48.9025   10.1284  -21.8563 S.O2    1  UNL1        0.0745
     18 O          47.5583    9.4616  -21.7746 O.2     1  UNL1       -0.1499
     19 O          49.8502    9.3738  -20.9667 O.2     1  UNL1       -0.1499
     20 C          50.3070   10.1533  -26.2324 C.ar    1  UNL1       -0.0216
     21 C          49.5599   11.2187  -25.6917 C.ar    1  UNL1       -0.0028
     22 C          49.1728   11.2045  -24.3508 C.ar    1  UNL1        0.0207
     23 C          49.5218   10.1363  -23.5143 C.ar    1  UNL1        0.1356
     24 C          50.2672    9.0631  -24.0476 C.ar    1  UNL1        0.0762
     25 CL         50.7144    7.6537  -23.0921 Cl      1  UNL1       -0.0809
     26 C          50.6539    9.0838  -25.3929 C.ar    1  UNL1        0.0085
     27 C          52.8478    9.8567  -29.1736 C.3     1  UNL1        0.0003
     28 C          52.0422    9.3330  -27.9848 C.3     1  UNL1        0.0044
     29 C          50.6963    8.7138  -28.3580 C.3     1  UNL1        0.0047
     30 C          50.7468   10.0836  -27.6855 C.3     1  UNL1        0.0224
     31 O          51.4983   12.7327  -21.5938 O.3     1  UNL1       -0.4513
     32 C          51.0735   13.6056  -22.6067 C.ar    1  UNL1        0.1580
     33 C          50.1859   14.6626  -22.3400 C.ar    1  UNL1        0.0677
     34 C          49.7757   15.5191  -23.3651 C.ar    1  UNL1        0.1398
     35 F          48.9216   16.5340  -23.0777 F       1  UNL1       -0.2044
     36 C          50.2516   15.3325  -24.6748 C.ar    1  UNL1        0.0175
     37 C          51.1649   14.2980  -24.9325 C.ar    1  UNL1        0.0130
     38 C          51.5743   13.4406  -23.9058 C.ar    1  UNL1        0.0919
     39 CL         52.7090   12.1485  -24.2648 Cl      1  UNL1       -0.0791
     40 C          49.8468   16.2691  -25.7809 C.3     1  UNL1        0.1382
     41 C          48.5932   15.7799  -26.4304 C.2     1  UNL1        0.3234
     42 O          48.4742   15.8369  -27.6846 O.2     1  UNL1       -0.2497
     43 O          47.5437   15.3184  -25.6279 O.3     1  UNL1       -0.4215
     44 C          46.4158   14.5955  -26.1215 C.3     1  UNL1        0.3207
     45 O          45.3792   14.6211  -25.1391 O.3     1  UNL1       -0.3070
     46 C          45.2180   13.4313  -24.3722 C.3     1  UNL1        0.2456
     47 C          44.9705   12.1624  -25.2480 C.3     1  UNL1        0.1781
     48 O          43.5941   11.8964  -25.3661 O.3     1  UNL1       -0.3790
     49 C          45.6074   12.2740  -26.6496 C.3     1  UNL1        0.1733
     50 O          45.9277   11.0024  -27.1597 O.3     1  UNL1       -0.3793
     51 C          46.8419   13.1810  -26.5939 C.3     1  UNL1        0.2106
     52 O          47.4864   13.2327  -27.8433 O.3     1  UNL1       -0.3766
     53 H          43.1647   12.7041  -25.7534 H       1  UNL1        0.2106
     54 H          46.6519   10.6226  -26.5959 H       1  UNL1        0.2105
     55 H          46.8294   13.5607  -28.5118 H       1  UNL1        0.2107
     56 C          46.3131   13.2363  -23.3423 C.2     1  UNL1        0.3439
     57 O          46.9623   14.2142  -22.8891 O.2     1  UNL1       -0.2475
     58 O          46.5851   11.9641  -22.8453 O.3     1  UNL1       -0.4785
     59 H          46.0550   11.1557  -23.1477 H       1  UNL1        0.2951
@<TRIPOS>BOND
     1    27    28    1
     2    28    29    1
     3    29    30    1
     4    30    20    1
     5    20    21   ar
     6    21    22   ar
     7    22    23   ar
     8    23    17    1
     9    17    18    2
    10    17    19    2
    11    17    15    1
    12    15     1    1
    13     1     2   ar
    14     2     3   ar
    15     3     7    1
    16     7     8    2
    17     7     9   am
    18     9    11    1
    19    11    12    1
    20    11    13    1
    21    11    14    1
    22     3     4   ar
    23     4     5   ar
    24     5     6   ar
    25     6    31    1
    26    31    32    1
    27    32    33   ar
    28    33    34   ar
    29    34    35    1
    30    34    36   ar
    31    36    40    1
    32    40    41    1
    33    41    42    2
    34    41    43    1
    35    43    44    1
    36    44    45    1
    37    45    46    1
    38    46    56    1
    39    56    57    2
    40    56    58    1
    41    46    47    1
    42    47    48    1
    43    47    49    1
    44    49    50    1
    45    49    51    1
    46    51    52    1
    47    36    37   ar
    48    37    38   ar
    49    38    39    1
    50    23    24   ar
    51    24    25    1
    52    24    26   ar
    53    30    28    1
    54    26    20   ar
    55     6     1   ar
    56    38    32   ar
    57    51    44    1
    58    15    16    1
    59     9    10    1
    60    58    59    1
    61    48    53    1
    62    50    54    1
    63    52    55    1
@<TRIPOS>MOLECULE
*****
 59 63 0 0 0
SMALL
GASTEIGER

@<TRIPOS>ATOM
      1 C          52.2874   10.8221  -27.7216 C.ar    1  UNL1        0.0993
      2 C          53.1927   10.0967  -28.5062 C.ar    1  UNL1        0.0235
      3 C          52.8214    8.8712  -29.0882 C.ar    1  UNL1        0.0548
      4 C          51.5166    8.3916  -28.8755 C.ar    1  UNL1        0.0077
      5 C          50.6095    9.1163  -28.0991 C.ar    1  UNL1        0.0390
      6 C          50.9793   10.3351  -27.5245 C.ar    1  UNL1        0.1598
      7 C          53.8029    8.0506  -29.8442 C.2     1  UNL1        0.2458
      8 O          53.4419    6.9359  -30.3099 O.2     1  UNL1       -0.2701
      9 N          55.1550    8.5055  -30.0466 N.am    1  UNL1       -0.3040
     10 H          55.3253    9.5362  -30.0257 H       1  UNL1        0.1496
     11 C          56.3124    7.6131  -30.2537 C.3     1  UNL1        0.0572
     12 C          56.4748    7.2847  -31.7514 C.3     1  UNL1        0.0196
     13 C          57.5936    8.2733  -29.7107 C.3     1  UNL1        0.0196
     14 C          56.0735    6.2950  -29.4890 C.3     1  UNL1        0.0196
     15 N          52.7457   11.9894  -27.0397 N.pl3   1  UNL1       -0.2120
     16 H          53.2653   12.7095  -27.5889 H       1  UNL1        0.1738
     17 S          53.0492   11.9162  -25.3392 S.O2    1  UNL1        0.0745
     18 O          54.4514   12.3694  -25.0449 O.2     1  UNL1       -0.1499
     19 O          52.9156   10.4914  -24.8798 O.2     1  UNL1       -0.1499
     20 C          49.8385   14.3528  -23.1306 C.ar    1  UNL1       -0.0216
     21 C          50.6270   13.3951  -22.4622 C.ar    1  UNL1       -0.0028
     22 C          51.6188   12.6909  -23.1466 C.ar    1  UNL1        0.0207
     23 C          51.8549   12.9236  -24.5077 C.ar    1  UNL1        0.1356
     24 C          51.0680   13.8786  -25.1865 C.ar    1  UNL1        0.0762
     25 CL         51.2544   14.2096  -26.9055 Cl      1  UNL1       -0.0809
     26 C          50.0758   14.5829  -24.4943 C.ar    1  UNL1        0.0085
     27 C          47.0693   17.0843  -22.8760 C.3     1  UNL1        0.0003
     28 C          47.6755   15.7728  -23.3750 C.3     1  UNL1        0.0044
     29 C          47.3204   14.5511  -22.5294 C.3     1  UNL1        0.0047
     30 C          48.7259   15.1438  -22.4628 C.3     1  UNL1        0.0224
     31 O          50.0435   11.0085  -26.7259 O.3     1  UNL1       -0.4513
     32 C          49.6337   10.6033  -25.4466 C.ar    1  UNL1        0.1580
     33 C          50.2962    9.5738  -24.7556 C.ar    1  UNL1        0.0677
     34 C          49.8697    9.1863  -23.4826 C.ar    1  UNL1        0.1398
     35 F          50.5311    8.1924  -22.8370 F       1  UNL1       -0.2044
     36 C          48.7736    9.8273  -22.8790 C.ar    1  UNL1        0.0175
     37 C          48.1351   10.8785  -23.5558 C.ar    1  UNL1        0.0130
     38 C          48.5623   11.2651  -24.8305 C.ar    1  UNL1        0.0919
     39 CL         47.7335   12.5764  -25.6549 Cl      1  UNL1       -0.0791
     40 C          48.3264    9.4451  -21.4939 C.3     1  UNL1        0.1382
     41 C          48.0887   10.6738  -20.6774 C.2     1  UNL1        0.3234
     42 O          46.9088   11.0285  -20.4085 O.2     1  UNL1       -0.2497
     43 O          49.1829   11.4465  -20.2721 O.3     1  UNL1       -0.4215
     44 C          49.9832   11.1622  -19.1245 C.3     1  UNL1        0.3207
     45 O          49.1307   10.7747  -18.0459 O.3     1  UNL1       -0.3070
     46 C          48.8898   11.7684  -17.0538 C.3     1  UNL1        0.2456
     47 C          50.1985   12.3254  -16.4092 C.3     1  UNL1        0.1781
     48 O          50.4925   11.6504  -15.2104 O.3     1  UNL1       -0.3790
     49 C          51.4089   12.2536  -17.3644 C.3     1  UNL1        0.1733
     50 O          52.3473   13.2582  -17.0644 O.3     1  UNL1       -0.3793
     51 C          50.9352   12.3480  -18.8193 C.3     1  UNL1        0.2106
     52 O          52.0278   12.3665  -19.7051 O.3     1  UNL1       -0.3766
     53 H          50.5657   10.6825  -15.4213 H       1  UNL1        0.2106
     54 H          51.9296   14.1354  -17.2707 H       1  UNL1        0.2105
     55 H          52.5578   11.5406  -19.5526 H       1  UNL1        0.2107
     56 C          47.9493   12.8604  -17.5239 C.2     1  UNL1        0.3439
     57 O          48.2326   14.0761  -17.3663 O.2     1  UNL1       -0.2475
     58 O          46.7695   12.5282  -18.1851 O.3     1  UNL1       -0.4785
     59 H          46.5252   11.5637  -18.3748 H       1  UNL1        0.2951
@<TRIPOS>BOND
     1    27    28    1
     2    28    29    1
     3    29    30    1
     4    30    20    1
     5    20    21   ar
     6    21    22   ar
     7    22    23   ar
     8    23    17    1
     9    17    18    2
    10    17    19    2
    11    17    15    1
    12    15     1    1
    13     1     2   ar
    14     2     3   ar
    15     3     7    1
    16     7     8    2
    17     7     9   am
    18     9    11    1
    19    11    12    1
    20    11    13    1
    21    11    14    1
    22     3     4   ar
    23     4     5   ar
    24     5     6   ar
    25     6    31    1
    26    31    32    1
    27    32    33   ar
    28    33    34   ar
    29    34    35    1
    30    34    36   ar
    31    36    40    1
    32    40    41    1
    33    41    42    2
    34    41    43    1
    35    43    44    1
    36    44    45    1
    37    45    46    1
    38    46    56    1
    39    56    57    2
    40    56    58    1
    41    46    47    1
    42    47    48    1
    43    47    49    1
    44    49    50    1
    45    49    51    1
    46    51    52    1
    47    36    37   ar
    48    37    38   ar
    49    38    39    1
    50    23    24   ar
    51    24    25    1
    52    24    26   ar
    53    30    28    1
    54    26    20   ar
    55     6     1   ar
    56    38    32   ar
    57    51    44    1
    58    15    16    1
    59     9    10    1
    60    58    59    1
    61    48    53    1
    62    50    54    1
    63    52    55    1
@<TRIPOS>MOLECULE
*****
 59 63 0 0 0
SMALL
GASTEIGER

@<TRIPOS>ATOM
      1 C          50.7666   12.8466  -20.1290 C.ar    1  UNL1        0.0993
      2 C          50.9383   13.0859  -18.7597 C.ar    1  UNL1        0.0235
      3 C          50.4911   12.1560  -17.8039 C.ar    1  UNL1        0.0548
      4 C          49.8759   10.9728  -18.2504 C.ar    1  UNL1        0.0077
      5 C          49.7095   10.7284  -19.6155 C.ar    1  UNL1        0.0390
      6 C          50.1573   11.6519  -20.5636 C.ar    1  UNL1        0.1598
      7 C          50.5853   12.4435  -16.3490 C.2     1  UNL1        0.2458
      8 O          51.5780   12.0139  -15.7011 O.2     1  UNL1       -0.2701
      9 N          49.5614   13.1970  -15.6709 N.am    1  UNL1       -0.3040
     10 H          48.9932   13.8618  -16.2428 H       1  UNL1        0.1496
     11 C          49.2476   13.0714  -14.2340 C.3     1  UNL1        0.0572
     12 C          48.6546   11.6800  -13.9345 C.3     1  UNL1        0.0196
     13 C          50.5171   13.3021  -13.3929 C.3     1  UNL1        0.0196
     14 C          48.2016   14.1391  -13.8531 C.3     1  UNL1        0.0196
     15 N          51.1106   13.8744  -21.0579 N.pl3   1  UNL1       -0.2120
     16 H          50.3372   14.4169  -21.5022 H       1  UNL1        0.1738
     17 S          52.6077   13.7768  -21.9174 S.O2    1  UNL1        0.0745
     18 O          53.6217   13.0226  -21.1043 O.2     1  UNL1       -0.1499
     19 O          53.1335   15.1668  -22.1421 O.2     1  UNL1       -0.1499
     20 C          52.0514   11.7810  -26.0198 C.ar    1  UNL1       -0.0216
     21 C          52.9749   11.2855  -25.0780 C.ar    1  UNL1       -0.0028
     22 C          53.1028   11.8882  -23.8256 C.ar    1  UNL1        0.0207
     23 C          52.3145   12.9925  -23.4766 C.ar    1  UNL1        0.1356
     24 C          51.3890   13.4979  -24.4146 C.ar    1  UNL1        0.0762
     25 CL         50.3871   14.9087  -24.0904 Cl      1  UNL1       -0.0809
     26 C          51.2643   12.8882  -25.6686 C.ar    1  UNL1        0.0085
     27 C          53.0082    9.6501  -29.1404 C.3     1  UNL1        0.0003
     28 C          52.5493    9.8595  -27.6975 C.3     1  UNL1        0.0044
     29 C          51.0333    9.9223  -27.5200 C.3     1  UNL1        0.0047
     30 C          51.8686   11.1957  -27.4104 C.3     1  UNL1        0.0224
     31 O          49.9370   11.3762  -21.9210 O.3     1  UNL1       -0.4513
     32 C          48.8960   11.9111  -22.6947 C.ar    1  UNL1        0.1580
     33 C          48.2180   13.0795  -22.3057 C.ar    1  UNL1        0.0677
     34 C          47.1835   13.5934  -23.0919 C.ar    1  UNL1        0.1398
     35 F          46.5496   14.7257  -22.6941 F       1  UNL1       -0.2044
     36 C          46.8133   12.9463  -24.2839 C.ar    1  UNL1        0.0175
     37 C          47.5143   11.7993  -24.6886 C.ar    1  UNL1        0.0130
     38 C          48.5493   11.2852  -23.9005 C.ar    1  UNL1        0.0919
     39 CL         49.3982    9.8412  -24.4299 Cl      1  UNL1       -0.0791
     40 C          45.7257   13.5088  -25.1586 C.3     1  UNL1        0.1382
     41 C          46.3085   14.4713  -26.1419 C.2     1  UNL1        0.3234
     42 O          46.1398   14.2836  -27.3775 O.2     1  UNL1       -0.2497
     43 O          47.0850   15.5379  -25.6751 O.3     1  UNL1       -0.4215
     44 C          46.9493   16.8855  -26.1267 C.3     1  UNL1        0.3207
     45 O          47.5455   17.0064  -27.4191 O.3     1  UNL1       -0.3070
     46 C          48.8328   17.6156  -27.4570 C.3     1  UNL1        0.2456
     47 C          48.8592   19.0407  -26.8192 C.3     1  UNL1        0.1781
     48 O          48.7084   20.0331  -27.8049 O.3     1  UNL1       -0.3790
     49 C          47.7882   19.2210  -25.7223 C.3     1  UNL1        0.1733
     50 O          48.1935   20.1799  -24.7757 O.3     1  UNL1       -0.3793
     51 C          47.4859   17.8730  -25.0579 C.3     1  UNL1        0.2106
     52 O          46.5718   18.0261  -23.9997 O.3     1  UNL1       -0.3766
     53 H          47.8550   19.8555  -28.2812 H       1  UNL1        0.2106
     54 H          48.9775   19.8133  -24.2886 H       1  UNL1        0.2105
     55 H          45.7466   18.4387  -24.3671 H       1  UNL1        0.2107
     56 C          49.9324   16.7121  -26.9349 C.2     1  UNL1        0.3439
     57 O          50.9885   17.1884  -26.4442 O.2     1  UNL1       -0.2475
     58 O          49.7651   15.3295  -26.9492 O.3     1  UNL1       -0.4785
     59 H          48.9115   14.9054  -27.2918 H       1  UNL1        0.2951
@<TRIPOS>BOND
     1    27    28    1
     2    28    29    1
     3    29    30    1
     4    30    20    1
     5    20    21   ar
     6    21    22   ar
     7    22    23   ar
     8    23    17    1
     9    17    18    2
    10    17    19    2
    11    17    15    1
    12    15     1    1
    13     1     2   ar
    14     2     3   ar
    15     3     7    1
    16     7     8    2
    17     7     9   am
    18     9    11    1
    19    11    12    1
    20    11    13    1
    21    11    14    1
    22     3     4   ar
    23     4     5   ar
    24     5     6   ar
    25     6    31    1
    26    31    32    1
    27    32    33   ar
    28    33    34   ar
    29    34    35    1
    30    34    36   ar
    31    36    40    1
    32    40    41    1
    33    41    42    2
    34    41    43    1
    35    43    44    1
    36    44    45    1
    37    45    46    1
    38    46    56    1
    39    56    57    2
    40    56    58    1
    41    46    47    1
    42    47    48    1
    43    47    49    1
    44    49    50    1
    45    49    51    1
    46    51    52    1
    47    36    37   ar
    48    37    38   ar
    49    38    39    1
    50    23    24   ar
    51    24    25    1
    52    24    26   ar
    53    30    28    1
    54    26    20   ar
    55     6     1   ar
    56    38    32   ar
    57    51    44    1
    58    15    16    1
    59     9    10    1
    60    58    59    1
    61    48    53    1
    62    50    54    1
    63    52    55    1
@<TRIPOS>MOLECULE
*****
 59 63 0 0 0
SMALL
GASTEIGER

@<TRIPOS>ATOM
      1 C          49.8248   11.9655  -20.8463 C.ar    1  UNL1        0.0993
      2 C          49.9677   11.7953  -19.4635 C.ar    1  UNL1        0.0235
      3 C          48.8595   11.4765  -18.6582 C.ar    1  UNL1        0.0548
      4 C          47.6032   11.3209  -19.2709 C.ar    1  UNL1        0.0077
      5 C          47.4590   11.4833  -20.6507 C.ar    1  UNL1        0.0390
      6 C          48.5618   11.7969  -21.4493 C.ar    1  UNL1        0.1598
      7 C          48.9840   11.3854  -17.1802 C.2     1  UNL1        0.2458
      8 O          47.9820   11.0348  -16.5000 O.2     1  UNL1       -0.2701
      9 N          50.2248   11.6959  -16.5169 N.am    1  UNL1       -0.3040
     10 H          51.1062   11.5884  -17.0676 H       1  UNL1        0.1496
     11 C          50.3281   12.1789  -15.1258 C.3     1  UNL1        0.0572
     12 C          50.1084   11.0164  -14.1371 C.3     1  UNL1        0.0196
     13 C          51.7062   12.8252  -14.8909 C.3     1  UNL1        0.0196
     14 C          49.2361   13.2403  -14.8803 C.3     1  UNL1        0.0196
     15 N          50.9448   12.4210  -21.6052 N.pl3   1  UNL1       -0.2120
     16 H          51.7693   11.7871  -21.6966 H       1  UNL1        0.1738
     17 S          51.2266   14.1189  -21.7689 S.O2    1  UNL1        0.0745
     18 O          52.7020   14.4025  -21.7409 O.2     1  UNL1       -0.1499
     19 O          50.5942   14.8335  -20.6077 O.2     1  UNL1       -0.1499
     20 C          49.1271   15.4617  -25.6306 C.ar    1  UNL1       -0.0216
     21 C          48.6953   15.9042  -24.3644 C.ar    1  UNL1       -0.0028
     22 C          49.3691   15.5095  -23.2076 C.ar    1  UNL1        0.0207
     23 C          50.4894   14.6713  -23.2802 C.ar    1  UNL1        0.1356
     24 C          50.9275   14.2204  -24.5437 C.ar    1  UNL1        0.0762
     25 CL         52.2943   13.1279  -24.7375 Cl      1  UNL1       -0.0809
     26 C          50.2483   14.6210  -25.7005 C.ar    1  UNL1        0.0085
     27 C          46.0950   16.0681  -28.0040 C.3     1  UNL1        0.0003
     28 C          47.0218   16.3970  -26.8338 C.3     1  UNL1        0.0044
     29 C          48.1910   17.3126  -27.1925 C.3     1  UNL1        0.0047
     30 C          48.4351   15.8279  -26.9331 C.3     1  UNL1        0.0224
     31 O          48.3595   11.9826  -22.8247 O.3     1  UNL1       -0.4513
     32 C          49.0778   11.3348  -23.8410 C.ar    1  UNL1        0.1580
     33 C          50.1612   10.4880  -23.5487 C.ar    1  UNL1        0.0677
     34 C          50.8626    9.8540  -24.5776 C.ar    1  UNL1        0.1398
     35 F          51.9016    9.0383  -24.2656 F       1  UNL1       -0.2044
     36 C          50.4872   10.0553  -25.9174 C.ar    1  UNL1        0.0175
     37 C          49.3835   10.8736  -26.2055 C.ar    1  UNL1        0.0130
     38 C          48.6825   11.5085  -25.1748 C.ar    1  UNL1        0.0919
     39 CL         47.3134   12.5355  -25.5708 Cl      1  UNL1       -0.0791
     40 C          51.2105    9.3504  -27.0330 C.3     1  UNL1        0.1382
     41 C          52.2161   10.2681  -27.6490 C.2     1  UNL1        0.3234
     42 O          52.3513   11.4397  -27.2023 O.2     1  UNL1       -0.2497
     43 O          52.9537    9.8295  -28.7544 O.3     1  UNL1       -0.4215
     44 C          53.0611    8.4633  -29.1549 C.3     1  UNL1        0.3207
     45 O          54.2765    7.9199  -28.6373 O.3     1  UNL1       -0.3070
     46 C          55.3477    7.7913  -29.5678 C.3     1  UNL1        0.2456
     47 C          54.9760    6.9373  -30.8211 C.3     1  UNL1        0.1781
     48 O          55.3795    5.6000  -30.6531 O.3     1  UNL1       -0.3790
     49 C          53.4700    6.9950  -31.1545 C.3     1  UNL1        0.1733
     50 O          53.2502    6.7879  -32.5288 O.3     1  UNL1       -0.3793
     51 C          52.8808    8.3317  -30.6897 C.3     1  UNL1        0.2106
     52 O          51.5269    8.4405  -31.0558 O.3     1  UNL1       -0.3766
     53 H          54.9450    5.2570  -29.8283 H       1  UNL1        0.2106
     54 H          53.6348    7.5620  -33.0179 H       1  UNL1        0.2105
     55 H          51.0399    7.6740  -30.6539 H       1  UNL1        0.2107
     56 C          55.9871    9.1189  -29.9235 C.2     1  UNL1        0.3439
     57 O          57.0201    9.5239  -29.3302 O.2     1  UNL1       -0.2475
     58 O          55.4606    9.8930  -30.9546 O.3     1  UNL1       -0.4785
     59 H          54.6584    9.5829  -31.4897 H       1  UNL1        0.2951
@<TRIPOS>BOND
     1    27    28    1
     2    28    29    1
     3    29    30    1
     4    30    20    1
     5    20    21   ar
     6    21    22   ar
     7    22    23   ar
     8    23    17    1
     9    17    18    2
    10    17    19    2
    11    17    15    1
    12    15     1    1
    13     1     2   ar
    14     2     3   ar
    15     3     7    1
    16     7     8    2
    17     7     9   am
    18     9    11    1
    19    11    12    1
    20    11    13    1
    21    11    14    1
    22     3     4   ar
    23     4     5   ar
    24     5     6   ar
    25     6    31    1
    26    31    32    1
    27    32    33   ar
    28    33    34   ar
    29    34    35    1
    30    34    36   ar
    31    36    40    1
    32    40    41    1
    33    41    42    2
    34    41    43    1
    35    43    44    1
    36    44    45    1
    37    45    46    1
    38    46    56    1
    39    56    57    2
    40    56    58    1
    41    46    47    1
    42    47    48    1
    43    47    49    1
    44    49    50    1
    45    49    51    1
    46    51    52    1
    47    36    37   ar
    48    37    38   ar
    49    38    39    1
    50    23    24   ar
    51    24    25    1
    52    24    26   ar
    53    30    28    1
    54    26    20   ar
    55     6     1   ar
    56    38    32   ar
    57    51    44    1
    58    15    16    1
    59     9    10    1
    60    58    59    1
    61    48    53    1
    62    50    54    1
    63    52    55    1
@<TRIPOS>MOLECULE
*****
 59 63 0 0 0
SMALL
GASTEIGER

@<TRIPOS>ATOM
      1 C          50.4392   11.7404  -20.2515 C.ar    1  UNL1        0.0993
      2 C          50.8133   12.1055  -18.9522 C.ar    1  UNL1        0.0235
      3 C          49.9712   11.8385  -17.8578 C.ar    1  UNL1        0.0548
      4 C          48.7474   11.1863  -18.0919 C.ar    1  UNL1        0.0077
      5 C          48.3748   10.8149  -19.3858 C.ar    1  UNL1        0.0390
      6 C          49.2143   11.0783  -20.4713 C.ar    1  UNL1        0.1598
      7 C          50.3173   12.3044  -16.4898 C.2     1  UNL1        0.2458
      8 O          51.4558   12.0361  -16.0193 O.2     1  UNL1       -0.2701
      9 N          49.3735   13.0494  -15.6958 N.am    1  UNL1       -0.3040
     10 H          48.6398   13.5935  -16.2032 H       1  UNL1        0.1496
     11 C          49.3604   13.0718  -14.2199 C.3     1  UNL1        0.0572
     12 C          49.0108   11.6762  -13.6657 C.3     1  UNL1        0.0196
     13 C          50.7304   13.5297  -13.6854 C.3     1  UNL1        0.0196
     14 C          48.2851   14.0691  -13.7423 C.3     1  UNL1        0.0196
     15 N          51.2580   12.1503  -21.3466 N.pl3   1  UNL1       -0.2120
     16 H          51.8341   11.4261  -21.8300 H       1  UNL1        0.1738
     17 S          51.8063   13.7879  -21.4315 S.O2    1  UNL1        0.0745
     18 O          53.2033   13.8367  -21.9827 O.2     1  UNL1       -0.1499
     19 O          51.8336   14.3666  -20.0446 O.2     1  UNL1       -0.1499
     20 C          49.0223   16.3456  -24.0451 C.ar    1  UNL1       -0.0216
     21 C          50.3075   15.9704  -24.4846 C.ar    1  UNL1       -0.0028
     22 C          51.1225   15.1654  -23.6873 C.ar    1  UNL1        0.0207
     23 C          50.6800   14.7098  -22.4386 C.ar    1  UNL1        0.1356
     24 C          49.3955   15.0830  -21.9884 C.ar    1  UNL1        0.0762
     25 CL         48.7665   14.6021  -20.4161 Cl      1  UNL1       -0.0809
     26 C          48.5821   15.8894  -22.7933 C.ar    1  UNL1        0.0085
     27 C          47.7388   19.6874  -25.5876 C.3     1  UNL1        0.0003
     28 C          48.6849   18.4925  -25.4704 C.3     1  UNL1        0.0044
     29 C          48.3107   17.3021  -26.3517 C.3     1  UNL1        0.0047
     30 C          48.0848   17.2366  -24.8431 C.3     1  UNL1        0.0224
     31 O          48.7804   10.7158  -21.7549 O.3     1  UNL1       -0.4513
     32 C          48.0061   11.5220  -22.6028 C.ar    1  UNL1        0.1580
     33 C          46.6698   11.8353  -22.2990 C.ar    1  UNL1        0.0677
     34 C          45.9175   12.6395  -23.1592 C.ar    1  UNL1        0.1398
     35 F          44.6310   12.9295  -22.8381 F       1  UNL1       -0.2044
     36 C          46.4936   13.1465  -24.3372 C.ar    1  UNL1        0.0175
     37 C          47.8384   12.8613  -24.6215 C.ar    1  UNL1        0.0130
     38 C          48.5905   12.0555  -23.7602 C.ar    1  UNL1        0.0919
     39 CL         50.2674   11.7080  -24.1519 Cl      1  UNL1       -0.0791
     40 C          45.7065   14.0434  -25.2539 C.3     1  UNL1        0.1382
     41 C          46.1978   13.8960  -26.6574 C.2     1  UNL1        0.3234
     42 O          46.1600   14.8832  -27.4412 O.2     1  UNL1       -0.2497
     43 O          46.6397   12.6433  -27.0980 O.3     1  UNL1       -0.4215
     44 C          46.0570   11.9255  -28.1859 C.3     1  UNL1        0.3207
     45 O          46.1664   10.5241  -27.9317 O.3     1  UNL1       -0.3070
     46 C          47.1953    9.8405  -28.6415 C.3     1  UNL1        0.2456
     47 C          47.0893   10.0053  -30.1907 C.3     1  UNL1        0.1781
     48 O          46.4062    8.9174  -30.7642 O.3     1  UNL1       -0.3790
     49 C          46.4112   11.3293  -30.6027 C.3     1  UNL1        0.1733
     50 O          46.8603   11.7528  -31.8671 O.3     1  UNL1       -0.3793
     51 C          46.6590   12.4001  -29.5342 C.3     1  UNL1        0.2106
     52 O          46.1190   13.6384  -29.9265 O.3     1  UNL1       -0.3766
     53 H          45.5120    8.8646  -30.3347 H       1  UNL1        0.2106
     54 H          47.8212   11.9902  -31.7843 H       1  UNL1        0.2105
     55 H          45.1476   13.5099  -30.0879 H       1  UNL1        0.2107
     56 C          48.5826   10.1374  -28.1074 C.2     1  UNL1        0.3439
     57 O          49.6040    9.6098  -28.6188 O.2     1  UNL1       -0.2475
     58 O          48.7490   11.0437  -27.0631 O.3     1  UNL1       -0.4785
     59 H          47.9586   11.5267  -26.6534 H       1  UNL1        0.2951
@<TRIPOS>BOND
     1    27    28    1
     2    28    29    1
     3    29    30    1
     4    30    20    1
     5    20    21   ar
     6    21    22   ar
     7    22    23   ar
     8    23    17    1
     9    17    18    2
    10    17    19    2
    11    17    15    1
    12    15     1    1
    13     1     2   ar
    14     2     3   ar
    15     3     7    1
    16     7     8    2
    17     7     9   am
    18     9    11    1
    19    11    12    1
    20    11    13    1
    21    11    14    1
    22     3     4   ar
    23     4     5   ar
    24     5     6   ar
    25     6    31    1
    26    31    32    1
    27    32    33   ar
    28    33    34   ar
    29    34    35    1
    30    34    36   ar
    31    36    40    1
    32    40    41    1
    33    41    42    2
    34    41    43    1
    35    43    44    1
    36    44    45    1
    37    45    46    1
    38    46    56    1
    39    56    57    2
    40    56    58    1
    41    46    47    1
    42    47    48    1
    43    47    49    1
    44    49    50    1
    45    49    51    1
    46    51    52    1
    47    36    37   ar
    48    37    38   ar
    49    38    39    1
    50    23    24   ar
    51    24    25    1
    52    24    26   ar
    53    30    28    1
    54    26    20   ar
    55     6     1   ar
    56    38    32   ar
    57    51    44    1
    58    15    16    1
    59     9    10    1
    60    58    59    1
    61    48    53    1
    62    50    54    1
    63    52    55    1
@<TRIPOS>MOLECULE
*****
 59 63 0 0 0
SMALL
GASTEIGER

@<TRIPOS>ATOM
      1 C          50.1180   10.8217  -25.6646 C.ar    1  UNL1        0.0993
      2 C          50.4310    9.8837  -26.6565 C.ar    1  UNL1        0.0235
      3 C          49.5205    9.5958  -27.6892 C.ar    1  UNL1        0.0548
      4 C          48.2905   10.2771  -27.7132 C.ar    1  UNL1        0.0077
      5 C          47.9786   11.2181  -26.7292 C.ar    1  UNL1        0.0390
      6 C          48.8858   11.5050  -25.7059 C.ar    1  UNL1        0.1598
      7 C          49.8051    8.5364  -28.6917 C.2     1  UNL1        0.2458
      8 O          49.4574    7.3495  -28.4464 O.2     1  UNL1       -0.2701
      9 N          50.4739    8.8435  -29.9303 N.am    1  UNL1       -0.3040
     10 H          50.3933    9.8203  -30.2927 H       1  UNL1        0.1496
     11 C          51.2829    7.8797  -30.7020 C.3     1  UNL1        0.0572
     12 C          52.0405    8.6012  -31.8345 C.3     1  UNL1        0.0196
     13 C          52.2759    7.1580  -29.7719 C.3     1  UNL1        0.0196
     14 C          50.3458    6.8302  -31.3342 C.3     1  UNL1        0.0196
     15 N          51.0101   10.9842  -24.5621 N.pl3   1  UNL1       -0.2120
     16 H          50.7135   10.6198  -23.6297 H       1  UNL1        0.1738
     17 S          52.1577   12.2772  -24.5809 S.O2    1  UNL1        0.0745
     18 O          53.1614   12.0609  -25.6782 O.2     1  UNL1       -0.1499
     19 O          52.8967   12.2937  -23.2722 O.2     1  UNL1       -0.1499
     20 C          50.0573   16.3095  -25.2529 C.ar    1  UNL1       -0.0216
     21 C          50.3335   15.4347  -26.3226 C.ar    1  UNL1       -0.0028
     22 C          50.9424   14.2006  -26.0899 C.ar    1  UNL1        0.0207
     23 C          51.2867   13.8035  -24.7913 C.ar    1  UNL1        0.1356
     24 C          51.0169   14.6743  -23.7139 C.ar    1  UNL1        0.0762
     25 CL         51.4534   14.2887  -22.0527 Cl      1  UNL1       -0.0809
     26 C          50.4046   15.9102  -23.9534 C.ar    1  UNL1        0.0085
     27 C          48.9074   19.4820  -27.2043 C.3     1  UNL1        0.0003
     28 C          48.8452   18.0087  -26.8016 C.3     1  UNL1        0.0044
     29 C          47.9059   17.7126  -25.6337 C.3     1  UNL1        0.0047
     30 C          49.4181   17.6775  -25.4257 C.3     1  UNL1        0.0224
     31 O          48.5124   12.4330  -24.7227 O.3     1  UNL1       -0.4513
     32 C          47.8578   12.1179  -23.5224 C.ar    1  UNL1        0.1580
     33 C          47.8356   10.8046  -23.0214 C.ar    1  UNL1        0.0677
     34 C          47.1764   10.5141  -21.8241 C.ar    1  UNL1        0.1398
     35 F          47.1751    9.2380  -21.3619 F       1  UNL1       -0.2044
     36 C          46.5312   11.5365  -21.1065 C.ar    1  UNL1        0.0175
     37 C          46.5840   12.8533  -21.5902 C.ar    1  UNL1        0.0130
     38 C          47.2435   13.1430  -22.7894 C.ar    1  UNL1        0.0919
     39 CL         47.2804   14.7996  -23.3728 Cl      1  UNL1       -0.0791
     40 C          45.8488   11.2446  -19.7974 C.3     1  UNL1        0.1382
     41 C          46.4269   12.1017  -18.7185 C.2     1  UNL1        0.3234
     42 O          45.8795   13.2007  -18.4307 O.2     1  UNL1       -0.2497
     43 O          47.6056   11.6961  -18.0824 O.3     1  UNL1       -0.4215
     44 C          48.7282   12.5489  -17.8562 C.3     1  UNL1        0.3207
     45 O          49.3213   12.8819  -19.1122 O.3     1  UNL1       -0.3070
     46 C          50.5143   12.1775  -19.4444 C.3     1  UNL1        0.2456
     47 C          51.6366   12.3249  -18.3687 C.3     1  UNL1        0.1781
     48 O          52.5267   13.3587  -18.7124 O.3     1  UNL1       -0.3790
     49 C          51.0740   12.5640  -16.9513 C.3     1  UNL1        0.1733
     50 O          51.9613   12.0851  -15.9700 O.3     1  UNL1       -0.3793
     51 C          49.6916   11.9146  -16.8194 C.3     1  UNL1        0.2106
     52 O          49.1939   12.0496  -15.5106 O.3     1  UNL1       -0.3766
     53 H          51.9950   14.1920  -18.8104 H       1  UNL1        0.2106
     54 H          51.9982   11.0959  -16.0505 H       1  UNL1        0.2105
     55 H          49.1575   13.0187  -15.2969 H       1  UNL1        0.2107
     56 C          50.2612   10.7372  -19.8435 C.2     1  UNL1        0.3439
     57 O          50.3993   10.3578  -21.0352 O.2     1  UNL1       -0.2475
     58 O          49.9146    9.7959  -18.8774 O.3     1  UNL1       -0.4785
     59 H          49.8385   10.0481  -17.8993 H       1  UNL1        0.2951
@<TRIPOS>BOND
     1    27    28    1
     2    28    29    1
     3    29    30    1
     4    30    20    1
     5    20    21   ar
     6    21    22   ar
     7    22    23   ar
     8    23    17    1
     9    17    18    2
    10    17    19    2
    11    17    15    1
    12    15     1    1
    13     1     2   ar
    14     2     3   ar
    15     3     7    1
    16     7     8    2
    17     7     9   am
    18     9    11    1
    19    11    12    1
    20    11    13    1
    21    11    14    1
    22     3     4   ar
    23     4     5   ar
    24     5     6   ar
    25     6    31    1
    26    31    32    1
    27    32    33   ar
    28    33    34   ar
    29    34    35    1
    30    34    36   ar
    31    36    40    1
    32    40    41    1
    33    41    42    2
    34    41    43    1
    35    43    44    1
    36    44    45    1
    37    45    46    1
    38    46    56    1
    39    56    57    2
    40    56    58    1
    41    46    47    1
    42    47    48    1
    43    47    49    1
    44    49    50    1
    45    49    51    1
    46    51    52    1
    47    36    37   ar
    48    37    38   ar
    49    38    39    1
    50    23    24   ar
    51    24    25    1
    52    24    26   ar
    53    30    28    1
    54    26    20   ar
    55     6     1   ar
    56    38    32   ar
    57    51    44    1
    58    15    16    1
    59     9    10    1
    60    58    59    1
    61    48    53    1
    62    50    54    1
    63    52    55    1
@<TRIPOS>MOLECULE
*****
 59 63 0 0 0
SMALL
GASTEIGER

@<TRIPOS>ATOM
      1 C          49.4935   13.5809  -20.3118 C.ar    1  UNL1        0.0993
      2 C          49.3557   12.9911  -19.0490 C.ar    1  UNL1        0.0235
      3 C          50.4823   12.7329  -18.2474 C.ar    1  UNL1        0.0548
      4 C          51.7526   13.0888  -18.7347 C.ar    1  UNL1        0.0077
      5 C          51.8922   13.6834  -19.9908 C.ar    1  UNL1        0.0390
      6 C          50.7716   13.9420  -20.7843 C.ar    1  UNL1        0.1598
      7 C          50.3547   12.0239  -16.9476 C.2     1  UNL1        0.2458
      8 O          49.8970   10.8492  -16.9312 O.2     1  UNL1       -0.2701
      9 N          50.7391   12.6584  -15.7124 N.am    1  UNL1       -0.3040
     10 H          51.4558   13.4171  -15.7625 H       1  UNL1        0.1496
     11 C          50.1693   12.3255  -14.3920 C.3     1  UNL1        0.0572
     12 C          48.7005   11.8804  -14.5387 C.3     1  UNL1        0.0196
     13 C          50.9989   11.2138  -13.7226 C.3     1  UNL1        0.0196
     14 C          50.2110   13.5806  -13.4962 C.3     1  UNL1        0.0196
     15 N          48.3421   13.7006  -21.1471 N.pl3   1  UNL1       -0.2120
     16 H          47.8881   14.6371  -21.2303 H       1  UNL1        0.1738
     17 S          47.3551   12.3111  -21.4382 S.O2    1  UNL1        0.0745
     18 O          46.1065   12.3810  -20.6051 O.2     1  UNL1       -0.1499
     19 O          48.1148   11.0788  -21.0339 O.2     1  UNL1       -0.1499
     20 C          46.1962   12.0098  -25.8754 C.ar    1  UNL1       -0.0216
     21 C          45.3789   12.6805  -24.9438 C.ar    1  UNL1       -0.0028
     22 C          45.7678   12.7878  -23.6077 C.ar    1  UNL1        0.0207
     23 C          46.9779   12.2373  -23.1658 C.ar    1  UNL1        0.1356
     24 C          47.8016   11.5609  -24.0909 C.ar    1  UNL1        0.0762
     25 CL         49.3167   10.7946  -23.6259 Cl      1  UNL1       -0.0809
     26 C          47.4069   11.4578  -25.4300 C.ar    1  UNL1        0.0085
     27 C          45.9370   13.0264  -29.6296 C.3     1  UNL1        0.0003
     28 C          46.6740   12.5919  -28.3629 C.3     1  UNL1        0.0044
     29 C          46.8359   11.0801  -28.2139 C.3     1  UNL1        0.0047
     30 C          45.8336   11.8308  -27.3404 C.3     1  UNL1        0.0224
     31 O          50.9669   14.5099  -22.0518 O.3     1  UNL1       -0.4513
     32 C          51.3491   13.8039  -23.2024 C.ar    1  UNL1        0.1580
     33 C          52.4834   12.9735  -23.2110 C.ar    1  UNL1        0.0677
     34 C          52.8454   12.2806  -24.3692 C.ar    1  UNL1        0.1398
     35 F          53.9430   11.4824  -24.3471 F       1  UNL1       -0.2044
     36 C          52.0740   12.4056  -25.5379 C.ar    1  UNL1        0.0175
     37 C          50.9221   13.2078  -25.5174 C.ar    1  UNL1        0.0130
     38 C          50.5609   13.9017  -24.3577 C.ar    1  UNL1        0.0919
     39 CL         49.1201   14.9066  -24.3697 Cl      1  UNL1       -0.0791
     40 C          52.4314   11.6370  -26.7812 C.3     1  UNL1        0.1382
     41 C          52.1277   10.1866  -26.5892 C.2     1  UNL1        0.3234
     42 O          51.6955    9.7790  -25.4768 O.2     1  UNL1       -0.2497
     43 O          52.3846    9.2912  -27.6336 O.3     1  UNL1       -0.4215
     44 C          51.7063    9.3097  -28.8898 C.3     1  UNL1        0.3207
     45 O          50.3157    9.5468  -28.6654 O.3     1  UNL1       -0.3070
     46 C          49.4670    8.4057  -28.7520 C.3     1  UNL1        0.2456
     47 C          49.5766    7.6587  -30.1189 C.3     1  UNL1        0.1781
     48 O          48.5685    8.0832  -31.0035 O.3     1  UNL1       -0.3790
     49 C          50.9617    7.8271  -30.7790 C.3     1  UNL1        0.1733
     50 O          51.2638    6.7273  -31.6030 O.3     1  UNL1       -0.3793
     51 C          52.0343    8.0303  -29.7029 C.3     1  UNL1        0.2106
     52 O          53.3165    8.1050  -30.2767 O.3     1  UNL1       -0.3766
     53 H          48.6577    9.0668  -31.1102 H       1  UNL1        0.2106
     54 H          51.3707    5.9308  -31.0193 H       1  UNL1        0.2105
     55 H          53.3154    8.8539  -30.9289 H       1  UNL1        0.2107
     56 C          49.5941    7.4798  -27.5585 C.2     1  UNL1        0.3439
     57 O          49.3559    6.2486  -27.6613 O.2     1  UNL1       -0.2475
     58 O          50.0260    7.9779  -26.3318 O.3     1  UNL1       -0.4785
     59 H          50.2736    8.9533  -26.2166 H       1  UNL1        0.2951
@<TRIPOS>BOND
     1    27    28    1
     2    28    29    1
     3    29    30    1
     4    30    20    1
     5    20    21   ar
     6    21    22   ar
     7    22    23   ar
     8    23    17    1
     9    17    18    2
    10    17    19    2
    11    17    15    1
    12    15     1    1
    13     1     2   ar
    14     2     3   ar
    15     3     7    1
    16     7     8    2
    17     7     9   am
    18     9    11    1
    19    11    12    1
    20    11    13    1
    21    11    14    1
    22     3     4   ar
    23     4     5   ar
    24     5     6   ar
    25     6    31    1
    26    31    32    1
    27    32    33   ar
    28    33    34   ar
    29    34    35    1
    30    34    36   ar
    31    36    40    1
    32    40    41    1
    33    41    42    2
    34    41    43    1
    35    43    44    1
    36    44    45    1
    37    45    46    1
    38    46    56    1
    39    56    57    2
    40    56    58    1
    41    46    47    1
    42    47    48    1
    43    47    49    1
    44    49    50    1
    45    49    51    1
    46    51    52    1
    47    36    37   ar
    48    37    38   ar
    49    38    39    1
    50    23    24   ar
    51    24    25    1
    52    24    26   ar
    53    30    28    1
    54    26    20   ar
    55     6     1   ar
    56    38    32   ar
    57    51    44    1
    58    15    16    1
    59     9    10    1
    60    58    59    1
    61    48    53    1
    62    50    54    1
    63    52    55    1
