@<TRIPOS>MOLECULE
*****
 46 51 0 0 0
SMALL
GASTEIGER

@<TRIPOS>ATOM
      1 C          60.3287   89.6589    5.3560 C.ar    1  UNL1        0.0702
      2 C          59.0245   90.1163    5.1375 C.ar    1  UNL1        0.0191
      3 C          58.7005   90.7813    3.9542 C.ar    1  UNL1        0.0356
      4 C          59.6963   91.0029    2.9875 C.ar    1  UNL1        0.1318
      5 N          60.9670   90.5797    3.2396 N.ar    1  UNL1       -0.2279
      6 C          61.3041   89.9266    4.3829 C.ar    1  UNL1        0.1149
      7 N          59.4036   91.6899    1.7517 N.pl3   1  UNL1       -0.2932
      8 C          60.1019   92.9377    1.3975 C.3     1  UNL1        0.0923
      9 C          59.2359   93.8106    0.4815 C.3     1  UNL1        0.0252
     10 C          58.7684   93.0633   -0.7953 C.3     1  UNL1        0.0472
     11 C          58.6625   91.5325   -0.5910 C.3     1  UNL1        0.0252
     12 C          58.3553   91.1657    0.8628 C.3     1  UNL1        0.0923
     13 C          59.6816   93.3759   -1.9991 C.3     1  UNL1        0.2054
     14 O          60.9610   93.8476   -1.5718 O.3     1  UNL1       -0.4755
     15 C          62.0648   93.0416   -1.2468 C.ar    1  UNL1        0.1388
     16 C          62.2741   91.8817   -1.9997 C.ar    1  UNL1        0.0369
     17 C          63.3583   91.0462   -1.7282 C.ar    1  UNL1        0.0033
     18 C          64.2439   91.3594   -0.6957 C.ar    1  UNL1        0.0066
     19 C          64.0513   92.5140    0.0825 C.ar    1  UNL1        0.0785
     20 C          62.9644   93.3597   -0.2087 C.ar    1  UNL1        0.0433
     21 C          65.0001   92.8350    1.1764 C.2     1  UNL1        0.3381
     22 O          64.7998   93.8460    1.9009 O.2     1  UNL1       -0.2451
     23 O          66.1295   92.0543    1.4210 O.3     1  UNL1       -0.4771
     24 H          66.4090   91.2946    0.8139 H       1  UNL1        0.2954
     25 C          60.0844   87.7419    7.0047 C.2     1  UNL1        0.2839
     26 O          59.3094   87.1078    6.2400 O.2     1  UNL1       -0.2665
     27 N          60.6502   88.9982    6.5912 N.am    1  UNL1       -0.2766
     28 H          61.2936   89.4981    7.2427 H       1  UNL1        0.1553
     29 C          61.5472   85.0804   12.1906 C.ar    1  UNL1        0.0002
     30 C          60.8785   86.2345   12.6820 C.ar    1  UNL1        0.0031
     31 C          60.3460   87.1900   11.7987 C.ar    1  UNL1        0.0375
     32 C          60.4928   86.9701   10.4336 C.ar    1  UNL1        0.1452
     33 O          60.0725   87.7321    9.4534 O.2     1  UNL1       -0.4492
     34 C          60.4109   87.1527    8.3148 C.ar    1  UNL1        0.1946
     35 C          61.1088   85.9657    8.5708 C.ar    1  UNL1        0.0202
     36 C          61.7379   85.0204    7.5927 C.3     1  UNL1        0.0345
     37 C          61.1339   85.8637    9.9470 C.ar    1  UNL1        0.0337
     38 C          61.6763   84.8964   10.7929 C.ar    1  UNL1        0.0028
     39 C          63.1647   82.1769   14.9284 C.ar    1  UNL1       -0.0222
     40 C          61.8026   82.1541   14.5946 C.ar    1  UNL1       -0.0043
     41 C          61.2762   83.0989   13.7091 C.ar    1  UNL1       -0.0003
     42 C          62.1056   84.0779   13.1329 C.ar    1  UNL1       -0.0000
     43 C          63.4736   84.0879   13.4601 C.ar    1  UNL1       -0.0003
     44 C          63.9985   83.1431   14.3464 C.ar    1  UNL1       -0.0043
     45 C          63.7355   79.7645   15.1950 C.3     1  UNL1        0.0050
     46 C          63.7371   81.1388   15.8560 C.3     1  UNL1        0.0264
@<TRIPOS>BOND
     1    45    46    1
     2    46    39    1
     3    39    40   ar
     4    40    41   ar
     5    41    42   ar
     6    42    29    1
     7    29    30   ar
     8    30    31   ar
     9    31    32   ar
    10    32    33   ar
    11    33    34   ar
    12    34    25    1
    13    25    26    2
    14    25    27   am
    15    27     1    1
    16     1     2   ar
    17     2     3   ar
    18     3     4   ar
    19     4     7    1
    20     7     8    1
    21     8     9    1
    22     9    10    1
    23    10    13    1
    24    13    14    1
    25    14    15    1
    26    15    16   ar
    27    16    17   ar
    28    17    18   ar
    29    18    19   ar
    30    19    21    1
    31    21    22    2
    32    21    23    1
    33    19    20   ar
    34    10    11    1
    35    11    12    1
    36     4     5   ar
    37     5     6   ar
    38    34    35   ar
    39    35    36    1
    40    35    37   ar
    41    37    38   ar
    42    42    43   ar
    43    43    44   ar
    44    44    39   ar
    45    38    29   ar
    46    37    32   ar
    47     6     1   ar
    48    12     7    1
    49    20    15   ar
    50    27    28    1
    51    23    24    1
@<TRIPOS>MOLECULE
*****
 46 51 0 0 0
SMALL
GASTEIGER

@<TRIPOS>ATOM
      1 C          61.8101   86.5190    9.0510 C.ar    1  UNL1        0.0702
      2 C          61.4670   87.0206   10.3114 C.ar    1  UNL1        0.0191
      3 C          61.5675   86.2103   11.4431 C.ar    1  UNL1        0.0356
      4 C          62.0017   84.8804   11.3081 C.ar    1  UNL1        0.1318
      5 N          62.2955   84.4047   10.0653 N.ar    1  UNL1       -0.2279
      6 C          62.2088   85.1771    8.9502 C.ar    1  UNL1        0.1149
      7 N          62.1161   84.0079   12.4529 N.pl3   1  UNL1       -0.2932
      8 C          60.9512   83.2533   12.9466 C.3     1  UNL1        0.0923
      9 C          61.0805   82.9632   14.4467 C.3     1  UNL1        0.0252
     10 C          62.4001   82.2304   14.8059 C.3     1  UNL1        0.0472
     11 C          63.5467   82.5350   13.8116 C.3     1  UNL1        0.0252
     12 C          63.3985   83.9155   13.1675 C.3     1  UNL1        0.0923
     13 C          62.1872   80.7065   14.9193 C.3     1  UNL1        0.2054
     14 O          62.6127   80.0328   13.7331 O.3     1  UNL1       -0.4755
     15 C          61.8731   79.9217   12.5438 C.ar    1  UNL1        0.1388
     16 C          62.4175   80.4727   11.3792 C.ar    1  UNL1        0.0369
     17 C          61.7324   80.3863   10.1667 C.ar    1  UNL1        0.0033
     18 C          60.4908   79.7512   10.1061 C.ar    1  UNL1        0.0066
     19 C          59.9167   79.1973   11.2636 C.ar    1  UNL1        0.0785
     20 C          60.6220   79.2747   12.4793 C.ar    1  UNL1        0.0433
     21 C          58.5969   78.5251   11.1850 C.2     1  UNL1        0.3381
     22 O          57.5941   79.1636   10.7682 O.2     1  UNL1       -0.2451
     23 O          58.4245   77.1983   11.5784 O.3     1  UNL1       -0.4771
     24 H          59.1587   76.6613   12.0217 H       1  UNL1        0.2954
     25 C          60.4770   88.0763    7.5509 C.2     1  UNL1        0.2839
     26 O          59.4785   88.0539    8.3189 O.2     1  UNL1       -0.2665
     27 N          61.6767   87.3602    7.8933 N.am    1  UNL1       -0.2766
     28 H          62.4899   87.4016    7.2413 H       1  UNL1        0.1553
     29 C          59.7960   91.2578    2.4980 C.ar    1  UNL1        0.0002
     30 C          61.2073   91.3312    2.6512 C.ar    1  UNL1        0.0031
     31 C          61.8477   90.7117    3.7388 C.ar    1  UNL1        0.0375
     32 C          61.0590   90.0262    4.6562 C.ar    1  UNL1        0.1452
     33 O          61.4568   89.3867    5.7290 O.2     1  UNL1       -0.4492
     34 C          60.3897   88.8702    6.3130 C.ar    1  UNL1        0.1946
     35 C          59.2375   89.2141    5.5949 C.ar    1  UNL1        0.0202
     36 C          57.8067   88.9073    5.9183 C.3     1  UNL1        0.0345
     37 C          59.6998   89.9476    4.5210 C.ar    1  UNL1        0.0337
     38 C          59.0305   90.5512    3.4564 C.ar    1  UNL1        0.0028
     39 C          57.8702   93.1629   -0.8492 C.ar    1  UNL1       -0.0222
     40 C          57.4218   91.9159   -0.3894 C.ar    1  UNL1       -0.0043
     41 C          58.0492   91.2951    0.6944 C.ar    1  UNL1       -0.0003
     42 C          59.1306   91.9159    1.3452 C.ar    1  UNL1       -0.0000
     43 C          59.5676   93.1728    0.8892 C.ar    1  UNL1       -0.0003
     44 C          58.9399   93.7919   -0.1954 C.ar    1  UNL1       -0.0043
     45 C          55.6588   93.7484   -1.8409 C.3     1  UNL1        0.0050
     46 C          57.1728   93.8457   -1.9952 C.3     1  UNL1        0.0264
@<TRIPOS>BOND
     1    45    46    1
     2    46    39    1
     3    39    40   ar
     4    40    41   ar
     5    41    42   ar
     6    42    29    1
     7    29    30   ar
     8    30    31   ar
     9    31    32   ar
    10    32    33   ar
    11    33    34   ar
    12    34    25    1
    13    25    26    2
    14    25    27   am
    15    27     1    1
    16     1     2   ar
    17     2     3   ar
    18     3     4   ar
    19     4     7    1
    20     7     8    1
    21     8     9    1
    22     9    10    1
    23    10    13    1
    24    13    14    1
    25    14    15    1
    26    15    16   ar
    27    16    17   ar
    28    17    18   ar
    29    18    19   ar
    30    19    21    1
    31    21    22    2
    32    21    23    1
    33    19    20   ar
    34    10    11    1
    35    11    12    1
    36     4     5   ar
    37     5     6   ar
    38    34    35   ar
    39    35    36    1
    40    35    37   ar
    41    37    38   ar
    42    42    43   ar
    43    43    44   ar
    44    44    39   ar
    45    38    29   ar
    46    37    32   ar
    47     6     1   ar
    48    12     7    1
    49    20    15   ar
    50    27    28    1
    51    23    24    1
