@<TRIPOS>MOLECULE
*****
 46 50 0 0 0
SMALL
GASTEIGER

@<TRIPOS>ATOM
      1 C         -28.2979   51.2922   -5.9955 C.3     1  UNL1        0.1294
      2 O         -29.3444   52.0453   -5.4282 O.3     1  UNL1       -0.3808
      3 C         -27.4186   52.2108   -6.8624 C.3     1  UNL1        0.0622
      4 C         -27.0597   51.3944   -8.1102 C.3     1  UNL1        0.1562
      5 N         -28.0274   50.3068   -8.1630 N.am    1  UNL1       -0.2544
      6 C         -28.0225   49.2869   -9.1794 C.2     1  UNL1        0.3081
      7 O         -27.0517   49.2124   -9.9810 O.2     1  UNL1       -0.2522
      8 N         -29.1139   48.3573   -9.2887 N.am    1  UNL1       -0.2681
      9 C         -28.8928   50.2743   -6.9935 C.3     1  UNL1        0.1264
     10 H         -29.9300   51.4123   -4.9343 H       1  UNL1        0.2107
     11 H         -29.6987   48.1662   -8.4456 H       1  UNL1        0.1564
     12 C         -26.6784   48.6269   -3.7114 C.ar    1  UNL1        0.0346
     13 C         -27.5053   49.2463   -4.6616 C.ar    1  UNL1        0.0006
     14 C         -27.4292   50.6366   -4.9052 C.ar    1  UNL1        0.0308
     15 C         -26.4438   51.3792   -4.2131 C.ar    1  UNL1        0.1406
     16 F         -26.2402   52.6958   -4.4711 F       1  UNL1       -0.2044
     17 C         -25.6363   50.7652   -3.2525 C.ar    1  UNL1        0.0588
     18 C         -25.7605   49.4019   -2.9880 C.ar    1  UNL1        0.1407
     19 F         -24.9720   48.8355   -2.0394 F       1  UNL1       -0.2043
     20 C         -26.8244   47.1564   -3.4323 C.3     1  UNL1        0.1709
     21 C         -25.4100   45.4347   -2.8525 C.3     1  UNL1        0.1746
     22 O         -25.6076   46.5114   -3.7408 O.3     1  UNL1       -0.3463
     23 C         -29.4423   47.6505  -10.4967 C.ar    1  UNL1        0.0516
     24 C         -30.1936   48.2975  -11.4900 C.ar    1  UNL1        0.0156
     25 C         -30.4968   47.6434  -12.6879 C.ar    1  UNL1        0.0127
     26 C         -30.0388   46.3413  -12.9110 C.ar    1  UNL1        0.0578
     27 CL        -30.4156   45.5235  -14.4162 Cl      1  UNL1       -0.0822
     28 C         -29.2702   45.6965  -11.9371 C.ar    1  UNL1        0.0127
     29 C         -28.9667   46.3477  -10.7376 C.ar    1  UNL1        0.0156
     30 C         -27.0680   52.2404   -9.3691 C.2     1  UNL1        0.2454
     31 O         -28.0979   52.9135   -9.6393 O.2     1  UNL1       -0.2730
     32 N         -25.9906   52.2136  -10.3175 N.am    1  UNL1       -0.2680
     33 H         -26.2268   52.2218  -11.3351 H       1  UNL1        0.1563
     34 C         -24.6116   52.1789   -9.9406 C.ar    1  UNL1        0.1346
     35 C         -24.1863   51.3364   -8.9086 C.ar    1  UNL1        0.0406
     36 C         -22.8371   51.3195   -8.5507 C.ar    1  UNL1        0.0736
     37 C         -21.9156   52.1210   -9.2421 C.ar    1  UNL1        0.2466
     38 C         -22.3814   52.9250  -10.2928 C.ar    1  UNL1        0.1691
     39 N         -23.7013   52.9319  -10.6144 N.ar    1  UNL1       -0.2228
     40 N         -20.5240   52.1413   -8.8658 N.am    1  UNL1       -0.0841
     41 C         -20.1731   52.7107   -7.6711 C.2     1  UNL1        0.2905
     42 C         -18.8387   52.7449   -7.2626 C.2     1  UNL1        0.0758
     43 C         -17.8574   52.1944   -8.0829 C.2     1  UNL1        0.0161
     44 C         -18.2169   51.6209   -9.3008 C.2     1  UNL1        0.1156
     45 C         -19.5619   51.6038   -9.6864 C.2     1  UNL1        0.4230
     46 O         -19.8717   51.1030  -10.8022 O.2     1  UNL1       -0.2135
@<TRIPOS>BOND
     1    21    22    1
     2    22    20    1
     3    20    12    1
     4    12    13   ar
     5    13    14   ar
     6    14     1    1
     7     1     2    1
     8     1     3    1
     9     3     4    1
    10     4    30    1
    11    30    31    2
    12    30    32   am
    13    32    34    1
    14    34    35   ar
    15    35    36   ar
    16    36    37   ar
    17    37    40    1
    18    40    41    1
    19    41    42    2
    20    42    43    1
    21    43    44    2
    22    44    45    1
    23    45    46    2
    24    37    38   ar
    25    38    39   ar
    26     4     5    1
    27     5     6   am
    28     6     7    2
    29     6     8   am
    30     8    23    1
    31    23    24   ar
    32    24    25   ar
    33    25    26   ar
    34    26    27    1
    35    26    28   ar
    36    28    29   ar
    37     5     9    1
    38    14    15   ar
    39    15    16    1
    40    15    17   ar
    41    17    18   ar
    42    18    19    1
    43    18    12   ar
    44     9     1    1
    45    39    34   ar
    46    29    23   ar
    47    45    40    1
    48     2    10    1
    49    32    33    1
    50     8    11    1
@<TRIPOS>MOLECULE
*****
 46 50 0 0 0
SMALL
GASTEIGER

@<TRIPOS>ATOM
      1 C         -28.2332   51.3118   -5.9839 C.3     1  UNL1        0.1294
      2 O         -29.2776   52.0656   -5.4137 O.3     1  UNL1       -0.3808
      3 C         -27.3566   52.2295   -6.8544 C.3     1  UNL1        0.0622
      4 C         -27.0021   51.4120   -8.1029 C.3     1  UNL1        0.1562
      5 N         -27.9702   50.3246   -8.1515 N.am    1  UNL1       -0.2544
      6 C         -27.9691   49.3039   -9.1671 C.2     1  UNL1        0.3081
      7 O         -27.0009   49.2286   -9.9719 O.2     1  UNL1       -0.2522
      8 N         -29.0610   48.3746   -9.2720 N.am    1  UNL1       -0.2681
      9 C         -28.8317   50.2933   -6.9792 C.3     1  UNL1        0.1264
     10 H         -29.8617   51.4331   -4.9173 H       1  UNL1        0.2107
     11 H         -29.6431   48.1843   -8.4268 H       1  UNL1        0.1564
     12 C         -25.5519   50.8152   -3.2439 C.ar    1  UNL1        0.0346
     13 C         -26.3165   51.3802   -4.2766 C.ar    1  UNL1        0.0006
     14 C         -27.3611   50.6568   -4.8960 C.ar    1  UNL1        0.0308
     15 C         -27.6631   49.3678   -4.3972 C.ar    1  UNL1        0.1406
     16 F         -28.7178   48.6565   -4.8695 F       1  UNL1       -0.2044
     17 C         -26.8874   48.7989   -3.3840 C.ar    1  UNL1        0.0588
     18 C         -25.8274   49.5073   -2.8196 C.ar    1  UNL1        0.1407
     19 F         -25.0826   48.9236   -1.8465 F       1  UNL1       -0.2043
     20 C         -24.4088   51.5878   -2.6457 C.3     1  UNL1        0.1709
     21 C         -23.6186   53.7271   -2.3294 C.3     1  UNL1        0.1746
     22 O         -24.7699   52.9501   -2.5708 O.3     1  UNL1       -0.3463
     23 C         -29.3937   47.6668  -10.4783 C.ar    1  UNL1        0.0516
     24 C         -30.1653   48.3064  -11.4609 C.ar    1  UNL1        0.0156
     25 C         -30.4733   47.6517  -12.6572 C.ar    1  UNL1        0.0127
     26 C         -30.0000   46.3568  -12.8897 C.ar    1  UNL1        0.0578
     27 CL        -30.3830   45.5383  -14.3930 Cl      1  UNL1       -0.0822
     28 C         -29.2113   45.7197  -11.9268 C.ar    1  UNL1        0.0127
     29 C         -28.9030   46.3715  -10.7289 C.ar    1  UNL1        0.0156
     30 C         -27.0144   52.2570   -9.3623 C.2     1  UNL1        0.2454
     31 O         -28.0440   52.9324   -9.6283 O.2     1  UNL1       -0.2730
     32 N         -25.9416   52.2269  -10.3159 N.am    1  UNL1       -0.2680
     33 H         -26.1826   52.2349  -11.3324 H       1  UNL1        0.1563
     34 C         -24.5609   52.1893   -9.9455 C.ar    1  UNL1        0.1346
     35 C         -24.1354   51.3599   -8.9031 C.ar    1  UNL1        0.0406
     36 C         -22.7845   51.3399   -8.5518 C.ar    1  UNL1        0.0736
     37 C         -21.8617   52.1251   -9.2599 C.ar    1  UNL1        0.2466
     38 C         -22.3279   52.9161  -10.3202 C.ar    1  UNL1        0.1691
     39 N         -23.6495   52.9264  -10.6352 N.ar    1  UNL1       -0.2228
     40 N         -20.4681   52.1423   -8.8910 N.am    1  UNL1       -0.0841
     41 C         -20.1086   52.7197   -7.7027 C.2     1  UNL1        0.2905
     42 C         -18.7718   52.7514   -7.3014 C.2     1  UNL1        0.0758
     43 C         -17.7973   52.1902   -8.1225 C.2     1  UNL1        0.0161
     44 C         -18.1656   51.6086   -9.3339 C.2     1  UNL1        0.1156
     45 C         -19.5126   51.5943   -9.7123 C.2     1  UNL1        0.4230
     46 O         -19.8304   51.0860  -10.8225 O.2     1  UNL1       -0.2135
@<TRIPOS>BOND
     1    21    22    1
     2    22    20    1
     3    20    12    1
     4    12    13   ar
     5    13    14   ar
     6    14     1    1
     7     1     2    1
     8     1     3    1
     9     3     4    1
    10     4    30    1
    11    30    31    2
    12    30    32   am
    13    32    34    1
    14    34    35   ar
    15    35    36   ar
    16    36    37   ar
    17    37    40    1
    18    40    41    1
    19    41    42    2
    20    42    43    1
    21    43    44    2
    22    44    45    1
    23    45    46    2
    24    37    38   ar
    25    38    39   ar
    26     4     5    1
    27     5     6   am
    28     6     7    2
    29     6     8   am
    30     8    23    1
    31    23    24   ar
    32    24    25   ar
    33    25    26   ar
    34    26    27    1
    35    26    28   ar
    36    28    29   ar
    37     5     9    1
    38    14    15   ar
    39    15    16    1
    40    15    17   ar
    41    17    18   ar
    42    18    19    1
    43    18    12   ar
    44     9     1    1
    45    39    34   ar
    46    29    23   ar
    47    45    40    1
    48     2    10    1
    49    32    33    1
    50     8    11    1
@<TRIPOS>MOLECULE
*****
 46 50 0 0 0
SMALL
GASTEIGER

@<TRIPOS>ATOM
      1 C         -29.3376   50.4570   -9.6477 C.3     1  UNL1        0.1294
      2 O         -30.3744   51.2558  -10.1683 O.3     1  UNL1       -0.3808
      3 C         -29.2420   50.6706   -8.1267 C.3     1  UNL1        0.0622
      4 C         -27.7438   50.7021   -7.7996 C.3     1  UNL1        0.1562
      5 N         -27.0684   50.9596   -9.0644 N.am    1  UNL1       -0.2544
      6 C         -25.6371   51.0396   -9.1994 C.2     1  UNL1        0.3081
      7 O         -24.9017   50.7163   -8.2271 O.2     1  UNL1       -0.2522
      8 N         -25.0418   51.4864  -10.4295 N.am    1  UNL1       -0.2681
      9 C         -27.9856   50.9666  -10.1941 C.3     1  UNL1        0.1264
     10 H         -30.3632   51.1478  -11.1562 H       1  UNL1        0.2107
     11 H         -25.5845   51.3893  -11.3158 H       1  UNL1        0.1564
     12 C         -29.8855   46.6654   -9.1301 C.ar    1  UNL1        0.0346
     13 C         -29.6037   48.0189   -8.8872 C.ar    1  UNL1        0.0006
     14 C         -29.5856   48.9644   -9.9378 C.ar    1  UNL1        0.0308
     15 C         -29.9303   48.5212  -11.2363 C.ar    1  UNL1        0.1406
     16 F         -30.0375   49.3890  -12.2740 F       1  UNL1       -0.2044
     17 C         -30.1896   47.1702  -11.4799 C.ar    1  UNL1        0.0588
     18 C         -30.1523   46.2421  -10.4401 C.ar    1  UNL1        0.1407
     19 F         -30.3949   44.9340  -10.7092 F       1  UNL1       -0.2043
     20 C         -29.8385   45.6733   -8.0010 C.3     1  UNL1        0.1709
     21 C         -28.5225   45.8841   -6.1235 C.3     1  UNL1        0.1746
     22 O         -28.5183   45.6090   -7.5062 O.3     1  UNL1       -0.3463
     23 C         -23.7213   52.0475  -10.5196 C.ar    1  UNL1        0.0516
     24 C         -22.6297   51.2017  -10.7700 C.ar    1  UNL1        0.0156
     25 C         -21.3403   51.7273  -10.8959 C.ar    1  UNL1        0.0127
     26 C         -21.1316   53.1056  -10.7882 C.ar    1  UNL1        0.0578
     27 CL        -19.5142   53.7644  -10.9514 Cl      1  UNL1       -0.0822
     28 C         -22.2157   53.9590  -10.5617 C.ar    1  UNL1        0.0127
     29 C         -23.5060   53.4360  -10.4339 C.ar    1  UNL1        0.0156
     30 C         -27.4109   51.7375   -6.7425 C.2     1  UNL1        0.2454
     31 O         -27.3472   52.9493   -7.0807 O.2     1  UNL1       -0.2730
     32 N         -27.0572   51.3748   -5.3992 N.am    1  UNL1       -0.2680
     33 H         -26.2804   51.8960   -4.9341 H       1  UNL1        0.1563
     34 C         -27.7152   50.3390   -4.6650 C.ar    1  UNL1        0.1346
     35 C         -26.9661   49.3453   -4.0270 C.ar    1  UNL1        0.0406
     36 C         -27.6256   48.3390   -3.3190 C.ar    1  UNL1        0.0736
     37 C         -29.0261   48.3452   -3.2275 C.ar    1  UNL1        0.2466
     38 C         -29.7349   49.3803   -3.8547 C.ar    1  UNL1        0.1691
     39 N         -29.0701   50.3418   -4.5471 N.ar    1  UNL1       -0.2228
     40 N         -29.7265   47.2968   -2.5283 N.am    1  UNL1       -0.0841
     41 C         -30.4851   46.4158   -3.2515 C.2     1  UNL1        0.2905
     42 C         -31.1735   45.3802   -2.6170 C.2     1  UNL1        0.0758
     43 C         -31.0860   45.2469   -1.2338 C.2     1  UNL1        0.0161
     44 C         -30.3180   46.1486   -0.4999 C.2     1  UNL1        0.1156
     45 C         -29.6416   47.1791   -1.1621 C.2     1  UNL1        0.4230
     46 O         -28.9687   48.0034   -0.4839 O.2     1  UNL1       -0.2135
@<TRIPOS>BOND
     1    21    22    1
     2    22    20    1
     3    20    12    1
     4    12    13   ar
     5    13    14   ar
     6    14     1    1
     7     1     2    1
     8     1     3    1
     9     3     4    1
    10     4    30    1
    11    30    31    2
    12    30    32   am
    13    32    34    1
    14    34    35   ar
    15    35    36   ar
    16    36    37   ar
    17    37    40    1
    18    40    41    1
    19    41    42    2
    20    42    43    1
    21    43    44    2
    22    44    45    1
    23    45    46    2
    24    37    38   ar
    25    38    39   ar
    26     4     5    1
    27     5     6   am
    28     6     7    2
    29     6     8   am
    30     8    23    1
    31    23    24   ar
    32    24    25   ar
    33    25    26   ar
    34    26    27    1
    35    26    28   ar
    36    28    29   ar
    37     5     9    1
    38    14    15   ar
    39    15    16    1
    40    15    17   ar
    41    17    18   ar
    42    18    19    1
    43    18    12   ar
    44     9     1    1
    45    39    34   ar
    46    29    23   ar
    47    45    40    1
    48     2    10    1
    49    32    33    1
    50     8    11    1
@<TRIPOS>MOLECULE
*****
 46 50 0 0 0
SMALL
GASTEIGER

@<TRIPOS>ATOM
      1 C         -29.0569   50.3369   -9.7447 C.3     1  UNL1        0.1294
      2 O         -30.0626   51.1136  -10.3526 O.3     1  UNL1       -0.3808
      3 C         -29.0660   50.5864   -8.2262 C.3     1  UNL1        0.0622
      4 C         -27.5936   50.6399   -7.7998 C.3     1  UNL1        0.1562
      5 N         -26.8364   50.8745   -9.0220 N.am    1  UNL1       -0.2544
      6 C         -25.3999   50.9652   -9.0622 C.2     1  UNL1        0.3081
      7 O         -24.7293   50.6715   -8.0353 O.2     1  UNL1       -0.2522
      8 N         -24.7266   51.3892  -10.2597 N.am    1  UNL1       -0.2681
      9 C         -27.6752   50.8467  -10.2107 C.3     1  UNL1        0.1264
     10 H         -29.9838   50.9830  -11.3346 H       1  UNL1        0.2107
     11 H         -25.2074   51.2665  -11.1779 H       1  UNL1        0.1564
     12 C         -30.0644   47.0353  -11.4848 C.ar    1  UNL1        0.0346
     13 C         -29.9127   48.4010  -11.1984 C.ar    1  UNL1        0.0006
     14 C         -29.2729   48.8358  -10.0154 C.ar    1  UNL1        0.0308
     15 C         -28.7240   47.8536   -9.1577 C.ar    1  UNL1        0.1406
     16 F         -28.0046   48.1967   -8.0594 F       1  UNL1       -0.2044
     17 C         -28.8945   46.4947   -9.4335 C.ar    1  UNL1        0.0588
     18 C         -29.5740   46.0833  -10.5794 C.ar    1  UNL1        0.1407
     19 F         -29.7363   44.7563  -10.8142 F       1  UNL1       -0.2043
     20 C         -30.8024   46.6041  -12.7221 C.3     1  UNL1        0.1709
     21 C         -30.4805   45.9376  -14.9023 C.3     1  UNL1        0.1746
     22 O         -29.8789   46.0465  -13.6321 O.3     1  UNL1       -0.3463
     23 C         -23.4075   51.9607  -10.2739 C.ar    1  UNL1        0.0516
     24 C         -22.9778   52.6717  -11.4052 C.ar    1  UNL1        0.0156
     25 C         -21.7125   53.2660  -11.4300 C.ar    1  UNL1        0.0127
     26 C         -20.8702   53.1685  -10.3183 C.ar    1  UNL1        0.0578
     27 CL        -19.2851   53.9186  -10.3488 Cl      1  UNL1       -0.0822
     28 C         -21.2982   52.4819   -9.1779 C.ar    1  UNL1        0.0127
     29 C         -22.5624   51.8854   -9.1508 C.ar    1  UNL1        0.0156
     30 C         -27.3411   51.7025   -6.7474 C.2     1  UNL1        0.2454
     31 O         -27.3254   52.9119   -7.0997 O.2     1  UNL1       -0.2730
     32 N         -27.0094   51.3731   -5.3900 N.am    1  UNL1       -0.2680
     33 H         -26.2722   51.9365   -4.9100 H       1  UNL1        0.1563
     34 C         -27.6383   50.3156   -4.6611 C.ar    1  UNL1        0.1346
     35 C         -26.8618   49.3788   -3.9718 C.ar    1  UNL1        0.0406
     36 C         -27.4927   48.3503   -3.2699 C.ar    1  UNL1        0.0736
     37 C         -28.8938   48.2782   -3.2357 C.ar    1  UNL1        0.2466
     38 C         -29.6329   49.2588   -3.9133 C.ar    1  UNL1        0.1691
     39 N         -28.9949   50.2433   -4.5986 N.ar    1  UNL1       -0.2228
     40 N         -29.5628   47.2051   -2.5432 N.am    1  UNL1       -0.0841
     41 C         -30.1618   46.2185   -3.2798 C.2     1  UNL1        0.2905
     42 C         -30.8135   45.1559   -2.6512 C.2     1  UNL1        0.0758
     43 C         -30.8536   45.1040   -1.2603 C.2     1  UNL1        0.0161
     44 C         -30.2481   46.1125   -0.5136 C.2     1  UNL1        0.1156
     45 C         -29.6050   47.1675   -1.1704 C.2     1  UNL1        0.4230
     46 O         -29.0812   48.0870   -0.4832 O.2     1  UNL1       -0.2135
@<TRIPOS>BOND
     1    21    22    1
     2    22    20    1
     3    20    12    1
     4    12    13   ar
     5    13    14   ar
     6    14     1    1
     7     1     2    1
     8     1     3    1
     9     3     4    1
    10     4    30    1
    11    30    31    2
    12    30    32   am
    13    32    34    1
    14    34    35   ar
    15    35    36   ar
    16    36    37   ar
    17    37    40    1
    18    40    41    1
    19    41    42    2
    20    42    43    1
    21    43    44    2
    22    44    45    1
    23    45    46    2
    24    37    38   ar
    25    38    39   ar
    26     4     5    1
    27     5     6   am
    28     6     7    2
    29     6     8   am
    30     8    23    1
    31    23    24   ar
    32    24    25   ar
    33    25    26   ar
    34    26    27    1
    35    26    28   ar
    36    28    29   ar
    37     5     9    1
    38    14    15   ar
    39    15    16    1
    40    15    17   ar
    41    17    18   ar
    42    18    19    1
    43    18    12   ar
    44     9     1    1
    45    39    34   ar
    46    29    23   ar
    47    45    40    1
    48     2    10    1
    49    32    33    1
    50     8    11    1
@<TRIPOS>MOLECULE
*****
 46 50 0 0 0
SMALL
GASTEIGER

@<TRIPOS>ATOM
      1 C         -29.5963   47.3244   -7.3121 C.3     1  UNL1        0.1294
      2 O         -30.4510   46.6294   -8.1899 O.3     1  UNL1       -0.3808
      3 C         -30.3199   48.5717   -6.7747 C.3     1  UNL1        0.0622
      4 C         -29.2689   49.6886   -6.7474 C.3     1  UNL1        0.1562
      5 N         -28.1959   49.2433   -7.6262 N.am    1  UNL1       -0.2544
      6 C         -26.9931   49.9999   -7.8587 C.2     1  UNL1        0.3081
      7 O         -26.7565   51.0223   -7.1591 O.2     1  UNL1       -0.2522
      8 N         -26.0639   49.6015   -8.8809 N.am    1  UNL1       -0.2681
      9 C         -28.4010   47.8872   -8.1124 C.3     1  UNL1        0.1264
     10 H         -29.9315   45.8726   -8.5708 H       1  UNL1        0.2107
     11 H         -26.0473   48.6031   -9.1847 H       1  UNL1        0.1564
     12 C         -27.4068   45.5339   -4.6769 C.ar    1  UNL1        0.0346
     13 C         -27.8053   46.2952   -5.7868 C.ar    1  UNL1        0.0006
     14 C         -29.1696   46.4341   -6.1294 C.ar    1  UNL1        0.0308
     15 C         -30.1318   45.8408   -5.2788 C.ar    1  UNL1        0.1406
     16 F         -31.4614   46.0192   -5.4830 F       1  UNL1       -0.2044
     17 C         -29.7327   45.0658   -4.1870 C.ar    1  UNL1        0.0588
     18 C         -28.3801   44.8968   -3.8938 C.ar    1  UNL1        0.1407
     19 F         -28.0219   44.1269   -2.8348 F       1  UNL1       -0.2043
     20 C         -25.9448   45.3558   -4.3731 C.3     1  UNL1        0.1709
     21 C         -24.7023   46.0583   -2.5665 C.3     1  UNL1        0.1746
     22 O         -25.4880   46.4831   -3.6573 O.3     1  UNL1       -0.3463
     23 C         -25.1304   50.4992   -9.5050 C.ar    1  UNL1        0.0516
     24 C         -24.0773   51.0336   -8.7465 C.ar    1  UNL1        0.0156
     25 C         -23.1369   51.8818   -9.3387 C.ar    1  UNL1        0.0127
     26 C         -23.2309   52.1919  -10.6988 C.ar    1  UNL1        0.0578
     27 CL        -22.0476   53.2522  -11.4418 Cl      1  UNL1       -0.0822
     28 C         -24.2631   51.6463  -11.4683 C.ar    1  UNL1        0.0127
     29 C         -25.2058   50.7989  -10.8783 C.ar    1  UNL1        0.0156
     30 C         -29.8457   51.0270   -7.1676 C.2     1  UNL1        0.2454
     31 O         -29.5684   52.0475   -6.4830 O.2     1  UNL1       -0.2730
     32 N         -30.7830   51.1524   -8.2477 N.am    1  UNL1       -0.2680
     33 H         -31.5897   51.8057   -8.1296 H       1  UNL1        0.1563
     34 C         -30.6674   50.4312   -9.4772 C.ar    1  UNL1        0.1346
     35 C         -29.7219   50.8179  -10.4322 C.ar    1  UNL1        0.0406
     36 C         -29.6267   50.1054  -11.6289 C.ar    1  UNL1        0.0736
     37 C         -30.4546   48.9948  -11.8543 C.ar    1  UNL1        0.2466
     38 C         -31.3649   48.6225  -10.8543 C.ar    1  UNL1        0.1691
     39 N         -31.4459   49.3392   -9.7030 N.ar    1  UNL1       -0.2228
     40 N         -30.3933   48.2663  -13.0969 N.am    1  UNL1       -0.0841
     41 C         -30.3749   48.9690  -14.2720 C.2     1  UNL1        0.2905
     42 C         -30.3074   48.3052  -15.4982 C.2     1  UNL1        0.0758
     43 C         -30.2601   46.9138  -15.5216 C.2     1  UNL1        0.0161
     44 C         -30.2849   46.2013  -14.3245 C.2     1  UNL1        0.1156
     45 C         -30.3565   46.8929  -13.1102 C.2     1  UNL1        0.4230
     46 O         -30.4023   46.2357  -12.0341 O.2     1  UNL1       -0.2135
@<TRIPOS>BOND
     1    21    22    1
     2    22    20    1
     3    20    12    1
     4    12    13   ar
     5    13    14   ar
     6    14     1    1
     7     1     2    1
     8     1     3    1
     9     3     4    1
    10     4    30    1
    11    30    31    2
    12    30    32   am
    13    32    34    1
    14    34    35   ar
    15    35    36   ar
    16    36    37   ar
    17    37    40    1
    18    40    41    1
    19    41    42    2
    20    42    43    1
    21    43    44    2
    22    44    45    1
    23    45    46    2
    24    37    38   ar
    25    38    39   ar
    26     4     5    1
    27     5     6   am
    28     6     7    2
    29     6     8   am
    30     8    23    1
    31    23    24   ar
    32    24    25   ar
    33    25    26   ar
    34    26    27    1
    35    26    28   ar
    36    28    29   ar
    37     5     9    1
    38    14    15   ar
    39    15    16    1
    40    15    17   ar
    41    17    18   ar
    42    18    19    1
    43    18    12   ar
    44     9     1    1
    45    39    34   ar
    46    29    23   ar
    47    45    40    1
    48     2    10    1
    49    32    33    1
    50     8    11    1
@<TRIPOS>MOLECULE
*****
 46 50 0 0 0
SMALL
GASTEIGER

@<TRIPOS>ATOM
      1 C         -30.4540   49.5954   -7.8580 C.3     1  UNL1        0.1294
      2 O         -31.5840   50.2878   -8.3353 O.3     1  UNL1       -0.3808
      3 C         -30.3419   48.2408   -8.5797 C.3     1  UNL1        0.0622
      4 C         -29.9104   47.2291   -7.5107 C.3     1  UNL1        0.1562
      5 N         -30.2135   47.8536   -6.2300 N.am    1  UNL1       -0.2544
      6 C         -29.9332   47.2378   -4.9590 C.2     1  UNL1        0.3081
      7 O         -29.2473   46.1801   -4.9183 O.2     1  UNL1       -0.2522
      8 N         -30.4300   47.8161   -3.7401 N.am    1  UNL1       -0.2681
      9 C         -30.6788   49.2247   -6.3754 C.3     1  UNL1        0.1264
     10 H         -31.6663   51.1224   -7.8020 H       1  UNL1        0.2107
     11 H         -30.6510   48.8359   -3.7202 H       1  UNL1        0.1564
     12 C         -27.3394   51.1099   -9.5755 C.ar    1  UNL1        0.0346
     13 C         -28.4824   50.3335   -9.3282 C.ar    1  UNL1        0.0006
     14 C         -29.1647   50.4054   -8.0923 C.ar    1  UNL1        0.0308
     15 C         -28.7042   51.3372   -7.1326 C.ar    1  UNL1        0.1406
     16 F         -29.3692   51.5383   -5.9669 F       1  UNL1       -0.2044
     17 C         -27.5542   52.0935   -7.3720 C.ar    1  UNL1        0.0588
     18 C         -26.8634   51.9719   -8.5771 C.ar    1  UNL1        0.1407
     19 F         -25.7414   52.7094   -8.7761 F       1  UNL1       -0.2043
     20 C         -26.6009   50.9671  -10.8777 C.3     1  UNL1        0.1709
     21 C         -24.3262   51.2388  -11.1077 C.3     1  UNL1        0.1746
     22 O         -25.3397   50.3864  -10.6245 O.3     1  UNL1       -0.3463
     23 C         -30.6254   47.0723   -2.5254 C.ar    1  UNL1        0.0516
     24 C         -30.1170   47.5786   -1.3191 C.ar    1  UNL1        0.0156
     25 C         -30.3234   46.8912   -0.1193 C.ar    1  UNL1        0.0127
     26 C         -31.0533   45.6987   -0.1112 C.ar    1  UNL1        0.0578
     27 CL        -31.3158   44.8398    1.3954 Cl      1  UNL1       -0.0822
     28 C         -31.5835   45.1980   -1.3042 C.ar    1  UNL1        0.0127
     29 C         -31.3774   45.8826   -2.5057 C.ar    1  UNL1        0.0156
     30 C         -30.5995   45.8887   -7.6805 C.2     1  UNL1        0.2454
     31 O         -31.2811   45.4329   -6.7241 O.2     1  UNL1       -0.2730
     32 N         -30.4114   45.0725   -8.8465 N.am    1  UNL1       -0.2680
     33 H         -30.3087   44.0410   -8.7172 H       1  UNL1        0.1563
     34 C         -30.3602   45.5989  -10.1751 C.ar    1  UNL1        0.1346
     35 C         -29.1369   45.6959  -10.8457 C.ar    1  UNL1        0.0406
     36 C         -29.1053   46.2171  -12.1404 C.ar    1  UNL1        0.0736
     37 C         -30.2962   46.6119  -12.7692 C.ar    1  UNL1        0.2466
     38 C         -31.5040   46.4651  -12.0714 C.ar    1  UNL1        0.1691
     39 N         -31.5068   45.9655  -10.8080 N.ar    1  UNL1       -0.2228
     40 N         -30.2799   47.1823  -14.0932 N.am    1  UNL1       -0.0841
     41 C         -30.3000   48.5452  -14.2233 C.2     1  UNL1        0.2905
     42 C         -30.2768   49.1409  -15.4856 C.2     1  UNL1        0.0758
     43 C         -30.2345   48.3366  -16.6214 C.2     1  UNL1        0.0161
     44 C         -30.2201   46.9499  -16.4859 C.2     1  UNL1        0.1156
     45 C         -30.2477   46.3802  -15.2082 C.2     1  UNL1        0.4230
     46 O         -30.2584   45.1231  -15.0994 O.2     1  UNL1       -0.2135
@<TRIPOS>BOND
     1    21    22    1
     2    22    20    1
     3    20    12    1
     4    12    13   ar
     5    13    14   ar
     6    14     1    1
     7     1     2    1
     8     1     3    1
     9     3     4    1
    10     4    30    1
    11    30    31    2
    12    30    32   am
    13    32    34    1
    14    34    35   ar
    15    35    36   ar
    16    36    37   ar
    17    37    40    1
    18    40    41    1
    19    41    42    2
    20    42    43    1
    21    43    44    2
    22    44    45    1
    23    45    46    2
    24    37    38   ar
    25    38    39   ar
    26     4     5    1
    27     5     6   am
    28     6     7    2
    29     6     8   am
    30     8    23    1
    31    23    24   ar
    32    24    25   ar
    33    25    26   ar
    34    26    27    1
    35    26    28   ar
    36    28    29   ar
    37     5     9    1
    38    14    15   ar
    39    15    16    1
    40    15    17   ar
    41    17    18   ar
    42    18    19    1
    43    18    12   ar
    44     9     1    1
    45    39    34   ar
    46    29    23   ar
    47    45    40    1
    48     2    10    1
    49    32    33    1
    50     8    11    1
@<TRIPOS>MOLECULE
*****
 46 50 0 0 0
SMALL
GASTEIGER

@<TRIPOS>ATOM
      1 C         -28.4928   50.5817   -8.6975 C.3     1  UNL1        0.1294
      2 O         -29.2556   51.7198   -8.3703 O.3     1  UNL1       -0.3808
      3 C         -29.4085   49.5152   -9.3239 C.3     1  UNL1        0.0622
      4 C         -28.9418   48.1711   -8.7512 C.3     1  UNL1        0.1562
      5 N         -28.1622   48.4963   -7.5644 N.am    1  UNL1       -0.2544
      6 C         -27.5163   47.5067   -6.7418 C.2     1  UNL1        0.3081
      7 O         -27.4701   46.3081   -7.1314 O.2     1  UNL1       -0.2522
      8 N         -26.9277   47.8731   -5.4822 N.am    1  UNL1       -0.2681
      9 C         -27.9763   49.9297   -7.3959 C.3     1  UNL1        0.1264
     10 H         -28.6508   52.3577   -7.9067 H       1  UNL1        0.2107
     11 H         -26.6292   48.8623   -5.3348 H       1  UNL1        0.1564
     12 C         -24.9962   51.3876  -10.1355 C.ar    1  UNL1        0.0346
     13 C         -26.0417   51.1248   -9.2366 C.ar    1  UNL1        0.0006
     14 C         -27.3670   50.9323   -9.6889 C.ar    1  UNL1        0.0308
     15 C         -27.6006   50.9414  -11.0842 C.ar    1  UNL1        0.1406
     16 F         -28.8247   50.6598  -11.5977 F       1  UNL1       -0.2044
     17 C         -26.5630   51.2242  -11.9760 C.ar    1  UNL1        0.0588
     18 C         -25.2713   51.4629  -11.5085 C.ar    1  UNL1        0.1407
     19 F         -24.2861   51.7487  -12.3975 F       1  UNL1       -0.2043
     20 C         -23.6079   51.6470   -9.6189 C.3     1  UNL1        0.1709
     21 C         -21.4552   52.1759  -10.2411 C.3     1  UNL1        0.1746
     22 O         -22.7556   51.9057  -10.7136 O.3     1  UNL1       -0.3463
     23 C         -26.7033   46.9462   -4.4064 C.ar    1  UNL1        0.0516
     24 C         -25.3898   46.6819   -3.9884 C.ar    1  UNL1        0.0156
     25 C         -25.1474   45.8108   -2.9221 C.ar    1  UNL1        0.0127
     26 C         -26.2165   45.2072   -2.2530 C.ar    1  UNL1        0.0578
     27 CL        -25.9112   44.1183   -0.9122 Cl      1  UNL1       -0.0822
     28 C         -27.5296   45.4819   -2.6470 C.ar    1  UNL1        0.0127
     29 C         -27.7749   46.3515   -3.7140 C.ar    1  UNL1        0.0156
     30 C         -30.1036   47.2448   -8.4468 C.2     1  UNL1        0.2454
     31 O         -30.7193   47.3840   -7.3566 O.2     1  UNL1       -0.2730
     32 N         -30.4535   46.1473   -9.3036 N.am    1  UNL1       -0.2680
     33 H         -30.7252   45.2409   -8.8608 H       1  UNL1        0.1563
     34 C         -30.4518   46.2322  -10.7311 C.ar    1  UNL1        0.1346
     35 C         -31.5114   46.8538  -11.3992 C.ar    1  UNL1        0.0406
     36 C         -31.4954   46.9230  -12.7933 C.ar    1  UNL1        0.0736
     37 C         -30.4101   46.3976  -13.5114 C.ar    1  UNL1        0.2466
     38 C         -29.3532   45.8134  -12.7980 C.ar    1  UNL1        0.1691
     39 N         -29.3979   45.7485  -11.4417 N.ar    1  UNL1       -0.2228
     40 N         -30.3908   46.4307  -14.9526 N.am    1  UNL1       -0.0841
     41 C         -30.6334   45.2724  -15.6412 C.2     1  UNL1        0.2905
     42 C         -30.6331   45.2599  -17.0372 C.2     1  UNL1        0.0758
     43 C         -30.3812   46.4398  -17.7322 C.2     1  UNL1        0.0161
     44 C         -30.1290   47.6157  -17.0287 C.2     1  UNL1        0.1156
     45 C         -30.1321   47.5981  -15.6295 C.2     1  UNL1        0.4230
     46 O         -29.8787   48.6642  -15.0040 O.2     1  UNL1       -0.2135
@<TRIPOS>BOND
     1    21    22    1
     2    22    20    1
     3    20    12    1
     4    12    13   ar
     5    13    14   ar
     6    14     1    1
     7     1     2    1
     8     1     3    1
     9     3     4    1
    10     4    30    1
    11    30    31    2
    12    30    32   am
    13    32    34    1
    14    34    35   ar
    15    35    36   ar
    16    36    37   ar
    17    37    40    1
    18    40    41    1
    19    41    42    2
    20    42    43    1
    21    43    44    2
    22    44    45    1
    23    45    46    2
    24    37    38   ar
    25    38    39   ar
    26     4     5    1
    27     5     6   am
    28     6     7    2
    29     6     8   am
    30     8    23    1
    31    23    24   ar
    32    24    25   ar
    33    25    26   ar
    34    26    27    1
    35    26    28   ar
    36    28    29   ar
    37     5     9    1
    38    14    15   ar
    39    15    16    1
    40    15    17   ar
    41    17    18   ar
    42    18    19    1
    43    18    12   ar
    44     9     1    1
    45    39    34   ar
    46    29    23   ar
    47    45    40    1
    48     2    10    1
    49    32    33    1
    50     8    11    1
