@<TRIPOS>MOLECULE
*****
 36 40 0 0 0
SMALL
GASTEIGER

@<TRIPOS>ATOM
      1 C         -21.1126   -6.6372   -9.3284 C.2     1  UNL1        0.2490
      2 O         -20.7946   -5.4310   -9.1400 O.2     1  UNL1       -0.2699
      3 N         -22.2908   -6.9431  -10.0965 N.am    1  UNL1       -0.2760
      4 C         -23.2761   -7.9067   -9.5958 C.3     1  UNL1        0.0954
      5 C         -23.7549   -8.8517  -10.7147 C.3     1  UNL1        0.0407
      6 C         -23.5877   -8.2724  -12.1598 C.3     1  UNL1        0.0731
      7 C         -23.7147   -6.7239  -12.1241 C.3     1  UNL1        0.0407
      8 C         -22.6687   -6.0619  -11.2070 C.3     1  UNL1        0.0954
      9 N         -22.2359   -8.6498  -12.6520 N.am    1  UNL1       -0.3015
     10 C         -21.9726   -9.9759  -13.1385 C.2     1  UNL1        0.2650
     11 O         -20.7928  -10.3858  -13.2995 O.2     1  UNL1       -0.2684
     12 C         -23.1186  -10.8080  -13.4782 C.ar    1  UNL1        0.1523
     13 N         -23.1108  -12.0515  -13.9874 N.ar    1  UNL1       -0.1650
     14 N         -24.3735  -12.3573  -14.2701 N.ar    1  UNL1       -0.2533
     15 C         -25.1729  -11.3006  -13.9797 C.ar    1  UNL1        0.0932
     16 C         -24.3868  -10.3074  -13.4363 C.ar    1  UNL1        0.0313
     17 C         -24.6718   -8.8566  -13.1501 C.3     1  UNL1        0.0855
     18 S         -26.4106   -8.5898  -12.6205 S.3     1  UNL1       -0.1627
     19 H         -21.4336   -7.9839  -12.5992 H       1  UNL1        0.1497
     20 H         -26.5096   -9.7763  -11.8684 H       1  UNL1        0.1026
     21 C         -18.6670   -8.6955   -5.5353 C.ar    1  UNL1        0.2248
     22 N         -17.8655   -9.6919   -5.0633 N.ar    1  UNL1       -0.2101
     23 C         -17.4135  -10.6961   -5.8586 C.ar    1  UNL1        0.1021
     24 C         -17.7650  -10.7349   -7.2076 C.ar    1  UNL1        0.0209
     25 C         -18.5874   -9.7307   -7.7330 C.ar    1  UNL1        0.0060
     26 C         -18.9529   -9.7441   -9.0856 C.ar    1  UNL1        0.0003
     27 C         -19.7735   -8.7397   -9.6022 C.ar    1  UNL1        0.0045
     28 C         -20.2510   -7.7093   -8.7754 C.ar    1  UNL1        0.0537
     29 C         -19.8747   -7.6856   -7.4212 C.ar    1  UNL1        0.0092
     30 C         -19.0488   -8.6926   -6.8908 C.ar    1  UNL1        0.0534
     31 C         -18.3618   -7.2490   -3.5450 C.3     1  UNL1        0.2542
     32 O         -19.1079   -7.6810   -4.6766 O.3     1  UNL1       -0.4561
     33 C         -24.8004  -13.6145  -14.9164 C.3     1  UNL1        0.0867
     34 C         -26.2351  -13.9660  -14.4753 C.3     1  UNL1        0.0244
     35 C         -24.7544  -13.4411  -16.4452 C.3     1  UNL1        0.0244
     36 C         -23.8647  -14.7750  -14.5144 C.3     1  UNL1        0.0244
@<TRIPOS>BOND
     1    31    32    1
     2    32    21    1
     3    21    22   ar
     4    22    23   ar
     5    23    24   ar
     6    24    25   ar
     7    25    26   ar
     8    26    27   ar
     9    27    28   ar
    10    28     1    1
    11     1     2    2
    12     1     3   am
    13     3     4    1
    14     4     5    1
    15     5     6    1
    16     6     7    1
    17     7     8    1
    18     6     9    1
    19     9    10   am
    20    10    11    2
    21    10    12    1
    22    12    13   ar
    23    13    14   ar
    24    14    33    1
    25    33    34    1
    26    33    35    1
    27    33    36    1
    28    14    15   ar
    29    15    16   ar
    30    16    17    1
    31    17    18    1
    32    28    29   ar
    33    29    30   ar
    34    30    21   ar
    35    30    25   ar
    36     8     3    1
    37    16    12   ar
    38    17     6    1
    39     9    19    1
    40    18    20    1
@<TRIPOS>MOLECULE
*****
 36 40 0 0 0
SMALL
GASTEIGER

@<TRIPOS>ATOM
      1 C         -21.2135   -6.6457   -9.2530 C.2     1  UNL1        0.2490
      2 O         -20.9549   -5.4348   -9.0118 O.2     1  UNL1       -0.2699
      3 N         -22.3941   -6.9770  -10.0069 N.am    1  UNL1       -0.2760
      4 C         -23.3132   -8.0160   -9.5317 C.3     1  UNL1        0.0954
      5 C         -23.7712   -8.9295  -10.6849 C.3     1  UNL1        0.0407
      6 C         -23.6737   -8.2718  -12.1027 C.3     1  UNL1        0.0731
      7 C         -23.8815   -6.7361  -11.9858 C.3     1  UNL1        0.0407
      8 C         -22.8477   -6.0642  -11.0621 C.3     1  UNL1        0.0954
      9 N         -22.3175   -8.5508  -12.6458 N.am    1  UNL1       -0.3015
     10 C         -21.9975   -9.8352  -13.2048 C.2     1  UNL1        0.2650
     11 O         -20.8025  -10.1721  -13.4147 O.2     1  UNL1       -0.2684
     12 C         -23.1066  -10.7105  -13.5582 C.ar    1  UNL1        0.1523
     13 N         -23.0466  -11.9253  -14.1295 N.ar    1  UNL1       -0.1650
     14 N         -24.2985  -12.2849  -14.3966 N.ar    1  UNL1       -0.2533
     15 C         -25.1447  -11.2886  -14.0341 C.ar    1  UNL1        0.0932
     16 C         -24.3979  -10.2820  -13.4604 C.ar    1  UNL1        0.0313
     17 C         -24.7516   -8.8647  -13.0946 C.3     1  UNL1        0.0855
     18 S         -26.4872   -8.7188  -12.5103 S.3     1  UNL1       -0.1627
     19 H         -21.5505   -7.8458  -12.5789 H       1  UNL1        0.1497
     20 H         -26.5030   -9.9445  -11.8168 H       1  UNL1        0.1026
     21 C         -18.9650  -11.0273   -9.8456 C.ar    1  UNL1        0.2248
     22 N         -18.1093  -11.9764   -9.3712 N.ar    1  UNL1       -0.2101
     23 C         -17.4639  -11.8412   -8.1836 C.ar    1  UNL1        0.1021
     24 C         -17.6639  -10.7040   -7.4018 C.ar    1  UNL1        0.0209
     25 C         -18.5347   -9.7042   -7.8526 C.ar    1  UNL1        0.0060
     26 C         -18.7561   -8.5530   -7.0851 C.ar    1  UNL1        0.0003
     27 C         -19.6254   -7.5603   -7.5413 C.ar    1  UNL1        0.0045
     28 C         -20.2818   -7.6954   -8.7758 C.ar    1  UNL1        0.0537
     29 C         -20.0723   -8.8555   -9.5414 C.ar    1  UNL1        0.0092
     30 C         -19.1986   -9.8613   -9.0913 C.ar    1  UNL1        0.0534
     31 C         -20.2003  -12.4464  -11.4603 C.3     1  UNL1        0.2542
     32 O         -19.6077  -11.2114  -11.0761 O.3     1  UNL1       -0.4561
     33 C         -24.6754  -13.5302  -15.0950 C.3     1  UNL1        0.0867
     34 C         -26.0886  -13.9648  -14.6587 C.3     1  UNL1        0.0244
     35 C         -24.6523  -13.2874  -16.6148 C.3     1  UNL1        0.0244
     36 C         -23.6851  -14.6641  -14.7527 C.3     1  UNL1        0.0244
@<TRIPOS>BOND
     1    31    32    1
     2    32    21    1
     3    21    22   ar
     4    22    23   ar
     5    23    24   ar
     6    24    25   ar
     7    25    26   ar
     8    26    27   ar
     9    27    28   ar
    10    28     1    1
    11     1     2    2
    12     1     3   am
    13     3     4    1
    14     4     5    1
    15     5     6    1
    16     6     7    1
    17     7     8    1
    18     6     9    1
    19     9    10   am
    20    10    11    2
    21    10    12    1
    22    12    13   ar
    23    13    14   ar
    24    14    33    1
    25    33    34    1
    26    33    35    1
    27    33    36    1
    28    14    15   ar
    29    15    16   ar
    30    16    17    1
    31    17    18    1
    32    28    29   ar
    33    29    30   ar
    34    30    21   ar
    35    30    25   ar
    36     8     3    1
    37    16    12   ar
    38    17     6    1
    39     9    19    1
    40    18    20    1
@<TRIPOS>MOLECULE
*****
 36 40 0 0 0
SMALL
GASTEIGER

@<TRIPOS>ATOM
      1 C         -26.3924   -5.5237  -12.8818 C.2     1  UNL1        0.2490
      2 O         -27.1666   -4.8473  -12.1507 O.2     1  UNL1       -0.2699
      3 N         -25.5541   -6.5275  -12.2805 N.am    1  UNL1       -0.2760
      4 C         -24.1238   -6.5900  -12.5974 C.3     1  UNL1        0.0954
      5 C         -23.6616   -8.0430  -12.8191 C.3     1  UNL1        0.0407
      6 C         -24.5667   -9.1175  -12.1275 C.3     1  UNL1        0.0731
      7 C         -25.1983   -8.5224  -10.8382 C.3     1  UNL1        0.0407
      8 C         -26.0508   -7.2698  -11.1165 C.3     1  UNL1        0.0954
      9 N         -25.6437   -9.4934  -13.0817 N.am    1  UNL1       -0.3015
     10 C         -25.3824  -10.3945  -14.1700 C.2     1  UNL1        0.2650
     11 O         -26.1924  -10.5078  -15.1275 O.2     1  UNL1       -0.2684
     12 C         -24.1711  -11.2001  -14.1006 C.ar    1  UNL1        0.1523
     13 N         -23.7510  -12.1315  -14.9734 N.ar    1  UNL1       -0.1650
     14 N         -22.6797  -12.7056  -14.4343 N.ar    1  UNL1       -0.2533
     15 C         -22.4448  -12.1703  -13.2103 C.ar    1  UNL1        0.0932
     16 C         -23.3739  -11.1754  -12.9941 C.ar    1  UNL1        0.0313
     17 C         -23.7457  -10.4138  -11.7493 C.3     1  UNL1        0.0855
     18 S         -22.2901  -10.1068  -10.6714 S.3     1  UNL1       -0.1627
     19 H         -26.5947   -9.0670  -13.0223 H       1  UNL1        0.1497
     20 H         -21.3828   -9.8826  -11.7249 H       1  UNL1        0.1026
     21 C         -24.3408   -6.1517  -17.3542 C.ar    1  UNL1        0.2248
     22 N         -24.3585   -5.9033  -18.6943 N.ar    1  UNL1       -0.2101
     23 C         -25.3179   -5.1380  -19.2766 C.ar    1  UNL1        0.1021
     24 C         -26.3315   -4.5743  -18.5024 C.ar    1  UNL1        0.0209
     25 C         -26.3508   -4.8050  -17.1213 C.ar    1  UNL1        0.0060
     26 C         -27.3560   -4.2478  -16.3198 C.ar    1  UNL1        0.0003
     27 C         -27.3689   -4.4826  -14.9436 C.ar    1  UNL1        0.0045
     28 C         -26.3837   -5.2852  -14.3449 C.ar    1  UNL1        0.0537
     29 C         -25.3661   -5.8341  -15.1444 C.ar    1  UNL1        0.0092
     30 C         -25.3440   -5.6041  -16.5315 C.ar    1  UNL1        0.0534
     31 C         -23.1234   -8.3038  -17.1734 C.3     1  UNL1        0.2542
     32 O         -23.3305   -6.9470  -16.7993 O.3     1  UNL1       -0.4561
     33 C         -21.9485  -13.8366  -15.0400 C.3     1  UNL1        0.0867
     34 C         -21.6755  -13.5431  -16.5285 C.3     1  UNL1        0.0244
     35 C         -20.6155  -14.0363  -14.2966 C.3     1  UNL1        0.0244
     36 C         -22.7787  -15.1344  -14.9394 C.3     1  UNL1        0.0244
@<TRIPOS>BOND
     1    31    32    1
     2    32    21    1
     3    21    22   ar
     4    22    23   ar
     5    23    24   ar
     6    24    25   ar
     7    25    26   ar
     8    26    27   ar
     9    27    28   ar
    10    28     1    1
    11     1     2    2
    12     1     3   am
    13     3     4    1
    14     4     5    1
    15     5     6    1
    16     6     7    1
    17     7     8    1
    18     6     9    1
    19     9    10   am
    20    10    11    2
    21    10    12    1
    22    12    13   ar
    23    13    14   ar
    24    14    33    1
    25    33    34    1
    26    33    35    1
    27    33    36    1
    28    14    15   ar
    29    15    16   ar
    30    16    17    1
    31    17    18    1
    32    28    29   ar
    33    29    30   ar
    34    30    21   ar
    35    30    25   ar
    36     8     3    1
    37    16    12   ar
    38    17     6    1
    39     9    19    1
    40    18    20    1
@<TRIPOS>MOLECULE
*****
 36 40 0 0 0
SMALL
GASTEIGER

@<TRIPOS>ATOM
      1 C         -24.9591   -8.4463  -13.7286 C.2     1  UNL1        0.2490
      2 O         -25.9134   -7.9290  -14.3714 O.2     1  UNL1       -0.2699
      3 N         -24.0424   -7.5922  -13.0202 N.am    1  UNL1       -0.2760
      4 C         -22.5944   -7.7718  -13.1656 C.3     1  UNL1        0.0954
      5 C         -21.8768   -7.6641  -11.8063 C.3     1  UNL1        0.0407
      6 C         -22.6665   -6.8512  -10.7258 C.3     1  UNL1        0.0731
      7 C         -23.5323   -5.7608  -11.4163 C.3     1  UNL1        0.0407
      8 C         -24.5414   -6.3497  -12.4205 C.3     1  UNL1        0.0954
      9 N         -23.5492   -7.7980   -9.9935 N.am    1  UNL1       -0.3015
     10 C         -23.0191   -8.6623   -8.9753 C.2     1  UNL1        0.2650
     11 O         -23.6832   -9.6420   -8.5453 O.2     1  UNL1       -0.2684
     12 C         -21.7080   -8.3361   -8.4316 C.ar    1  UNL1        0.1523
     13 N         -21.0422   -8.9707   -7.4519 N.ar    1  UNL1       -0.1650
     14 N         -19.9607   -8.2428   -7.1904 N.ar    1  UNL1       -0.2533
     15 C         -19.9603   -7.1331   -7.9705 C.ar    1  UNL1        0.0932
     16 C         -21.0592   -7.1943   -8.8003 C.ar    1  UNL1        0.0313
     17 C         -21.6928   -6.1589   -9.6915 C.3     1  UNL1        0.0855
     18 S         -20.4421   -5.0464  -10.4488 S.3     1  UNL1       -0.1627
     19 H         -24.5579   -7.9022  -10.2417 H       1  UNL1        0.1497
     20 H         -19.4684   -6.0453  -10.6431 H       1  UNL1        0.1026
     21 C         -24.3153  -12.7787  -16.0569 C.ar    1  UNL1        0.2248
     22 N         -24.2021  -14.1355  -15.9925 N.ar    1  UNL1       -0.2101
     23 C         -24.2734  -14.8135  -14.8176 C.ar    1  UNL1        0.1021
     24 C         -24.4684  -14.1247  -13.6209 C.ar    1  UNL1        0.0209
     25 C         -24.5892  -12.7297  -13.6423 C.ar    1  UNL1        0.0060
     26 C         -24.7889  -12.0134  -12.4547 C.ar    1  UNL1        0.0003
     27 C         -24.9080  -10.6227  -12.4839 C.ar    1  UNL1        0.0045
     28 C         -24.8207   -9.9220  -13.6982 C.ar    1  UNL1        0.0537
     29 C         -24.6342  -10.6390  -14.8928 C.ar    1  UNL1        0.0092
     30 C         -24.5127  -12.0399  -14.8745 C.ar    1  UNL1        0.0534
     31 C         -23.0041  -11.6905  -17.8578 C.3     1  UNL1        0.2542
     32 O         -24.2353  -12.1239  -17.2922 O.3     1  UNL1       -0.4561
     33 C         -18.9882   -8.5515   -6.1230 C.3     1  UNL1        0.0867
     34 C         -19.7335   -8.8143   -4.7994 C.3     1  UNL1        0.0244
     35 C         -18.1773   -9.7983   -6.5193 C.3     1  UNL1        0.0244
     36 C         -18.0191   -7.3678   -5.9143 C.3     1  UNL1        0.0244
@<TRIPOS>BOND
     1    31    32    1
     2    32    21    1
     3    21    22   ar
     4    22    23   ar
     5    23    24   ar
     6    24    25   ar
     7    25    26   ar
     8    26    27   ar
     9    27    28   ar
    10    28     1    1
    11     1     2    2
    12     1     3   am
    13     3     4    1
    14     4     5    1
    15     5     6    1
    16     6     7    1
    17     7     8    1
    18     6     9    1
    19     9    10   am
    20    10    11    2
    21    10    12    1
    22    12    13   ar
    23    13    14   ar
    24    14    33    1
    25    33    34    1
    26    33    35    1
    27    33    36    1
    28    14    15   ar
    29    15    16   ar
    30    16    17    1
    31    17    18    1
    32    28    29   ar
    33    29    30   ar
    34    30    21   ar
    35    30    25   ar
    36     8     3    1
    37    16    12   ar
    38    17     6    1
    39     9    19    1
    40    18    20    1
@<TRIPOS>MOLECULE
*****
 36 40 0 0 0
SMALL
GASTEIGER

@<TRIPOS>ATOM
      1 C         -23.5690   -8.2436  -14.4211 C.2     1  UNL1        0.2490
      2 O         -24.5441   -7.8419  -15.1135 O.2     1  UNL1       -0.2699
      3 N         -23.0243   -7.3816  -13.4052 N.am    1  UNL1       -0.2760
      4 C         -21.5779   -7.1571  -13.3169 C.3     1  UNL1        0.0954
      5 C         -21.0920   -7.2000  -11.8553 C.3     1  UNL1        0.0407
      6 C         -22.2051   -6.8877  -10.7992 C.3     1  UNL1        0.0731
      7 C         -23.2517   -5.9144  -11.4097 C.3     1  UNL1        0.0407
      8 C         -23.9229   -6.4799  -12.6758 C.3     1  UNL1        0.0954
      9 N         -22.8680   -8.1693  -10.4384 N.am    1  UNL1       -0.3015
     10 C         -22.2448   -9.0908   -9.5291 C.2     1  UNL1        0.2650
     11 O         -22.6532  -10.2775   -9.4263 O.2     1  UNL1       -0.2684
     12 C         -21.1557   -8.5882   -8.7029 C.ar    1  UNL1        0.1523
     13 N         -20.4634   -9.2513   -7.7613 N.ar    1  UNL1       -0.1650
     14 N         -19.6715   -8.3614   -7.1707 N.ar    1  UNL1       -0.2533
     15 C         -19.8882   -7.1342   -7.7063 C.ar    1  UNL1        0.0932
     16 C         -20.8150   -7.2676   -8.7178 C.ar    1  UNL1        0.0313
     17 C         -21.6005   -6.2409   -9.4902 C.3     1  UNL1        0.0855
     18 S         -20.6311   -4.7066   -9.7759 S.3     1  UNL1       -0.1627
     19 H         -23.7681   -8.4583  -10.8814 H       1  UNL1        0.1497
     20 H         -19.3992   -5.3577   -9.9807 H       1  UNL1        0.1026
     21 C         -21.1604  -12.2719  -12.8161 C.ar    1  UNL1        0.2248
     22 N         -20.6640  -13.5159  -13.0689 N.ar    1  UNL1       -0.2101
     23 C         -20.7873  -14.1121  -14.2832 C.ar    1  UNL1        0.1021
     24 C         -21.4387  -13.4532  -15.3255 C.ar    1  UNL1        0.0209
     25 C         -21.9639  -12.1734  -15.1080 C.ar    1  UNL1        0.0060
     26 C         -22.6202  -11.4878  -16.1388 C.ar    1  UNL1        0.0003
     27 C         -23.1416  -10.2124  -15.9144 C.ar    1  UNL1        0.0045
     28 C         -23.0251   -9.6027  -14.6542 C.ar    1  UNL1        0.0537
     29 C         -22.3551  -10.2823  -13.6221 C.ar    1  UNL1        0.0092
     30 C         -21.8264  -11.5675  -13.8375 C.ar    1  UNL1        0.0534
     31 C         -19.8173  -11.8254  -10.7806 C.3     1  UNL1        0.2542
     32 O         -21.0085  -11.6982  -11.5477 O.3     1  UNL1       -0.4561
     33 C         -18.7899   -8.6632   -6.0251 C.3     1  UNL1        0.0867
     34 C         -19.6392   -8.8779   -4.7567 C.3     1  UNL1        0.0244
     35 C         -17.9790   -9.9356   -6.3292 C.3     1  UNL1        0.0244
     36 C         -17.8136   -7.4945   -5.7705 C.3     1  UNL1        0.0244
@<TRIPOS>BOND
     1    31    32    1
     2    32    21    1
     3    21    22   ar
     4    22    23   ar
     5    23    24   ar
     6    24    25   ar
     7    25    26   ar
     8    26    27   ar
     9    27    28   ar
    10    28     1    1
    11     1     2    2
    12     1     3   am
    13     3     4    1
    14     4     5    1
    15     5     6    1
    16     6     7    1
    17     7     8    1
    18     6     9    1
    19     9    10   am
    20    10    11    2
    21    10    12    1
    22    12    13   ar
    23    13    14   ar
    24    14    33    1
    25    33    34    1
    26    33    35    1
    27    33    36    1
    28    14    15   ar
    29    15    16   ar
    30    16    17    1
    31    17    18    1
    32    28    29   ar
    33    29    30   ar
    34    30    21   ar
    35    30    25   ar
    36     8     3    1
    37    16    12   ar
    38    17     6    1
    39     9    19    1
    40    18    20    1
@<TRIPOS>MOLECULE
*****
 36 40 0 0 0
SMALL
GASTEIGER

@<TRIPOS>ATOM
      1 C         -23.7562   -8.8736  -14.4507 C.2     1  UNL1        0.2490
      2 O         -24.7331   -8.5270  -15.1697 O.2     1  UNL1       -0.2699
      3 N         -23.1949   -7.9279  -13.5221 N.am    1  UNL1       -0.2760
      4 C         -21.7458   -7.7111  -13.4653 C.3     1  UNL1        0.0954
      5 C         -21.2483   -7.6250  -12.0096 C.3     1  UNL1        0.0407
      6 C         -22.3496   -7.2060  -10.9783 C.3     1  UNL1        0.0731
      7 C         -23.3919   -6.2820  -11.6677 C.3     1  UNL1        0.0407
      8 C         -24.0788   -6.9541  -12.8718 C.3     1  UNL1        0.0954
      9 N         -23.0217   -8.4423  -10.4968 N.am    1  UNL1       -0.3015
     10 C         -22.3998   -9.2831   -9.5115 C.2     1  UNL1        0.2650
     11 O         -22.8187  -10.4512   -9.2975 O.2     1  UNL1       -0.2684
     12 C         -21.2992   -8.7182   -8.7429 C.ar    1  UNL1        0.1523
     13 N         -20.6055   -9.2994   -7.7495 N.ar    1  UNL1       -0.1650
     14 N         -19.8002   -8.3673   -7.2488 N.ar    1  UNL1       -0.2533
     15 C         -20.0097   -7.1921   -7.8929 C.ar    1  UNL1        0.0932
     16 C         -20.9460   -7.4080   -8.8812 C.ar    1  UNL1        0.0313
     17 C         -21.7280   -6.4483   -9.7386 C.3     1  UNL1        0.0855
     18 S         -20.7464   -4.9567  -10.1707 S.3     1  UNL1       -0.1627
     19 H         -23.9281   -8.7614  -10.9049 H       1  UNL1        0.1497
     20 H         -19.5225   -5.6363  -10.3241 H       1  UNL1        0.1026
     21 C         -24.4746  -13.7775  -14.6525 C.ar    1  UNL1        0.2248
     22 N         -23.9525  -15.0331  -14.7466 N.ar    1  UNL1       -0.2101
     23 C         -22.6158  -15.2569  -14.8376 C.ar    1  UNL1        0.1021
     24 C         -21.7234  -14.1853  -14.8371 C.ar    1  UNL1        0.0209
     25 C         -22.2181  -12.8787  -14.7427 C.ar    1  UNL1        0.0060
     26 C         -21.3432  -11.7842  -14.7368 C.ar    1  UNL1        0.0003
     27 C         -21.8438  -10.4843  -14.6428 C.ar    1  UNL1        0.0045
     28 C         -23.2272  -10.2539  -14.5623 C.ar    1  UNL1        0.0537
     29 C         -24.1065  -11.3506  -14.5540 C.ar    1  UNL1        0.0092
     30 C         -23.6127  -12.6639  -14.6486 C.ar    1  UNL1        0.0534
     31 C         -26.6047  -13.9181  -13.3918 C.3     1  UNL1        0.2542
     32 O         -25.8602  -13.5968  -14.5607 O.3     1  UNL1       -0.4561
     33 C         -18.9122   -8.5720   -6.0869 C.3     1  UNL1        0.0867
     34 C         -19.7570   -8.7318   -4.8074 C.3     1  UNL1        0.0244
     35 C         -18.0647   -9.8370   -6.3116 C.3     1  UNL1        0.0244
     36 C         -17.9701   -7.3622   -5.9056 C.3     1  UNL1        0.0244
@<TRIPOS>BOND
     1    31    32    1
     2    32    21    1
     3    21    22   ar
     4    22    23   ar
     5    23    24   ar
     6    24    25   ar
     7    25    26   ar
     8    26    27   ar
     9    27    28   ar
    10    28     1    1
    11     1     2    2
    12     1     3   am
    13     3     4    1
    14     4     5    1
    15     5     6    1
    16     6     7    1
    17     7     8    1
    18     6     9    1
    19     9    10   am
    20    10    11    2
    21    10    12    1
    22    12    13   ar
    23    13    14   ar
    24    14    33    1
    25    33    34    1
    26    33    35    1
    27    33    36    1
    28    14    15   ar
    29    15    16   ar
    30    16    17    1
    31    17    18    1
    32    28    29   ar
    33    29    30   ar
    34    30    21   ar
    35    30    25   ar
    36     8     3    1
    37    16    12   ar
    38    17     6    1
    39     9    19    1
    40    18    20    1
@<TRIPOS>MOLECULE
*****
 36 40 0 0 0
SMALL
GASTEIGER

@<TRIPOS>ATOM
      1 C         -26.5223   -5.5499  -12.6811 C.2     1  UNL1        0.2490
      2 O         -27.3236   -4.9054  -11.9503 O.2     1  UNL1       -0.2699
      3 N         -25.6930   -6.5671  -12.0901 N.am    1  UNL1       -0.2760
      4 C         -24.2535   -6.6071  -12.3665 C.3     1  UNL1        0.0954
      5 C         -23.7719   -8.0479  -12.6243 C.3     1  UNL1        0.0407
      6 C         -24.6871   -9.1528  -11.9970 C.3     1  UNL1        0.0731
      7 C         -25.3615   -8.6078  -10.7072 C.3     1  UNL1        0.0407
      8 C         -26.2168   -7.3532  -10.9674 C.3     1  UNL1        0.0954
      9 N         -25.7323   -9.5042  -12.9950 N.am    1  UNL1       -0.3015
     10 C         -25.4313  -10.3649  -14.1054 C.2     1  UNL1        0.2650
     11 O         -26.2119  -10.4515  -15.0897 O.2     1  UNL1       -0.2684
     12 C         -24.2152  -11.1628  -14.0279 C.ar    1  UNL1        0.1523
     13 N         -23.7614  -12.0600  -14.9194 N.ar    1  UNL1       -0.1650
     14 N         -22.7012  -12.6438  -14.3689 N.ar    1  UNL1       -0.2533
     15 C         -22.5070  -12.1493  -13.1209 C.ar    1  UNL1        0.0932
     16 C         -23.4510  -11.1700  -12.8982 C.ar    1  UNL1        0.0313
     17 C         -23.8659  -10.4548  -11.6395 C.3     1  UNL1        0.0855
     18 S         -22.4452  -10.1737  -10.5091 S.3     1  UNL1       -0.1627
     19 H         -26.6885   -9.0877  -12.9490 H       1  UNL1        0.1497
     20 H         -21.5096   -9.9059  -11.5271 H       1  UNL1        0.1026
     21 C         -28.3866   -3.3546  -16.7197 C.ar    1  UNL1        0.2248
     22 N         -28.3161   -3.1184  -18.0603 N.ar    1  UNL1       -0.2101
     23 C         -27.3387   -3.6505  -18.8392 C.ar    1  UNL1        0.1021
     24 C         -26.3610   -4.4700  -18.2760 C.ar    1  UNL1        0.0209
     25 C         -26.3963   -4.7379  -16.9020 C.ar    1  UNL1        0.0060
     26 C         -25.4281   -5.5606  -16.3113 C.ar    1  UNL1        0.0003
     27 C         -25.4695   -5.8228  -14.9406 C.ar    1  UNL1        0.0045
     28 C         -26.4731   -5.2609  -14.1342 C.ar    1  UNL1        0.0537
     29 C         -27.4538   -4.4464  -14.7264 C.ar    1  UNL1        0.0092
     30 C         -27.4211   -4.1757  -16.1059 C.ar    1  UNL1        0.0534
     31 C         -30.7908   -2.9436  -16.2754 C.3     1  UNL1        0.2542
     32 O         -29.4135   -2.7836  -15.9577 O.3     1  UNL1       -0.4561
     33 C         -21.9424  -13.7473  -14.9912 C.3     1  UNL1        0.0867
     34 C         -21.6748  -13.4238  -16.4745 C.3     1  UNL1        0.0244
     35 C         -20.6060  -13.9269  -14.2490 C.3     1  UNL1        0.0244
     36 C         -22.7415  -15.0660  -14.9124 C.3     1  UNL1        0.0244
@<TRIPOS>BOND
     1    31    32    1
     2    32    21    1
     3    21    22   ar
     4    22    23   ar
     5    23    24   ar
     6    24    25   ar
     7    25    26   ar
     8    26    27   ar
     9    27    28   ar
    10    28     1    1
    11     1     2    2
    12     1     3   am
    13     3     4    1
    14     4     5    1
    15     5     6    1
    16     6     7    1
    17     7     8    1
    18     6     9    1
    19     9    10   am
    20    10    11    2
    21    10    12    1
    22    12    13   ar
    23    13    14   ar
    24    14    33    1
    25    33    34    1
    26    33    35    1
    27    33    36    1
    28    14    15   ar
    29    15    16   ar
    30    16    17    1
    31    17    18    1
    32    28    29   ar
    33    29    30   ar
    34    30    21   ar
    35    30    25   ar
    36     8     3    1
    37    16    12   ar
    38    17     6    1
    39     9    19    1
    40    18    20    1
@<TRIPOS>MOLECULE
*****
 36 40 0 0 0
SMALL
GASTEIGER

@<TRIPOS>ATOM
      1 C         -21.5140   -6.6725   -8.9623 C.2     1  UNL1        0.2490
      2 O         -21.4398   -5.5352   -8.4214 O.2     1  UNL1       -0.2699
      3 N         -22.5375   -6.9202   -9.9435 N.am    1  UNL1       -0.2760
      4 C         -23.3752   -8.1207   -9.8582 C.3     1  UNL1        0.0954
      5 C         -23.5645   -8.7717  -11.2418 C.3     1  UNL1        0.0407
      6 C         -23.3667   -7.7903  -12.4458 C.3     1  UNL1        0.0731
      7 C         -23.7754   -6.3513  -12.0245 C.3     1  UNL1        0.0407
      8 C         -22.9602   -5.8276  -10.8268 C.3     1  UNL1        0.0954
      9 N         -21.9278   -7.8092  -12.8217 N.am    1  UNL1       -0.3015
     10 C         -21.3826   -8.8901  -13.5957 C.2     1  UNL1        0.2650
     11 O         -20.1381   -9.0586  -13.6885 O.2     1  UNL1       -0.2684
     12 C         -22.3205   -9.7526  -14.3011 C.ar    1  UNL1        0.1523
     13 N         -22.0380  -10.7866  -15.1116 N.ar    1  UNL1       -0.1650
     14 N         -23.1911  -11.1836  -15.6414 N.ar    1  UNL1       -0.2533
     15 C         -24.1932  -10.3821  -15.2016 C.ar    1  UNL1        0.0932
     16 C         -23.6564   -9.4775  -14.3108 C.ar    1  UNL1        0.0313
     17 C         -24.2262   -8.2252  -13.6986 C.3     1  UNL1        0.0855
     18 S         -26.0274   -8.3789  -13.3710 S.3     1  UNL1       -0.1627
     19 H         -21.2685   -7.0741  -12.4827 H       1  UNL1        0.1497
     20 H         -25.9814   -9.7305  -12.9777 H       1  UNL1        0.1026
     21 C         -18.7678   -9.0169   -5.5612 C.ar    1  UNL1        0.2248
     22 N         -17.8531   -9.9813   -5.2588 N.ar    1  UNL1       -0.2101
     23 C         -17.3174  -10.7942   -6.2060 C.ar    1  UNL1        0.1021
     24 C         -17.6969  -10.6608   -7.5413 C.ar    1  UNL1        0.0209
     25 C         -18.6344   -9.6827   -7.8951 C.ar    1  UNL1        0.0060
     26 C         -19.0308   -9.5252   -9.2298 C.ar    1  UNL1        0.0003
     27 C         -19.9664   -8.5481   -9.5749 C.ar    1  UNL1        0.0045
     28 C         -20.5295   -7.7172   -8.5923 C.ar    1  UNL1        0.0537
     29 C         -20.1235   -7.8636   -7.2544 C.ar    1  UNL1        0.0092
     30 C         -19.1821   -8.8448   -6.8961 C.ar    1  UNL1        0.0534
     31 C         -20.2533   -8.6638   -3.6080 C.3     1  UNL1        0.2542
     32 O         -19.2921   -8.2026   -4.5498 O.3     1  UNL1       -0.4561
     33 C         -23.3184  -12.2562  -16.6483 C.3     1  UNL1        0.0867
     34 C         -23.2803  -11.6484  -18.0645 C.3     1  UNL1        0.0244
     35 C         -22.1576  -13.2527  -16.4788 C.3     1  UNL1        0.0244
     36 C         -24.6554  -13.0082  -16.4724 C.3     1  UNL1        0.0244
@<TRIPOS>BOND
     1    31    32    1
     2    32    21    1
     3    21    22   ar
     4    22    23   ar
     5    23    24   ar
     6    24    25   ar
     7    25    26   ar
     8    26    27   ar
     9    27    28   ar
    10    28     1    1
    11     1     2    2
    12     1     3   am
    13     3     4    1
    14     4     5    1
    15     5     6    1
    16     6     7    1
    17     7     8    1
    18     6     9    1
    19     9    10   am
    20    10    11    2
    21    10    12    1
    22    12    13   ar
    23    13    14   ar
    24    14    33    1
    25    33    34    1
    26    33    35    1
    27    33    36    1
    28    14    15   ar
    29    15    16   ar
    30    16    17    1
    31    17    18    1
    32    28    29   ar
    33    29    30   ar
    34    30    21   ar
    35    30    25   ar
    36     8     3    1
    37    16    12   ar
    38    17     6    1
    39     9    19    1
    40    18    20    1
@<TRIPOS>MOLECULE
*****
 36 40 0 0 0
SMALL
GASTEIGER

@<TRIPOS>ATOM
      1 C         -18.5175  -10.9870   -9.2224 C.2     1  UNL1        0.2490
      2 O         -17.7340  -11.9732   -9.1531 O.2     1  UNL1       -0.2699
      3 N         -19.3510  -10.8302  -10.3854 N.am    1  UNL1       -0.2760
      4 C         -19.4281   -9.5396  -11.0772 C.3     1  UNL1        0.0954
      5 C         -20.8798   -9.1962  -11.4631 C.3     1  UNL1        0.0407
      6 C         -21.8226  -10.4402  -11.5878 C.3     1  UNL1        0.0731
      7 C         -21.0015  -11.6795  -12.0411 C.3     1  UNL1        0.0407
      8 C         -19.8598  -12.0260  -11.0664 C.3     1  UNL1        0.0954
      9 N         -22.4188  -10.7001  -10.2503 N.am    1  UNL1       -0.3015
     10 C         -23.5114   -9.9040   -9.7633 C.2     1  UNL1        0.2650
     11 O         -23.8422   -9.9298   -8.5486 O.2     1  UNL1       -0.2684
     12 C         -24.2455   -9.1035  -10.7335 C.ar    1  UNL1        0.1523
     13 N         -25.3191   -8.3255  -10.5147 N.ar    1  UNL1       -0.1650
     14 N         -25.7367   -7.9058  -11.7053 N.ar    1  UNL1       -0.2533
     15 C         -24.9583   -8.4457  -12.6761 C.ar    1  UNL1        0.0932
     16 C         -23.9718   -9.1913  -12.0669 C.ar    1  UNL1        0.0313
     17 C         -22.9880  -10.1858  -12.6243 C.3     1  UNL1        0.0855
     18 S         -22.4217   -9.7213  -14.3092 S.3     1  UNL1       -0.1627
     19 H         -22.0212  -11.4223   -9.6098 H       1  UNL1        0.1497
     20 H         -22.3840   -8.3348  -14.0650 H       1  UNL1        0.1026
     21 C         -17.2128   -9.6164   -4.6372 C.ar    1  UNL1        0.2248
     22 N         -17.3001   -8.7182   -3.6156 N.ar    1  UNL1       -0.2101
     23 C         -18.0580   -7.5943   -3.7020 C.ar    1  UNL1        0.1021
     24 C         -18.7823   -7.3239   -4.8626 C.ar    1  UNL1        0.0209
     25 C         -18.7201   -8.2207   -5.9363 C.ar    1  UNL1        0.0060
     26 C         -19.4405   -7.9748   -7.1127 C.ar    1  UNL1        0.0003
     27 C         -19.3733   -8.8732   -8.1792 C.ar    1  UNL1        0.0045
     28 C         -18.5784  -10.0282   -8.0934 C.ar    1  UNL1        0.0537
     29 C         -17.8655  -10.2846   -6.9093 C.ar    1  UNL1        0.0092
     30 C         -17.9261   -9.3860   -5.8293 C.ar    1  UNL1        0.0534
     31 C         -15.1039  -10.8569   -5.0375 C.3     1  UNL1        0.2542
     32 O         -16.4181  -10.7614   -4.5013 O.3     1  UNL1       -0.4561
     33 C         -26.9413   -7.0794  -11.9206 C.3     1  UNL1        0.0867
     34 C         -27.7304   -7.6145  -13.1319 C.3     1  UNL1        0.0244
     35 C         -27.8246   -7.1307  -10.6610 C.3     1  UNL1        0.0244
     36 C         -26.5489   -5.6123  -12.1991 C.3     1  UNL1        0.0244
@<TRIPOS>BOND
     1    31    32    1
     2    32    21    1
     3    21    22   ar
     4    22    23   ar
     5    23    24   ar
     6    24    25   ar
     7    25    26   ar
     8    26    27   ar
     9    27    28   ar
    10    28     1    1
    11     1     2    2
    12     1     3   am
    13     3     4    1
    14     4     5    1
    15     5     6    1
    16     6     7    1
    17     7     8    1
    18     6     9    1
    19     9    10   am
    20    10    11    2
    21    10    12    1
    22    12    13   ar
    23    13    14   ar
    24    14    33    1
    25    33    34    1
    26    33    35    1
    27    33    36    1
    28    14    15   ar
    29    15    16   ar
    30    16    17    1
    31    17    18    1
    32    28    29   ar
    33    29    30   ar
    34    30    21   ar
    35    30    25   ar
    36     8     3    1
    37    16    12   ar
    38    17     6    1
    39     9    19    1
    40    18    20    1
