@<TRIPOS>MOLECULE
*****
 46 51 0 0 0
SMALL
GASTEIGER

@<TRIPOS>ATOM
      1 C          61.1467   84.2168   13.0816 C.ar    1  UNL1        0.0702
      2 C          60.0200   84.2593   12.2455 C.ar    1  UNL1        0.0191
      3 C          59.2964   83.0949   11.9847 C.ar    1  UNL1        0.0356
      4 C          59.7137   81.8794   12.5481 C.ar    1  UNL1        0.1318
      5 N          60.8166   81.8605   13.3471 N.ar    1  UNL1       -0.2279
      6 C          61.5374   82.9815   13.6135 C.ar    1  UNL1        0.1149
      7 N          58.9766   80.6639   12.3198 N.pl3   1  UNL1       -0.2932
      8 C          59.0141   79.5870   13.3248 C.3     1  UNL1        0.0923
      9 C          58.3919   78.2851   12.7921 C.3     1  UNL1        0.0252
     10 C          58.6204   78.1296   11.2776 C.3     1  UNL1        0.0472
     11 C          57.9169   79.2832   10.5250 C.3     1  UNL1        0.0252
     12 C          57.9553   80.6378   11.2637 C.3     1  UNL1        0.0923
     13 C          60.1273   77.9971   10.9497 C.3     1  UNL1        0.2054
     14 O          60.4786   78.7360    9.7772 O.3     1  UNL1       -0.4755
     15 C          61.0973   79.9991    9.7436 C.ar    1  UNL1        0.1388
     16 C          60.6588   81.0516    8.9152 C.ar    1  UNL1        0.0369
     17 C          61.3179   82.2816    8.9345 C.ar    1  UNL1        0.0033
     18 C          62.4194   82.4793    9.7691 C.ar    1  UNL1        0.0066
     19 C          62.8827   81.4386   10.5925 C.ar    1  UNL1        0.0785
     20 C          62.2058   80.2050   10.5748 C.ar    1  UNL1        0.0433
     21 C          64.0504   81.6301   11.4872 C.2     1  UNL1        0.3381
     22 O          64.0973   81.0256   12.5916 O.2     1  UNL1       -0.2451
     23 O          65.1182   82.4552   11.1356 O.3     1  UNL1       -0.4771
     24 H          65.1963   82.8883   10.2247 H       1  UNL1        0.2954
     25 C          61.9395   86.5635   12.5274 C.2     1  UNL1        0.2839
     26 O          61.0579   86.7202   11.6404 O.2     1  UNL1       -0.2665
     27 N          61.9307   85.3903   13.3569 N.am    1  UNL1       -0.2766
     28 H          62.4579   85.4232   14.2588 H       1  UNL1        0.1553
     29 C          63.9738   86.7831   14.9944 C.3     1  UNL1        0.0345
     30 C          63.8500   87.7060   13.8196 C.ar    1  UNL1        0.0202
     31 C          62.9606   87.6060   12.7438 C.ar    1  UNL1        0.1946
     32 O          63.1517   88.6085   11.9046 O.2     1  UNL1       -0.4492
     33 C          64.1197   89.3531   12.3803 C.ar    1  UNL1        0.1452
     34 C          64.6462   90.5116   11.8201 C.ar    1  UNL1        0.0375
     35 C          65.6891   91.1604   12.5037 C.ar    1  UNL1        0.0031
     36 C          66.1878   90.6447   13.7304 C.ar    1  UNL1        0.0002
     37 C          65.6238   89.4620   14.2663 C.ar    1  UNL1        0.0028
     38 C          64.5901   88.8438   13.5609 C.ar    1  UNL1        0.0337
     39 C          67.2898   91.3390   14.4438 C.ar    1  UNL1        0.0002
     40 C          67.0097   92.3481   15.3839 C.ar    1  UNL1        0.0031
     41 C          68.0486   92.9998   16.0551 C.ar    1  UNL1        0.0366
     42 C          69.3786   92.6555   15.7981 C.ar    1  UNL1        0.1337
     43 O          70.4031   93.3140   16.4744 O.3     1  UNL1       -0.5055
     44 C          69.6680   91.6529   14.8640 C.ar    1  UNL1        0.0366
     45 C          68.6319   90.9982   14.1915 C.ar    1  UNL1        0.0031
     46 H          71.3771   93.0872   16.3103 H       1  UNL1        0.2922
@<TRIPOS>BOND
     1    29    30    1
     2    30    31   ar
     3    31    25    1
     4    25    26    2
     5    25    27   am
     6    27     1    1
     7     1     2   ar
     8     2     3   ar
     9     3     4   ar
    10     4     7    1
    11     7     8    1
    12     8     9    1
    13     9    10    1
    14    10    13    1
    15    13    14    1
    16    14    15    1
    17    15    16   ar
    18    16    17   ar
    19    17    18   ar
    20    18    19   ar
    21    19    21    1
    22    21    22    2
    23    21    23    1
    24    19    20   ar
    25    10    11    1
    26    11    12    1
    27     4     5   ar
    28     5     6   ar
    29    31    32   ar
    30    32    33   ar
    31    33    34   ar
    32    34    35   ar
    33    35    36   ar
    34    36    39    1
    35    39    40   ar
    36    40    41   ar
    37    41    42   ar
    38    42    43    1
    39    42    44   ar
    40    44    45   ar
    41    36    37   ar
    42    37    38   ar
    43    38    30   ar
    44     6     1   ar
    45    38    33   ar
    46    12     7    1
    47    45    39   ar
    48    20    15   ar
    49    27    28    1
    50    23    24    1
    51    43    46    1
@<TRIPOS>MOLECULE
*****
 46 51 0 0 0
SMALL
GASTEIGER

@<TRIPOS>ATOM
      1 C          61.1430   84.2754   13.0964 C.ar    1  UNL1        0.0702
      2 C          59.7864   84.3570   12.7456 C.ar    1  UNL1        0.0191
      3 C          59.0625   83.1960   12.4704 C.ar    1  UNL1        0.0356
      4 C          59.7045   81.9496   12.5279 C.ar    1  UNL1        0.1318
      5 N          61.0246   81.8961   12.8594 N.ar    1  UNL1       -0.2279
      6 C          61.7495   83.0134   13.1298 C.ar    1  UNL1        0.1149
      7 N          58.9822   80.7303   12.2740 N.pl3   1  UNL1       -0.2932
      8 C          59.0381   79.6305   13.2530 C.3     1  UNL1        0.0923
      9 C          58.4304   78.3336   12.6920 C.3     1  UNL1        0.0252
     10 C          58.6542   78.2170   11.1734 C.3     1  UNL1        0.0472
     11 C          57.9325   79.3788   10.4513 C.3     1  UNL1        0.0252
     12 C          57.9567   80.7160   11.2217 C.3     1  UNL1        0.0923
     13 C          60.1612   78.1119   10.8362 C.3     1  UNL1        0.2054
     14 O          60.5213   78.9767    9.7561 O.3     1  UNL1       -0.4755
     15 C          61.3938   80.0781    9.8270 C.ar    1  UNL1        0.1388
     16 C          62.6895   80.0023   10.3762 C.ar    1  UNL1        0.0369
     17 C          63.5044   81.1347   10.4118 C.ar    1  UNL1        0.0033
     18 C          63.0426   82.3528    9.9097 C.ar    1  UNL1        0.0066
     19 C          61.7484   82.4544    9.3711 C.ar    1  UNL1        0.0785
     20 C          60.9373   81.3053    9.3293 C.ar    1  UNL1        0.0433
     21 C          61.2407   83.7395    8.8314 C.2     1  UNL1        0.3381
     22 O          60.8440   83.8027    7.6372 O.2     1  UNL1       -0.2451
     23 O          61.1729   84.8906    9.6157 O.3     1  UNL1       -0.4771
     24 H          61.3760   84.8884   10.6067 H       1  UNL1        0.2954
     25 C          61.9792   86.5973   12.5029 C.2     1  UNL1        0.2839
     26 O          61.1326   86.7351   11.5792 O.2     1  UNL1       -0.2665
     27 N          61.9280   85.4497   13.3659 N.am    1  UNL1       -0.2766
     28 H          62.4216   85.5049   14.2854 H       1  UNL1        0.1553
     29 C          63.9943   86.8131   14.9859 C.3     1  UNL1        0.0345
     30 C          63.8829   87.7352   13.8091 C.ar    1  UNL1        0.0202
     31 C          63.0018   87.6368   12.7263 C.ar    1  UNL1        0.1946
     32 O          63.2028   88.6377   11.8875 O.2     1  UNL1       -0.4492
     33 C          64.1694   89.3798   12.3702 C.ar    1  UNL1        0.1452
     34 C          64.7041   90.5360   11.8130 C.ar    1  UNL1        0.0375
     35 C          65.7435   91.1822   12.5042 C.ar    1  UNL1        0.0031
     36 C          66.2307   90.6663   13.7354 C.ar    1  UNL1        0.0002
     37 C          65.6587   89.4859   14.2680 C.ar    1  UNL1        0.0028
     38 C          64.6287   88.8703   13.5551 C.ar    1  UNL1        0.0337
     39 C          67.3292   91.3578   14.4568 C.ar    1  UNL1        0.0002
     40 C          67.0442   92.3589   15.4040 C.ar    1  UNL1        0.0031
     41 C          68.0799   93.0081   16.0828 C.ar    1  UNL1        0.0366
     42 C          69.4114   92.6691   15.8264 C.ar    1  UNL1        0.1337
     43 O          70.4325   93.3250   16.5103 O.3     1  UNL1       -0.5055
     44 C          69.7056   91.6745   14.8854 C.ar    1  UNL1        0.0366
     45 C          68.6728   91.0223   14.2053 C.ar    1  UNL1        0.0031
     46 H          71.4074   93.1019   16.3468 H       1  UNL1        0.2922
@<TRIPOS>BOND
     1    29    30    1
     2    30    31   ar
     3    31    25    1
     4    25    26    2
     5    25    27   am
     6    27     1    1
     7     1     2   ar
     8     2     3   ar
     9     3     4   ar
    10     4     7    1
    11     7     8    1
    12     8     9    1
    13     9    10    1
    14    10    13    1
    15    13    14    1
    16    14    15    1
    17    15    16   ar
    18    16    17   ar
    19    17    18   ar
    20    18    19   ar
    21    19    21    1
    22    21    22    2
    23    21    23    1
    24    19    20   ar
    25    10    11    1
    26    11    12    1
    27     4     5   ar
    28     5     6   ar
    29    31    32   ar
    30    32    33   ar
    31    33    34   ar
    32    34    35   ar
    33    35    36   ar
    34    36    39    1
    35    39    40   ar
    36    40    41   ar
    37    41    42   ar
    38    42    43    1
    39    42    44   ar
    40    44    45   ar
    41    36    37   ar
    42    37    38   ar
    43    38    30   ar
    44     6     1   ar
    45    38    33   ar
    46    12     7    1
    47    45    39   ar
    48    20    15   ar
    49    27    28    1
    50    23    24    1
    51    43    46    1
@<TRIPOS>MOLECULE
*****
 46 51 0 0 0
SMALL
GASTEIGER

@<TRIPOS>ATOM
      1 C          61.6543   87.3095    9.5985 C.ar    1  UNL1        0.0702
      2 C          61.5739   85.9146    9.4645 C.ar    1  UNL1        0.0191
      3 C          61.7967   85.0904   10.5684 C.ar    1  UNL1        0.0356
      4 C          62.1202   85.6645   11.8073 C.ar    1  UNL1        0.1318
      5 N          62.2038   87.0201   11.9106 N.ar    1  UNL1       -0.2279
      6 C          61.9924   87.8420   10.8490 C.ar    1  UNL1        0.1149
      7 N          62.3323   84.8453   12.9721 N.pl3   1  UNL1       -0.2932
      8 C          63.5981   84.1068   13.1253 C.3     1  UNL1        0.0923
      9 C          63.5339   83.0951   14.2822 C.3     1  UNL1        0.0252
     10 C          62.1154   82.5215   14.4514 C.3     1  UNL1        0.0472
     11 C          61.1352   83.6599   14.8194 C.3     1  UNL1        0.0252
     12 C          61.4394   85.0058   14.1279 C.3     1  UNL1        0.0923
     13 C          61.6884   81.7078   13.2058 C.3     1  UNL1        0.2054
     14 O          60.2920   81.8520   12.9351 O.3     1  UNL1       -0.4755
     15 C          59.5095   81.0079   12.1261 C.ar    1  UNL1        0.1388
     16 C          59.0539   79.7419   12.5455 C.ar    1  UNL1        0.0369
     17 C          58.2776   78.9568   11.6918 C.ar    1  UNL1        0.0033
     18 C          57.9500   79.4149   10.4143 C.ar    1  UNL1        0.0066
     19 C          58.4062   80.6680    9.9702 C.ar    1  UNL1        0.0785
     20 C          59.1795   81.4577   10.8413 C.ar    1  UNL1        0.0433
     21 C          58.0672   81.1724    8.6170 C.2     1  UNL1        0.3381
     22 O          57.1265   81.9986    8.4756 O.2     1  UNL1       -0.2451
     23 O          58.7734   80.7694    7.4841 O.3     1  UNL1       -0.4771
     24 H          59.6023   80.1917    7.5346 H       1  UNL1        0.2954
     25 C          60.2792   88.1819    7.6515 C.2     1  UNL1        0.2839
     26 O          59.2459   87.5618    8.0210 O.2     1  UNL1       -0.2665
     27 N          61.4527   88.1910    8.4805 N.am    1  UNL1       -0.2766
     28 H          62.1641   88.9388    8.3155 H       1  UNL1        0.1553
     29 C          57.7078   89.1378    5.9941 C.3     1  UNL1        0.0345
     30 C          59.1523   89.3540    5.6562 C.ar    1  UNL1        0.0202
     31 C          60.2723   88.9355    6.3832 C.ar    1  UNL1        0.1946
     32 O          61.3784   89.3117    5.7660 O.2     1  UNL1       -0.4492
     33 C          61.0333   89.9532    4.6765 C.ar    1  UNL1        0.1452
     34 C          61.8773   90.5209    3.7285 C.ar    1  UNL1        0.0375
     35 C          61.2919   91.1659    2.6254 C.ar    1  UNL1        0.0031
     36 C          59.8792   91.2339    2.4865 C.ar    1  UNL1        0.0002
     37 C          59.0556   90.6431    3.4749 C.ar    1  UNL1        0.0028
     38 C          59.6707   90.0112    4.5568 C.ar    1  UNL1        0.0337
     39 C          59.2720   91.9180    1.3166 C.ar    1  UNL1        0.0002
     40 C          58.2605   91.2900    0.5662 C.ar    1  UNL1        0.0031
     41 C          57.6895   91.9361   -0.5344 C.ar    1  UNL1        0.0366
     42 C          58.1190   93.2145   -0.9015 C.ar    1  UNL1        0.1337
     43 O          57.5409   93.8455   -2.0007 O.3     1  UNL1       -0.5055
     44 C          59.1253   93.8479   -0.1615 C.ar    1  UNL1        0.0366
     45 C          59.6980   93.2055    0.9402 C.ar    1  UNL1        0.0031
     46 H          57.8304   94.7720   -2.2920 H       1  UNL1        0.2922
@<TRIPOS>BOND
     1    29    30    1
     2    30    31   ar
     3    31    25    1
     4    25    26    2
     5    25    27   am
     6    27     1    1
     7     1     2   ar
     8     2     3   ar
     9     3     4   ar
    10     4     7    1
    11     7     8    1
    12     8     9    1
    13     9    10    1
    14    10    13    1
    15    13    14    1
    16    14    15    1
    17    15    16   ar
    18    16    17   ar
    19    17    18   ar
    20    18    19   ar
    21    19    21    1
    22    21    22    2
    23    21    23    1
    24    19    20   ar
    25    10    11    1
    26    11    12    1
    27     4     5   ar
    28     5     6   ar
    29    31    32   ar
    30    32    33   ar
    31    33    34   ar
    32    34    35   ar
    33    35    36   ar
    34    36    39    1
    35    39    40   ar
    36    40    41   ar
    37    41    42   ar
    38    42    43    1
    39    42    44   ar
    40    44    45   ar
    41    36    37   ar
    42    37    38   ar
    43    38    30   ar
    44     6     1   ar
    45    38    33   ar
    46    12     7    1
    47    45    39   ar
    48    20    15   ar
    49    27    28    1
    50    23    24    1
    51    43    46    1
@<TRIPOS>MOLECULE
*****
 46 51 0 0 0
SMALL
GASTEIGER

@<TRIPOS>ATOM
      1 C          59.5117   84.8958   10.2779 C.ar    1  UNL1        0.0702
      2 C          58.3495   84.2721   10.7580 C.ar    1  UNL1        0.0191
      3 C          58.4457   83.1529   11.5862 C.ar    1  UNL1        0.0356
      4 C          59.7104   82.6447   11.9195 C.ar    1  UNL1        0.1318
      5 N          60.8239   83.2598   11.4324 N.ar    1  UNL1       -0.2279
      6 C          60.7542   84.3496   10.6233 C.ar    1  UNL1        0.1149
      7 N          59.8469   81.5069   12.7910 N.pl3   1  UNL1       -0.2932
      8 C          61.1352   81.2471   13.4572 C.3     1  UNL1        0.0923
      9 C          61.1646   79.8625   14.1263 C.3     1  UNL1        0.0252
     10 C          60.3176   78.8411   13.3457 C.3     1  UNL1        0.0472
     11 C          58.8368   79.2877   13.3437 C.3     1  UNL1        0.0252
     12 C          58.6360   80.8154   13.2544 C.3     1  UNL1        0.0923
     13 C          60.8982   78.5966   11.9319 C.3     1  UNL1        0.2054
     14 O          59.8641   78.4480   10.9557 O.3     1  UNL1       -0.4755
     15 C          59.3841   79.4499   10.0926 C.ar    1  UNL1        0.1388
     16 C          58.0171   79.6247    9.7976 C.ar    1  UNL1        0.0369
     17 C          57.6096   80.6425    8.9340 C.ar    1  UNL1        0.0033
     18 C          58.5511   81.4924    8.3507 C.ar    1  UNL1        0.0066
     19 C          59.9207   81.3266    8.6193 C.ar    1  UNL1        0.0785
     20 C          60.3220   80.3047    9.4996 C.ar    1  UNL1        0.0433
     21 C          60.9357   82.2208    8.0103 C.2     1  UNL1        0.3381
     22 O          60.7458   82.6864    6.8551 O.2     1  UNL1       -0.2451
     23 O          62.1004   82.5798    8.6881 O.3     1  UNL1       -0.4771
     24 H          62.2695   82.3285    9.6533 H       1  UNL1        0.2954
     25 C          58.6043   86.1228    8.2496 C.2     1  UNL1        0.2839
     26 O          57.6725   85.2904    8.0838 O.2     1  UNL1       -0.2665
     27 N          59.4538   86.0372    9.4053 N.am    1  UNL1       -0.2766
     28 H          59.9982   86.8867    9.6779 H       1  UNL1        0.1553
     29 C          61.3245   86.8905    6.7384 C.3     1  UNL1        0.0345
     30 C          59.9854   87.5529    6.6148 C.ar    1  UNL1        0.0202
     31 C          58.7996   87.2139    7.2761 C.ar    1  UNL1        0.1946
     32 O          57.8278   88.0303    6.9088 O.2     1  UNL1       -0.4492
     33 C          58.3221   88.8809    6.0428 C.ar    1  UNL1        0.1452
     34 C          57.6520   89.9154    5.3993 C.ar    1  UNL1        0.0375
     35 C          58.3798   90.7161    4.5023 C.ar    1  UNL1        0.0031
     36 C          59.7592   90.4728    4.2627 C.ar    1  UNL1        0.0002
     37 C          60.4037   89.4087    4.9384 C.ar    1  UNL1        0.0028
     38 C          59.6505   88.6337    5.8217 C.ar    1  UNL1        0.0337
     39 C          60.5180   91.3256    3.3128 C.ar    1  UNL1        0.0002
     40 C          61.8959   91.1216    3.1117 C.ar    1  UNL1        0.0031
     41 C          62.6082   91.9251    2.2163 C.ar    1  UNL1        0.0366
     42 C          61.9578   92.9415    1.5110 C.ar    1  UNL1        0.1337
     43 O          62.6809   93.7341    0.6226 O.3     1  UNL1       -0.5055
     44 C          60.5869   93.1529    1.7043 C.ar    1  UNL1        0.0366
     45 C          59.8709   92.3510    2.5981 C.ar    1  UNL1        0.0031
     46 H          62.2382   94.4787    0.0966 H       1  UNL1        0.2922
@<TRIPOS>BOND
     1    29    30    1
     2    30    31   ar
     3    31    25    1
     4    25    26    2
     5    25    27   am
     6    27     1    1
     7     1     2   ar
     8     2     3   ar
     9     3     4   ar
    10     4     7    1
    11     7     8    1
    12     8     9    1
    13     9    10    1
    14    10    13    1
    15    13    14    1
    16    14    15    1
    17    15    16   ar
    18    16    17   ar
    19    17    18   ar
    20    18    19   ar
    21    19    21    1
    22    21    22    2
    23    21    23    1
    24    19    20   ar
    25    10    11    1
    26    11    12    1
    27     4     5   ar
    28     5     6   ar
    29    31    32   ar
    30    32    33   ar
    31    33    34   ar
    32    34    35   ar
    33    35    36   ar
    34    36    39    1
    35    39    40   ar
    36    40    41   ar
    37    41    42   ar
    38    42    43    1
    39    42    44   ar
    40    44    45   ar
    41    36    37   ar
    42    37    38   ar
    43    38    30   ar
    44     6     1   ar
    45    38    33   ar
    46    12     7    1
    47    45    39   ar
    48    20    15   ar
    49    27    28    1
    50    23    24    1
    51    43    46    1
@<TRIPOS>MOLECULE
*****
 46 51 0 0 0
SMALL
GASTEIGER

@<TRIPOS>ATOM
      1 C          61.1992   85.5432   11.8197 C.ar    1  UNL1        0.0702
      2 C          59.8052   85.7070   11.8389 C.ar    1  UNL1        0.0191
      3 C          58.9751   84.7087   11.3272 C.ar    1  UNL1        0.0356
      4 C          59.5436   83.5500   10.7767 C.ar    1  UNL1        0.1318
      5 N          60.8992   83.4182   10.7587 N.ar    1  UNL1       -0.2279
      6 C          61.7269   84.3778   11.2498 C.ar    1  UNL1        0.1149
      7 N          58.7163   82.4898   10.2624 N.pl3   1  UNL1       -0.2932
      8 C          58.9942   81.0946   10.6462 C.3     1  UNL1        0.0923
      9 C          58.1842   80.0965    9.8015 C.3     1  UNL1        0.0252
     10 C          57.9553   80.6226    8.3729 C.3     1  UNL1        0.0472
     11 C          57.1178   81.9218    8.4259 C.3     1  UNL1        0.0252
     12 C          57.4322   82.8293    9.6341 C.3     1  UNL1        0.0923
     13 C          59.2940   80.7729    7.6107 C.3     1  UNL1        0.2054
     14 O          59.3751   82.0275    6.9298 O.3     1  UNL1       -0.4755
     15 C          60.2415   83.0905    7.2439 C.ar    1  UNL1        0.1388
     16 C          61.6293   82.9268    7.4270 C.ar    1  UNL1        0.0369
     17 C          62.4316   84.0266    7.7342 C.ar    1  UNL1        0.0033
     18 C          61.8673   85.2966    7.8684 C.ar    1  UNL1        0.0066
     19 C          60.4835   85.4800    7.7047 C.ar    1  UNL1        0.0785
     20 C          59.6834   84.3676    7.3845 C.ar    1  UNL1        0.0433
     21 C          59.8659   86.8218    7.8417 C.2     1  UNL1        0.3381
     22 O          59.4602   87.4307    6.8161 O.2     1  UNL1       -0.2451
     23 O          59.7037   87.4328    9.0848 O.3     1  UNL1       -0.4771
     24 H          59.9105   86.9615    9.9556 H       1  UNL1        0.2954
     25 C          62.2668   87.8429   11.6999 C.2     1  UNL1        0.2839
     26 O          61.4557   88.2434   10.8222 O.2     1  UNL1       -0.2665
     27 N          62.0883   86.5578   12.3174 N.am    1  UNL1       -0.2766
     28 H          62.5669   86.3811   13.2295 H       1  UNL1        0.1553
     29 C          63.9300   87.6411   14.4323 C.3     1  UNL1        0.0345
     30 C          64.1085   88.6276   13.3177 C.ar    1  UNL1        0.0202
     31 C          63.3804   88.7118   12.1256 C.ar    1  UNL1        0.1946
     32 O          63.8295   89.7142   11.3914 O.2     1  UNL1       -0.4492
     33 C          64.8119   90.2842   12.0456 C.ar    1  UNL1        0.1452
     34 C          65.5705   91.3780   11.6439 C.ar    1  UNL1        0.0375
     35 C          66.5825   91.8322   12.5072 C.ar    1  UNL1        0.0031
     36 C          66.8202   91.1902   13.7525 C.ar    1  UNL1        0.0002
     37 C          66.0251   90.0792   14.1234 C.ar    1  UNL1        0.0028
     38 C          65.0295   89.6549   13.2419 C.ar    1  UNL1        0.0337
     39 C          67.8922   91.6792   14.6565 C.ar    1  UNL1        0.0002
     40 C          67.8319   92.9749   15.2025 C.ar    1  UNL1        0.0031
     41 C          68.8416   93.4331   16.0541 C.ar    1  UNL1        0.0366
     42 C          69.9236   92.6074   16.3718 C.ar    1  UNL1        0.1337
     43 O          70.9223   93.0779   17.2214 O.3     1  UNL1       -0.5055
     44 C          69.9932   91.3164   15.8333 C.ar    1  UNL1        0.0366
     45 C          68.9850   90.8543   14.9822 C.ar    1  UNL1        0.0031
     46 H          71.7192   92.5036   17.4707 H       1  UNL1        0.2922
@<TRIPOS>BOND
     1    29    30    1
     2    30    31   ar
     3    31    25    1
     4    25    26    2
     5    25    27   am
     6    27     1    1
     7     1     2   ar
     8     2     3   ar
     9     3     4   ar
    10     4     7    1
    11     7     8    1
    12     8     9    1
    13     9    10    1
    14    10    13    1
    15    13    14    1
    16    14    15    1
    17    15    16   ar
    18    16    17   ar
    19    17    18   ar
    20    18    19   ar
    21    19    21    1
    22    21    22    2
    23    21    23    1
    24    19    20   ar
    25    10    11    1
    26    11    12    1
    27     4     5   ar
    28     5     6   ar
    29    31    32   ar
    30    32    33   ar
    31    33    34   ar
    32    34    35   ar
    33    35    36   ar
    34    36    39    1
    35    39    40   ar
    36    40    41   ar
    37    41    42   ar
    38    42    43    1
    39    42    44   ar
    40    44    45   ar
    41    36    37   ar
    42    37    38   ar
    43    38    30   ar
    44     6     1   ar
    45    38    33   ar
    46    12     7    1
    47    45    39   ar
    48    20    15   ar
    49    27    28    1
    50    23    24    1
    51    43    46    1
@<TRIPOS>MOLECULE
*****
 46 51 0 0 0
SMALL
GASTEIGER

@<TRIPOS>ATOM
      1 C          59.1657   84.2545    9.7486 C.ar    1  UNL1        0.0702
      2 C          58.8009   84.2663   11.1039 C.ar    1  UNL1        0.0191
      3 C          58.6517   83.0660   11.8002 C.ar    1  UNL1        0.0356
      4 C          58.8501   81.8484   11.1316 C.ar    1  UNL1        0.1318
      5 N          59.1924   81.8614    9.8133 N.ar    1  UNL1       -0.2279
      6 C          59.3416   83.0179    9.1150 C.ar    1  UNL1        0.1149
      7 N          58.7285   80.5926   11.8252 N.pl3   1  UNL1       -0.2932
      8 C          58.6723   80.5735   13.2975 C.3     1  UNL1        0.0923
      9 C          58.8083   79.1472   13.8570 C.3     1  UNL1        0.0252
     10 C          59.7122   78.2760   12.9660 C.3     1  UNL1        0.0472
     11 C          59.0748   78.1303   11.5643 C.3     1  UNL1        0.0252
     12 C          58.3424   79.3946   11.0671 C.3     1  UNL1        0.0923
     13 C          61.1619   78.8178   12.9398 C.3     1  UNL1        0.2054
     14 O          61.4749   79.4257   11.6842 O.3     1  UNL1       -0.4755
     15 C          62.4005   80.4632   11.4694 C.ar    1  UNL1        0.1388
     16 C          62.8869   80.8120   10.1935 C.ar    1  UNL1        0.0369
     17 C          63.8027   81.8555   10.0522 C.ar    1  UNL1        0.0033
     18 C          64.2494   82.5593   11.1722 C.ar    1  UNL1        0.0066
     19 C          63.7888   82.2185   12.4556 C.ar    1  UNL1        0.0785
     20 C          62.8573   81.1720   12.5880 C.ar    1  UNL1        0.0433
     21 C          64.2506   82.9556   13.6573 C.2     1  UNL1        0.3381
     22 O          63.4114   83.5422   14.3914 O.2     1  UNL1       -0.2451
     23 O          65.5976   83.0089   14.0143 O.3     1  UNL1       -0.4771
     24 H          66.3112   82.4782   13.5323 H       1  UNL1        0.2954
     25 C          58.3170   85.9668    8.0781 C.2     1  UNL1        0.2839
     26 O          57.1511   85.4877    8.0834 O.2     1  UNL1       -0.2665
     27 N          59.3080   85.4687    8.9915 N.am    1  UNL1       -0.2766
     28 H          60.1436   86.0667    9.1828 H       1  UNL1        0.1553
     29 C          61.1485   86.5035    6.6756 C.3     1  UNL1        0.0345
     30 C          59.8908   87.3090    6.5463 C.ar    1  UNL1        0.0202
     31 C          58.6560   87.0706    7.1600 C.ar    1  UNL1        0.1946
     32 O          57.7872   88.0002    6.8039 O.2     1  UNL1       -0.4492
     33 C          58.3948   88.8289    5.9903 C.ar    1  UNL1        0.1452
     34 C          57.8574   89.9547    5.3763 C.ar    1  UNL1        0.0375
     35 C          58.6928   90.7104    4.5357 C.ar    1  UNL1        0.0031
     36 C          60.0459   90.3320    4.3222 C.ar    1  UNL1        0.0002
     37 C          60.5537   89.1782    4.9664 C.ar    1  UNL1        0.0028
     38 C          59.6961   88.4515    5.7938 C.ar    1  UNL1        0.0337
     39 C          60.9192   91.1384    3.4320 C.ar    1  UNL1        0.0002
     40 C          60.3912   92.2155    2.6961 C.ar    1  UNL1        0.0031
     41 C          61.2153   92.9740    1.8592 C.ar    1  UNL1        0.0366
     42 C          62.5744   92.6690    1.7444 C.ar    1  UNL1        0.1337
     43 O          63.3829   93.4335    0.9064 O.3     1  UNL1       -0.5055
     44 C          63.1096   91.5988    2.4722 C.ar    1  UNL1        0.0366
     45 C          62.2890   90.8387    3.3108 C.ar    1  UNL1        0.0031
     46 H          64.3717   93.2377    0.8017 H       1  UNL1        0.2922
@<TRIPOS>BOND
     1    29    30    1
     2    30    31   ar
     3    31    25    1
     4    25    26    2
     5    25    27   am
     6    27     1    1
     7     1     2   ar
     8     2     3   ar
     9     3     4   ar
    10     4     7    1
    11     7     8    1
    12     8     9    1
    13     9    10    1
    14    10    13    1
    15    13    14    1
    16    14    15    1
    17    15    16   ar
    18    16    17   ar
    19    17    18   ar
    20    18    19   ar
    21    19    21    1
    22    21    22    2
    23    21    23    1
    24    19    20   ar
    25    10    11    1
    26    11    12    1
    27     4     5   ar
    28     5     6   ar
    29    31    32   ar
    30    32    33   ar
    31    33    34   ar
    32    34    35   ar
    33    35    36   ar
    34    36    39    1
    35    39    40   ar
    36    40    41   ar
    37    41    42   ar
    38    42    43    1
    39    42    44   ar
    40    44    45   ar
    41    36    37   ar
    42    37    38   ar
    43    38    30   ar
    44     6     1   ar
    45    38    33   ar
    46    12     7    1
    47    45    39   ar
    48    20    15   ar
    49    27    28    1
    50    23    24    1
    51    43    46    1
