@<TRIPOS>MOLECULE
*****
 50 55 0 0 0
SMALL
GASTEIGER

@<TRIPOS>ATOM
      1 O         -63.8746  -44.5637  -20.3230 O.2     1  UNL1       -0.2701
      2 C         -63.5863  -43.5147  -20.9615 C.2     1  UNL1        0.2483
      3 N         -63.7771  -42.2274  -20.3532 N.am    1  UNL1       -0.2945
      4 H         -63.6686  -41.3742  -20.9471 H       1  UNL1        0.1501
      5 C         -63.1193  -43.6235  -22.3597 C.ar    1  UNL1        0.0808
      6 C         -63.4287  -42.6041  -23.2732 C.ar    1  UNL1        0.0080
      7 C         -62.9594  -42.6619  -24.5873 C.ar    1  UNL1        0.0148
      8 C         -62.1785  -43.7474  -25.0209 C.ar    1  UNL1        0.0502
      9 C         -61.8922  -44.7811  -24.1116 C.ar    1  UNL1        0.0443
     10 C         -62.3571  -44.7232  -22.7941 C.ar    1  UNL1        0.1457
     11 F         -62.0922  -45.7613  -21.9609 F       1  UNL1       -0.2040
     12 N         -61.6874  -43.8055  -26.3789 N.pl3   1  UNL1       -0.3040
     13 C         -61.3138  -45.0962  -26.9751 C.3     1  UNL1        0.1122
     14 C         -61.5501  -45.0850  -28.4886 C.3     1  UNL1        0.1122
     15 N         -60.9246  -43.9152  -29.1253 N.pl3   1  UNL1       -0.3040
     16 C         -60.5154  -42.7653  -28.3059 C.3     1  UNL1        0.1122
     17 C         -61.4814  -42.5602  -27.1348 C.3     1  UNL1        0.1122
     18 C         -60.6361  -43.9393  -30.5415 C.ar    1  UNL1        0.0488
     19 C         -59.3902  -44.3944  -31.0095 C.ar    1  UNL1        0.0154
     20 C         -59.1107  -44.4155  -32.3781 C.ar    1  UNL1        0.0135
     21 C         -60.0665  -43.9815  -33.3012 C.ar    1  UNL1        0.0683
     22 CL        -59.6765  -44.0235  -35.0154 Cl      1  UNL1       -0.0814
     23 C         -61.3132  -43.5213  -32.8482 C.ar    1  UNL1        0.0694
     24 CL        -62.5409  -42.9595  -33.9752 Cl      1  UNL1       -0.0813
     25 C         -61.5925  -43.5011  -31.4766 C.ar    1  UNL1        0.0268
     26 C         -64.3733  -42.0639  -19.0245 C.3     1  UNL1        0.1535
     27 C         -63.6163  -41.0069  -18.2490 C.2     1  UNL1        0.2443
     28 O         -64.2214  -40.3056  -17.3954 O.2     1  UNL1       -0.2730
     29 N         -62.2133  -40.7832  -18.4579 N.am    1  UNL1       -0.2827
     30 H         -61.6683  -40.3538  -17.6772 H       1  UNL1        0.1549
     31 C         -61.5384  -41.0543  -19.6980 C.ar    1  UNL1        0.0517
     32 C         -60.6640  -42.1476  -19.7956 C.ar    1  UNL1        0.0351
     33 C         -60.0141  -42.4085  -21.0010 C.ar    1  UNL1        0.1001
     34 N         -60.2343  -41.6135  -22.0791 N.ar    1  UNL1       -0.2425
     35 C         -61.0843  -40.5547  -22.0251 C.ar    1  UNL1        0.0982
     36 C         -61.7680  -40.2506  -20.8360 C.ar    1  UNL1        0.0396
     37 C         -62.6817  -39.0543  -20.7813 C.3     1  UNL1        0.1664
     38 O         -63.6167  -39.1318  -21.8210 O.3     1  UNL1       -0.3771
     39 H         -64.1622  -38.3048  -21.7636 H       1  UNL1        0.2109
     40 C         -65.8864  -41.7581  -19.1226 C.3     1  UNL1        0.0569
     41 C         -66.2291  -40.6769  -20.1140 C.ar    1  UNL1       -0.0017
     42 C         -66.2751  -39.3070  -19.8696 C.ar    1  UNL1        0.0681
     43 N         -66.5547  -38.6317  -21.0075 N.ar    1  UNL1       -0.3523
     44 C         -66.6903  -39.5617  -21.9683 C.ar    1  UNL1        0.0563
     45 C         -66.9708  -39.3476  -23.3173 C.ar    1  UNL1        0.0170
     46 C         -67.0661  -40.4730  -24.1563 C.ar    1  UNL1        0.0015
     47 C         -66.8908  -41.7726  -23.6323 C.ar    1  UNL1        0.0001
     48 C         -66.6153  -41.9581  -22.2659 C.ar    1  UNL1        0.0012
     49 C         -66.5076  -40.8228  -21.4612 C.ar    1  UNL1        0.0131
     50 H         -66.6411  -37.5965  -21.1146 H       1  UNL1        0.1660
@<TRIPOS>BOND
     1     1     2    2
     2     2     3   am
     3     3    26    1
     4    26    40    1
     5    40    41    1
     6    41    42   ar
     7    42    43   ar
     8    43    44   ar
     9    44    45   ar
    10    45    46   ar
    11    46    47   ar
    12    47    48   ar
    13    48    49   ar
    14    26    27    1
    15    27    28    2
    16    27    29   am
    17    29    31    1
    18    31    32   ar
    19    32    33   ar
    20    33    34   ar
    21    34    35   ar
    22    35    36   ar
    23    36    37    1
    24    37    38    1
    25     2     5    1
    26     5     6   ar
    27     6     7   ar
    28     7     8   ar
    29     8    12    1
    30    12    13    1
    31    13    14    1
    32    14    15    1
    33    15    18    1
    34    18    19   ar
    35    19    20   ar
    36    20    21   ar
    37    21    22    1
    38    21    23   ar
    39    23    24    1
    40    23    25   ar
    41    15    16    1
    42    16    17    1
    43     8     9   ar
    44     9    10   ar
    45    10    11    1
    46    49    41   ar
    47    36    31   ar
    48    10     5   ar
    49    49    44   ar
    50    17    12    1
    51    25    18   ar
    52     3     4    1
    53    43    50    1
    54    29    30    1
    55    38    39    1
@<TRIPOS>MOLECULE
*****
 50 55 0 0 0
SMALL
GASTEIGER

@<TRIPOS>ATOM
      1 O         -62.6860  -41.0696  -20.2025 O.2     1  UNL1       -0.2701
      2 C         -63.2248  -40.5592  -21.2225 C.2     1  UNL1        0.2483
      3 N         -64.1955  -39.5107  -21.0742 N.am    1  UNL1       -0.2945
      4 H         -64.7309  -39.2040  -21.9178 H       1  UNL1        0.1501
      5 C         -62.8990  -41.0982  -22.5596 C.ar    1  UNL1        0.0808
      6 C         -63.8560  -41.0315  -23.5839 C.ar    1  UNL1        0.0080
      7 C         -63.5552  -41.4918  -24.8677 C.ar    1  UNL1        0.0148
      8 C         -62.2929  -42.0403  -25.1534 C.ar    1  UNL1        0.0502
      9 C         -61.3446  -42.1312  -24.1191 C.ar    1  UNL1        0.0443
     10 C         -61.6418  -41.6667  -22.8341 C.ar    1  UNL1        0.1457
     11 F         -60.7124  -41.8106  -21.8554 F       1  UNL1       -0.2040
     12 N         -61.9785  -42.5117  -26.4829 N.pl3   1  UNL1       -0.3040
     13 C         -63.0569  -42.7947  -27.4410 C.3     1  UNL1        0.1122
     14 C         -62.5882  -42.5431  -28.8775 C.3     1  UNL1        0.1122
     15 N         -61.3217  -43.2358  -29.1627 N.pl3   1  UNL1       -0.3040
     16 C         -60.4890  -43.7273  -28.0554 C.3     1  UNL1        0.1122
     17 C         -60.5804  -42.7894  -26.8476 C.3     1  UNL1        0.1122
     18 C         -60.9460  -43.5067  -30.5319 C.ar    1  UNL1        0.0488
     19 C         -59.7030  -44.0942  -30.8292 C.ar    1  UNL1        0.0154
     20 C         -59.3391  -44.3538  -32.1527 C.ar    1  UNL1        0.0135
     21 C         -60.2062  -44.0303  -33.2004 C.ar    1  UNL1        0.0683
     22 CL        -59.7115  -44.3728  -34.8528 Cl      1  UNL1       -0.0814
     23 C         -61.4486  -43.4401  -32.9188 C.ar    1  UNL1        0.0694
     24 CL        -62.5657  -43.0106  -34.2074 Cl      1  UNL1       -0.0813
     25 C         -61.8126  -43.1808  -31.5922 C.ar    1  UNL1        0.0268
     26 C         -64.6575  -39.0435  -19.7642 C.3     1  UNL1        0.1535
     27 C         -65.5972  -37.8698  -19.9403 C.2     1  UNL1        0.2443
     28 O         -66.7488  -38.0577  -20.4150 O.2     1  UNL1       -0.2730
     29 N         -65.2104  -36.5366  -19.5729 N.am    1  UNL1       -0.2827
     30 H         -65.9692  -35.8559  -19.3452 H       1  UNL1        0.1549
     31 C         -63.8493  -36.0741  -19.5672 C.ar    1  UNL1        0.0517
     32 C         -63.0247  -36.3088  -20.6784 C.ar    1  UNL1        0.0351
     33 C         -61.7064  -35.8558  -20.6698 C.ar    1  UNL1        0.1001
     34 N         -61.2252  -35.1814  -19.5943 N.ar    1  UNL1       -0.2425
     35 C         -61.9986  -34.9243  -18.5070 C.ar    1  UNL1        0.0982
     36 C         -63.3353  -35.3547  -18.4663 C.ar    1  UNL1        0.0396
     37 C         -64.1709  -35.0915  -17.2410 C.3     1  UNL1        0.1664
     38 O         -65.3328  -34.4003  -17.6065 O.3     1  UNL1       -0.3771
     39 H         -65.8221  -34.2178  -16.7627 H       1  UNL1        0.2109
     40 C         -65.2926  -40.1953  -18.9502 C.3     1  UNL1        0.0569
     41 C         -65.7775  -41.3456  -19.7936 C.ar    1  UNL1       -0.0017
     42 C         -66.5414  -41.2631  -20.9546 C.ar    1  UNL1        0.0681
     43 N         -66.7360  -42.4930  -21.4823 N.ar    1  UNL1       -0.3523
     44 C         -66.1062  -43.3530  -20.6635 C.ar    1  UNL1        0.0563
     45 C         -66.0170  -44.7378  -20.8005 C.ar    1  UNL1        0.0170
     46 C         -65.2994  -45.4508  -19.8226 C.ar    1  UNL1        0.0015
     47 C         -64.7026  -44.7728  -18.7370 C.ar    1  UNL1        0.0001
     48 C         -64.8150  -43.3759  -18.6217 C.ar    1  UNL1        0.0012
     49 C         -65.5164  -42.6925  -19.6163 C.ar    1  UNL1        0.0131
     50 H         -67.2646  -42.7229  -22.3531 H       1  UNL1        0.1660
@<TRIPOS>BOND
     1     1     2    2
     2     2     3   am
     3     3    26    1
     4    26    40    1
     5    40    41    1
     6    41    42   ar
     7    42    43   ar
     8    43    44   ar
     9    44    45   ar
    10    45    46   ar
    11    46    47   ar
    12    47    48   ar
    13    48    49   ar
    14    26    27    1
    15    27    28    2
    16    27    29   am
    17    29    31    1
    18    31    32   ar
    19    32    33   ar
    20    33    34   ar
    21    34    35   ar
    22    35    36   ar
    23    36    37    1
    24    37    38    1
    25     2     5    1
    26     5     6   ar
    27     6     7   ar
    28     7     8   ar
    29     8    12    1
    30    12    13    1
    31    13    14    1
    32    14    15    1
    33    15    18    1
    34    18    19   ar
    35    19    20   ar
    36    20    21   ar
    37    21    22    1
    38    21    23   ar
    39    23    24    1
    40    23    25   ar
    41    15    16    1
    42    16    17    1
    43     8     9   ar
    44     9    10   ar
    45    10    11    1
    46    49    41   ar
    47    36    31   ar
    48    10     5   ar
    49    49    44   ar
    50    17    12    1
    51    25    18   ar
    52     3     4    1
    53    43    50    1
    54    29    30    1
    55    38    39    1
@<TRIPOS>MOLECULE
*****
 50 55 0 0 0
SMALL
GASTEIGER

@<TRIPOS>ATOM
      1 O         -60.6514  -47.2343  -24.6094 O.2     1  UNL1       -0.2701
      2 C         -61.8323  -46.8182  -24.4557 C.2     1  UNL1        0.2483
      3 N         -62.9383  -47.6022  -24.9306 N.am    1  UNL1       -0.2945
      4 H         -63.8923  -47.1752  -24.9218 H       1  UNL1        0.1501
      5 C         -62.0585  -45.4900  -23.8479 C.ar    1  UNL1        0.0808
      6 C         -62.3213  -44.3871  -24.6749 C.ar    1  UNL1        0.0080
      7 C         -62.5841  -43.1318  -24.1220 C.ar    1  UNL1        0.0148
      8 C         -62.5787  -42.9487  -22.7283 C.ar    1  UNL1        0.0502
      9 C         -62.2884  -44.0490  -21.9022 C.ar    1  UNL1        0.0443
     10 C         -62.0295  -45.3078  -22.4533 C.ar    1  UNL1        0.1457
     11 F         -61.7140  -46.3334  -21.6221 F       1  UNL1       -0.2040
     12 N         -62.8561  -41.6515  -22.1547 N.pl3   1  UNL1       -0.3040
     13 C         -63.9330  -40.8153  -22.7045 C.3     1  UNL1        0.1122
     14 C         -64.5498  -39.9355  -21.6127 C.3     1  UNL1        0.1122
     15 N         -63.5195  -39.1926  -20.8700 N.pl3   1  UNL1       -0.3040
     16 C         -62.1123  -39.6102  -20.9512 C.3     1  UNL1        0.1122
     17 C         -62.0027  -41.1332  -21.0742 C.3     1  UNL1        0.1122
     18 C         -63.8845  -38.0031  -20.1343 C.ar    1  UNL1        0.0488
     19 C         -65.2276  -37.7540  -19.7990 C.ar    1  UNL1        0.0154
     20 C         -65.5804  -36.6032  -19.0900 C.ar    1  UNL1        0.0135
     21 C         -64.6017  -35.6819  -18.7062 C.ar    1  UNL1        0.0683
     22 CL        -65.0861  -34.2454  -17.8148 Cl      1  UNL1       -0.0814
     23 C         -63.2574  -35.9157  -19.0371 C.ar    1  UNL1        0.0694
     24 CL        -61.9959  -34.7787  -18.5800 Cl      1  UNL1       -0.0813
     25 C         -62.9048  -37.0694  -19.7472 C.ar    1  UNL1        0.0268
     26 C         -62.7573  -48.8556  -25.6681 C.3     1  UNL1        0.1535
     27 C         -63.7332  -49.8954  -25.1602 C.2     1  UNL1        0.2443
     28 O         -64.9618  -49.7733  -25.4101 O.2     1  UNL1       -0.2730
     29 N         -63.2925  -51.0302  -24.3987 N.am    1  UNL1       -0.2827
     30 H         -63.8951  -51.8833  -24.4051 H       1  UNL1        0.1549
     31 C         -62.1102  -51.0314  -23.5808 C.ar    1  UNL1        0.0517
     32 C         -61.7906  -49.9034  -22.8093 C.ar    1  UNL1        0.0351
     33 C         -60.6448  -49.9101  -22.0153 C.ar    1  UNL1        0.1001
     34 N         -59.8467  -51.0077  -21.9810 N.ar    1  UNL1       -0.2425
     35 C         -60.1321  -52.1222  -22.7040 C.ar    1  UNL1        0.0982
     36 C         -61.2771  -52.1696  -23.5169 C.ar    1  UNL1        0.0396
     37 C         -61.5632  -53.3994  -24.3383 C.3     1  UNL1        0.1664
     38 O         -60.3682  -53.8884  -24.8805 O.3     1  UNL1       -0.3771
     39 H         -60.6184  -54.6678  -25.4415 H       1  UNL1        0.2109
     40 C         -62.8716  -48.6298  -27.1941 C.3     1  UNL1        0.0569
     41 C         -62.8534  -47.1794  -27.6009 C.ar    1  UNL1       -0.0017
     42 C         -63.9363  -46.3043  -27.6134 C.ar    1  UNL1        0.0681
     43 N         -63.5382  -45.0628  -27.9730 N.ar    1  UNL1       -0.3523
     44 C         -62.2148  -45.1455  -28.1925 C.ar    1  UNL1        0.0563
     45 C         -61.3561  -44.1153  -28.5744 C.ar    1  UNL1        0.0170
     46 C         -59.9942  -44.4235  -28.7463 C.ar    1  UNL1        0.0015
     47 C         -59.5281  -45.7413  -28.5448 C.ar    1  UNL1        0.0001
     48 C         -60.4189  -46.7613  -28.1663 C.ar    1  UNL1        0.0012
     49 C         -61.7607  -46.4227  -27.9845 C.ar    1  UNL1        0.0131
     50 H         -64.1399  -44.2134  -28.0564 H       1  UNL1        0.1660
@<TRIPOS>BOND
     1     1     2    2
     2     2     3   am
     3     3    26    1
     4    26    40    1
     5    40    41    1
     6    41    42   ar
     7    42    43   ar
     8    43    44   ar
     9    44    45   ar
    10    45    46   ar
    11    46    47   ar
    12    47    48   ar
    13    48    49   ar
    14    26    27    1
    15    27    28    2
    16    27    29   am
    17    29    31    1
    18    31    32   ar
    19    32    33   ar
    20    33    34   ar
    21    34    35   ar
    22    35    36   ar
    23    36    37    1
    24    37    38    1
    25     2     5    1
    26     5     6   ar
    27     6     7   ar
    28     7     8   ar
    29     8    12    1
    30    12    13    1
    31    13    14    1
    32    14    15    1
    33    15    18    1
    34    18    19   ar
    35    19    20   ar
    36    20    21   ar
    37    21    22    1
    38    21    23   ar
    39    23    24    1
    40    23    25   ar
    41    15    16    1
    42    16    17    1
    43     8     9   ar
    44     9    10   ar
    45    10    11    1
    46    49    41   ar
    47    36    31   ar
    48    10     5   ar
    49    49    44   ar
    50    17    12    1
    51    25    18   ar
    52     3     4    1
    53    43    50    1
    54    29    30    1
    55    38    39    1
@<TRIPOS>MOLECULE
*****
 50 55 0 0 0
SMALL
GASTEIGER

@<TRIPOS>ATOM
      1 O         -60.8043  -46.6234  -24.1114 O.2     1  UNL1       -0.2701
      2 C         -61.9845  -46.2067  -23.9548 C.2     1  UNL1        0.2483
      3 N         -63.0832  -46.9214  -24.5426 N.am    1  UNL1       -0.2945
      4 H         -64.0317  -46.4828  -24.5217 H       1  UNL1        0.1501
      5 C         -62.2152  -44.9434  -23.2230 C.ar    1  UNL1        0.0808
      6 C         -62.3798  -43.7488  -23.9409 C.ar    1  UNL1        0.0080
      7 C         -62.6449  -42.5506  -23.2741 C.ar    1  UNL1        0.0148
      8 C         -62.7403  -42.5182  -21.8720 C.ar    1  UNL1        0.0502
      9 C         -62.5481  -43.7112  -21.1528 C.ar    1  UNL1        0.0443
     10 C         -62.2871  -44.9129  -21.8184 C.ar    1  UNL1        0.1457
     11 F         -62.0679  -46.0331  -21.0840 F       1  UNL1       -0.2040
     12 N         -63.0203  -41.2800  -21.1813 N.pl3   1  UNL1       -0.3040
     13 C         -62.0267  -40.1966  -21.1741 C.3     1  UNL1        0.1122
     14 C         -62.7131  -38.8294  -21.0967 C.3     1  UNL1        0.1122
     15 N         -63.6845  -38.7733  -19.9930 N.pl3   1  UNL1       -0.3040
     16 C         -64.1640  -40.0175  -19.3739 C.3     1  UNL1        0.1122
     17 C         -64.2671  -41.1381  -20.4132 C.3     1  UNL1        0.1122
     18 C         -64.0957  -37.4921  -19.4650 C.ar    1  UNL1        0.0488
     19 C         -63.2117  -36.7222  -18.6877 C.ar    1  UNL1        0.0154
     20 C         -63.6101  -35.4850  -18.1757 C.ar    1  UNL1        0.0135
     21 C         -64.8954  -34.9967  -18.4279 C.ar    1  UNL1        0.0683
     22 CL        -65.3589  -33.4349  -17.7656 Cl      1  UNL1       -0.0814
     23 C         -65.7897  -35.7560  -19.1992 C.ar    1  UNL1        0.0694
     24 CL        -67.4181  -35.1821  -19.5339 Cl      1  UNL1       -0.0813
     25 C         -65.3894  -36.9954  -19.7123 C.ar    1  UNL1        0.0268
     26 C         -62.8924  -48.0965  -25.3974 C.3     1  UNL1        0.1535
     27 C         -63.9271  -49.1491  -25.0611 C.2     1  UNL1        0.2443
     28 O         -65.1525  -48.8710  -25.1506 O.2     1  UNL1       -0.2730
     29 N         -63.5469  -50.4695  -24.6439 N.am    1  UNL1       -0.2827
     30 H         -64.2319  -51.2432  -24.7962 H       1  UNL1        0.1549
     31 C         -62.3116  -50.7689  -23.9724 C.ar    1  UNL1        0.0517
     32 C         -61.2860  -49.8117  -23.9318 C.ar    1  UNL1        0.0351
     33 C         -60.0910  -50.1053  -23.2768 C.ar    1  UNL1        0.1001
     34 N         -59.9241  -51.3091  -22.6719 N.ar    1  UNL1       -0.2425
     35 C         -60.9001  -52.2545  -22.6793 C.ar    1  UNL1        0.0982
     36 C         -62.1252  -52.0079  -23.3213 C.ar    1  UNL1        0.0396
     37 C         -63.1855  -53.0774  -23.3498 C.3     1  UNL1        0.1664
     38 O         -62.9564  -53.9911  -22.3135 O.3     1  UNL1       -0.3771
     39 H         -63.6538  -54.6914  -22.4040 H       1  UNL1        0.2109
     40 C         -62.9052  -47.7088  -26.8947 C.3     1  UNL1        0.0569
     41 C         -61.8168  -46.7435  -27.2861 C.ar    1  UNL1       -0.0017
     42 C         -60.4960  -47.0580  -27.5942 C.ar    1  UNL1        0.0681
     43 N         -59.8183  -45.9476  -27.9639 N.ar    1  UNL1       -0.3523
     44 C         -60.6968  -44.9331  -27.8882 C.ar    1  UNL1        0.0563
     45 C         -60.4642  -43.5906  -28.1851 C.ar    1  UNL1        0.0170
     46 C         -61.5349  -42.6895  -28.0399 C.ar    1  UNL1        0.0015
     47 C         -62.7967  -43.1435  -27.5967 C.ar    1  UNL1        0.0001
     48 C         -62.9997  -44.5025  -27.2984 C.ar    1  UNL1        0.0012
     49 C         -61.9252  -45.3767  -27.4698 C.ar    1  UNL1        0.0131
     50 H         -58.8166  -45.8945  -28.2543 H       1  UNL1        0.1660
@<TRIPOS>BOND
     1     1     2    2
     2     2     3   am
     3     3    26    1
     4    26    40    1
     5    40    41    1
     6    41    42   ar
     7    42    43   ar
     8    43    44   ar
     9    44    45   ar
    10    45    46   ar
    11    46    47   ar
    12    47    48   ar
    13    48    49   ar
    14    26    27    1
    15    27    28    2
    16    27    29   am
    17    29    31    1
    18    31    32   ar
    19    32    33   ar
    20    33    34   ar
    21    34    35   ar
    22    35    36   ar
    23    36    37    1
    24    37    38    1
    25     2     5    1
    26     5     6   ar
    27     6     7   ar
    28     7     8   ar
    29     8    12    1
    30    12    13    1
    31    13    14    1
    32    14    15    1
    33    15    18    1
    34    18    19   ar
    35    19    20   ar
    36    20    21   ar
    37    21    22    1
    38    21    23   ar
    39    23    24    1
    40    23    25   ar
    41    15    16    1
    42    16    17    1
    43     8     9   ar
    44     9    10   ar
    45    10    11    1
    46    49    41   ar
    47    36    31   ar
    48    10     5   ar
    49    49    44   ar
    50    17    12    1
    51    25    18   ar
    52     3     4    1
    53    43    50    1
    54    29    30    1
    55    38    39    1
@<TRIPOS>MOLECULE
*****
 50 55 0 0 0
SMALL
GASTEIGER

@<TRIPOS>ATOM
      1 O         -63.5746  -45.1162  -27.8833 O.2     1  UNL1       -0.2701
      2 C         -62.6683  -44.3375  -27.4791 C.2     1  UNL1        0.2483
      3 N         -61.3728  -44.3586  -28.0994 N.am    1  UNL1       -0.2945
      4 H         -60.5996  -43.8112  -27.6579 H       1  UNL1        0.1501
      5 C         -62.9327  -43.4584  -26.3206 C.ar    1  UNL1        0.0808
      6 C         -62.4539  -43.8229  -25.0528 C.ar    1  UNL1        0.0080
      7 C         -62.6510  -42.9862  -23.9520 C.ar    1  UNL1        0.0148
      8 C         -63.3419  -41.7701  -24.0924 C.ar    1  UNL1        0.0502
      9 C         -63.8445  -41.4195  -25.3581 C.ar    1  UNL1        0.0443
     10 C         -63.6445  -42.2533  -26.4626 C.ar    1  UNL1        0.1457
     11 F         -64.1812  -41.8965  -27.6571 F       1  UNL1       -0.2040
     12 N         -63.5415  -40.9008  -22.9553 N.pl3   1  UNL1       -0.3040
     13 C         -62.4710  -40.7240  -21.9634 C.3     1  UNL1        0.1122
     14 C         -62.5347  -39.3273  -21.3375 C.3     1  UNL1        0.1122
     15 N         -63.8844  -39.0182  -20.8398 N.pl3   1  UNL1       -0.3040
     16 C         -65.0335  -39.8158  -21.2924 C.3     1  UNL1        0.1122
     17 C         -64.8491  -40.2595  -22.7469 C.3     1  UNL1        0.1122
     18 C         -64.0613  -37.9882  -19.8413 C.ar    1  UNL1        0.0488
     19 C         -65.1982  -37.9832  -19.0131 C.ar    1  UNL1        0.0154
     20 C         -65.3701  -36.9863  -18.0497 C.ar    1  UNL1        0.0135
     21 C         -64.4139  -35.9780  -17.8979 C.ar    1  UNL1        0.0683
     22 CL        -64.6666  -34.7410  -16.6737 Cl      1  UNL1       -0.0814
     23 C         -63.2758  -35.9684  -18.7200 C.ar    1  UNL1        0.0694
     24 CL        -62.0525  -34.7141  -18.5670 Cl      1  UNL1       -0.0813
     25 C         -63.1042  -36.9680  -19.6847 C.ar    1  UNL1        0.0268
     26 C         -61.0190  -45.3129  -29.1539 C.3     1  UNL1        0.1535
     27 C         -60.3730  -44.5821  -30.3116 C.2     1  UNL1        0.2443
     28 O         -59.1183  -44.4862  -30.3673 O.2     1  UNL1       -0.2730
     29 N         -61.1581  -43.9943  -31.3605 N.am    1  UNL1       -0.2827
     30 H         -60.7016  -43.8557  -32.2896 H       1  UNL1        0.1549
     31 C         -62.5064  -43.5286  -31.1820 C.ar    1  UNL1        0.0517
     32 C         -63.5856  -44.3629  -31.5121 C.ar    1  UNL1        0.0351
     33 C         -64.8914  -43.9082  -31.3345 C.ar    1  UNL1        0.1001
     34 N         -65.1179  -42.6665  -30.8347 N.ar    1  UNL1       -0.2425
     35 C         -64.0979  -41.8368  -30.4916 C.ar    1  UNL1        0.0982
     36 C         -62.7633  -42.2476  -30.6463 C.ar    1  UNL1        0.0396
     37 C         -61.6428  -41.3050  -30.2929 C.3     1  UNL1        0.1664
     38 O         -61.2761  -41.4950  -28.9547 O.3     1  UNL1       -0.3771
     39 H         -60.5687  -40.8254  -28.7648 H       1  UNL1        0.2109
     40 C         -60.1317  -46.4538  -28.6029 C.3     1  UNL1        0.0569
     41 C         -60.5486  -46.9508  -27.2432 C.ar    1  UNL1       -0.0017
     42 C         -59.8945  -46.7208  -26.0359 C.ar    1  UNL1        0.0681
     43 N         -60.5881  -47.2644  -25.0100 N.ar    1  UNL1       -0.3523
     44 C         -61.6723  -47.8400  -25.5577 C.ar    1  UNL1        0.0563
     45 C         -62.6937  -48.5193  -24.8944 C.ar    1  UNL1        0.0170
     46 C         -63.7452  -49.0442  -25.6679 C.ar    1  UNL1        0.0015
     47 C         -63.7472  -48.8889  -27.0715 C.ar    1  UNL1        0.0001
     48 C         -62.6999  -48.2046  -27.7135 C.ar    1  UNL1        0.0012
     49 C         -61.6799  -47.6781  -26.9195 C.ar    1  UNL1        0.0131
     50 H         -60.3324  -47.2354  -23.9980 H       1  UNL1        0.1660
@<TRIPOS>BOND
     1     1     2    2
     2     2     3   am
     3     3    26    1
     4    26    40    1
     5    40    41    1
     6    41    42   ar
     7    42    43   ar
     8    43    44   ar
     9    44    45   ar
    10    45    46   ar
    11    46    47   ar
    12    47    48   ar
    13    48    49   ar
    14    26    27    1
    15    27    28    2
    16    27    29   am
    17    29    31    1
    18    31    32   ar
    19    32    33   ar
    20    33    34   ar
    21    34    35   ar
    22    35    36   ar
    23    36    37    1
    24    37    38    1
    25     2     5    1
    26     5     6   ar
    27     6     7   ar
    28     7     8   ar
    29     8    12    1
    30    12    13    1
    31    13    14    1
    32    14    15    1
    33    15    18    1
    34    18    19   ar
    35    19    20   ar
    36    20    21   ar
    37    21    22    1
    38    21    23   ar
    39    23    24    1
    40    23    25   ar
    41    15    16    1
    42    16    17    1
    43     8     9   ar
    44     9    10   ar
    45    10    11    1
    46    49    41   ar
    47    36    31   ar
    48    10     5   ar
    49    49    44   ar
    50    17    12    1
    51    25    18   ar
    52     3     4    1
    53    43    50    1
    54    29    30    1
    55    38    39    1
@<TRIPOS>MOLECULE
*****
 50 55 0 0 0
SMALL
GASTEIGER

@<TRIPOS>ATOM
      1 O         -61.0212  -44.9850  -27.5644 O.2     1  UNL1       -0.2701
      2 C         -62.1651  -45.0124  -27.0334 C.2     1  UNL1        0.2483
      3 N         -63.1568  -45.9360  -27.5096 N.am    1  UNL1       -0.2945
      4 H         -64.1356  -45.8437  -27.1546 H       1  UNL1        0.1501
      5 C         -62.4927  -44.0404  -25.9692 C.ar    1  UNL1        0.0808
      6 C         -62.2066  -44.3566  -24.6322 C.ar    1  UNL1        0.0080
      7 C         -62.4641  -43.4359  -23.6141 C.ar    1  UNL1        0.0148
      8 C         -63.0248  -42.1811  -23.9094 C.ar    1  UNL1        0.0502
      9 C         -63.3359  -41.8766  -25.2465 C.ar    1  UNL1        0.0443
     10 C         -63.0746  -42.7950  -26.2681 C.ar    1  UNL1        0.1457
     11 F         -63.4277  -42.4769  -27.5395 F       1  UNL1       -0.2040
     12 N         -63.2864  -41.2253  -22.8574 N.pl3   1  UNL1       -0.3040
     13 C         -62.2965  -41.0090  -21.7924 C.3     1  UNL1        0.1122
     14 C         -62.3611  -39.5690  -21.2740 C.3     1  UNL1        0.1122
     15 N         -63.7354  -39.1836  -20.9167 N.pl3   1  UNL1       -0.3040
     16 C         -64.8711  -39.9768  -21.4088 C.3     1  UNL1        0.1122
     17 C         -64.5826  -40.5311  -22.8074 C.3     1  UNL1        0.1122
     18 C         -63.9572  -38.0784  -20.0119 C.ar    1  UNL1        0.0488
     19 C         -65.1740  -37.9566  -19.3169 C.ar    1  UNL1        0.0154
     20 C         -65.3889  -36.8872  -18.4442 C.ar    1  UNL1        0.0135
     21 C         -64.3966  -35.9216  -18.2520 C.ar    1  UNL1        0.0683
     22 CL        -64.7056  -34.5905  -17.1451 Cl      1  UNL1       -0.0814
     23 C         -63.1784  -36.0284  -18.9417 C.ar    1  UNL1        0.0694
     24 CL        -61.9065  -34.8315  -18.7345 Cl      1  UNL1       -0.0813
     25 C         -62.9637  -37.1007  -19.8156 C.ar    1  UNL1        0.0268
     26 C         -62.9264  -46.8181  -28.6571 C.3     1  UNL1        0.1535
     27 C         -63.4240  -48.2123  -28.3406 C.2     1  UNL1        0.2443
     28 O         -64.3622  -48.7092  -29.0184 O.2     1  UNL1       -0.2730
     29 N         -62.8471  -48.9933  -27.2826 N.am    1  UNL1       -0.2827
     30 H         -62.9323  -50.0324  -27.3438 H       1  UNL1        0.1549
     31 C         -62.2230  -48.4232  -26.1197 C.ar    1  UNL1        0.0517
     32 C         -60.8937  -47.9780  -26.1849 C.ar    1  UNL1        0.0351
     33 C         -60.2936  -47.4231  -25.0557 C.ar    1  UNL1        0.1001
     34 N         -60.9960  -47.3047  -23.9000 N.ar    1  UNL1       -0.2425
     35 C         -62.2887  -47.7124  -23.8041 C.ar    1  UNL1        0.0982
     36 C         -62.9422  -48.2743  -24.9137 C.ar    1  UNL1        0.0396
     37 C         -64.3648  -48.7521  -24.7835 C.3     1  UNL1        0.1664
     38 O         -64.4750  -50.0435  -25.3139 O.3     1  UNL1       -0.3771
     39 H         -65.4333  -50.2908  -25.2408 H       1  UNL1        0.2109
     40 C         -63.5594  -46.2401  -29.9446 C.3     1  UNL1        0.0569
     41 C         -63.1134  -44.8383  -30.2696 C.ar    1  UNL1       -0.0017
     42 C         -61.8624  -44.4509  -30.7420 C.ar    1  UNL1        0.0681
     43 N         -61.8387  -43.1207  -30.9852 N.ar    1  UNL1       -0.3523
     44 C         -63.0615  -42.6625  -30.6669 C.ar    1  UNL1        0.0563
     45 C         -63.5224  -41.3498  -30.7608 C.ar    1  UNL1        0.0170
     46 C         -64.8502  -41.0893  -30.3754 C.ar    1  UNL1        0.0015
     47 C         -65.6749  -42.1328  -29.9008 C.ar    1  UNL1        0.0001
     48 C         -65.1804  -43.4461  -29.8107 C.ar    1  UNL1        0.0012
     49 C         -63.8658  -43.6786  -30.2178 C.ar    1  UNL1        0.0131
     50 H         -61.0330  -42.5667  -31.3517 H       1  UNL1        0.1660
@<TRIPOS>BOND
     1     1     2    2
     2     2     3   am
     3     3    26    1
     4    26    40    1
     5    40    41    1
     6    41    42   ar
     7    42    43   ar
     8    43    44   ar
     9    44    45   ar
    10    45    46   ar
    11    46    47   ar
    12    47    48   ar
    13    48    49   ar
    14    26    27    1
    15    27    28    2
    16    27    29   am
    17    29    31    1
    18    31    32   ar
    19    32    33   ar
    20    33    34   ar
    21    34    35   ar
    22    35    36   ar
    23    36    37    1
    24    37    38    1
    25     2     5    1
    26     5     6   ar
    27     6     7   ar
    28     7     8   ar
    29     8    12    1
    30    12    13    1
    31    13    14    1
    32    14    15    1
    33    15    18    1
    34    18    19   ar
    35    19    20   ar
    36    20    21   ar
    37    21    22    1
    38    21    23   ar
    39    23    24    1
    40    23    25   ar
    41    15    16    1
    42    16    17    1
    43     8     9   ar
    44     9    10   ar
    45    10    11    1
    46    49    41   ar
    47    36    31   ar
    48    10     5   ar
    49    49    44   ar
    50    17    12    1
    51    25    18   ar
    52     3     4    1
    53    43    50    1
    54    29    30    1
    55    38    39    1
@<TRIPOS>MOLECULE
*****
 50 55 0 0 0
SMALL
GASTEIGER

@<TRIPOS>ATOM
      1 O         -60.1346  -46.3860  -24.2746 O.2     1  UNL1       -0.2701
      2 C         -60.7743  -45.4338  -24.7992 C.2     1  UNL1        0.2483
      3 N         -60.9978  -45.4132  -26.2180 N.am    1  UNL1       -0.2945
      4 H         -61.4020  -44.5498  -26.6467 H       1  UNL1        0.1501
      5 C         -61.2272  -44.3115  -23.9506 C.ar    1  UNL1        0.0808
      6 C         -60.6918  -43.0305  -24.1550 C.ar    1  UNL1        0.0080
      7 C         -61.1376  -41.9455  -23.3971 C.ar    1  UNL1        0.0148
      8 C         -62.1220  -42.1196  -22.4088 C.ar    1  UNL1        0.0502
      9 C         -62.6377  -43.4088  -22.1869 C.ar    1  UNL1        0.0443
     10 C         -62.1962  -44.4959  -22.9476 C.ar    1  UNL1        0.1457
     11 F         -62.6905  -45.7299  -22.6733 F       1  UNL1       -0.2040
     12 N         -62.5884  -40.9965  -21.6278 N.pl3   1  UNL1       -0.3040
     13 C         -61.6242  -40.0738  -21.0113 C.3     1  UNL1        0.1122
     14 C         -62.2110  -38.6625  -20.9088 C.3     1  UNL1        0.1122
     15 N         -63.5377  -38.6729  -20.2727 N.pl3   1  UNL1       -0.3040
     16 C         -64.2897  -39.9315  -20.1650 C.3     1  UNL1        0.1122
     17 C         -64.0287  -40.8273  -21.3799 C.3     1  UNL1        0.1122
     18 C         -64.0568  -37.4617  -19.6788 C.ar    1  UNL1        0.0488
     19 C         -63.2450  -36.6675  -18.8489 C.ar    1  UNL1        0.0154
     20 C         -63.7476  -35.4981  -18.2732 C.ar    1  UNL1        0.0135
     21 C         -65.0668  -35.1030  -18.5131 C.ar    1  UNL1        0.0683
     22 CL        -65.6622  -33.6245  -17.7700 Cl      1  UNL1       -0.0814
     23 C         -65.8899  -35.8877  -19.3365 C.ar    1  UNL1        0.0694
     24 CL        -67.5574  -35.4307  -19.6582 Cl      1  UNL1       -0.0813
     25 C         -65.3851  -37.0591  -19.9134 C.ar    1  UNL1        0.0268
     26 C         -60.4436  -46.4281  -27.1184 C.3     1  UNL1        0.1535
     27 C         -61.4362  -47.5581  -27.2907 C.2     1  UNL1        0.2443
     28 O         -61.0218  -48.7436  -27.3886 O.2     1  UNL1       -0.2730
     29 N         -62.8504  -47.3140  -27.3410 N.am    1  UNL1       -0.2827
     30 H         -63.4883  -48.0970  -27.0745 H       1  UNL1        0.1549
     31 C         -63.4312  -46.0815  -27.7994 C.ar    1  UNL1        0.0517
     32 C         -63.3757  -44.9367  -26.9895 C.ar    1  UNL1        0.0351
     33 C         -63.9376  -43.7428  -27.4394 C.ar    1  UNL1        0.1001
     34 N         -64.5273  -43.6857  -28.6608 N.ar    1  UNL1       -0.2425
     35 C         -64.5874  -44.7702  -29.4773 C.ar    1  UNL1        0.0982
     36 C         -64.0326  -45.9964  -29.0741 C.ar    1  UNL1        0.0396
     37 C         -64.1358  -47.1987  -29.9756 C.3     1  UNL1        0.1664
     38 O         -64.5067  -48.3188  -29.2212 O.3     1  UNL1       -0.3771
     39 H         -64.5191  -49.0846  -29.8522 H       1  UNL1        0.2109
     40 C         -60.0127  -45.8058  -28.4673 C.3     1  UNL1        0.0569
     41 C         -60.4727  -44.3843  -28.6600 C.ar    1  UNL1       -0.0017
     42 C         -60.2969  -43.3247  -27.7741 C.ar    1  UNL1        0.0681
     43 N         -60.7806  -42.1784  -28.3043 N.ar    1  UNL1       -0.3523
     44 C         -61.2648  -42.5039  -29.5152 C.ar    1  UNL1        0.0563
     45 C         -61.8567  -41.6502  -30.4454 C.ar    1  UNL1        0.0170
     46 C         -62.2932  -42.2044  -31.6627 C.ar    1  UNL1        0.0015
     47 C         -62.1391  -43.5851  -31.9160 C.ar    1  UNL1        0.0001
     48 C         -61.5442  -44.4229  -30.9560 C.ar    1  UNL1        0.0012
     49 C         -61.1036  -43.8426  -29.7656 C.ar    1  UNL1        0.0131
     50 H         -60.7724  -41.2328  -27.8613 H       1  UNL1        0.1660
@<TRIPOS>BOND
     1     1     2    2
     2     2     3   am
     3     3    26    1
     4    26    40    1
     5    40    41    1
     6    41    42   ar
     7    42    43   ar
     8    43    44   ar
     9    44    45   ar
    10    45    46   ar
    11    46    47   ar
    12    47    48   ar
    13    48    49   ar
    14    26    27    1
    15    27    28    2
    16    27    29   am
    17    29    31    1
    18    31    32   ar
    19    32    33   ar
    20    33    34   ar
    21    34    35   ar
    22    35    36   ar
    23    36    37    1
    24    37    38    1
    25     2     5    1
    26     5     6   ar
    27     6     7   ar
    28     7     8   ar
    29     8    12    1
    30    12    13    1
    31    13    14    1
    32    14    15    1
    33    15    18    1
    34    18    19   ar
    35    19    20   ar
    36    20    21   ar
    37    21    22    1
    38    21    23   ar
    39    23    24    1
    40    23    25   ar
    41    15    16    1
    42    16    17    1
    43     8     9   ar
    44     9    10   ar
    45    10    11    1
    46    49    41   ar
    47    36    31   ar
    48    10     5   ar
    49    49    44   ar
    50    17    12    1
    51    25    18   ar
    52     3     4    1
    53    43    50    1
    54    29    30    1
    55    38    39    1
@<TRIPOS>MOLECULE
*****
 50 55 0 0 0
SMALL
GASTEIGER

@<TRIPOS>ATOM
      1 O         -60.6921  -46.8662  -23.0181 O.2     1  UNL1       -0.2701
      2 C         -61.7555  -46.2849  -23.3681 C.2     1  UNL1        0.2483
      3 N         -62.5854  -46.8585  -24.3905 N.am    1  UNL1       -0.2945
      4 H         -63.3808  -46.2920  -24.7634 H       1  UNL1        0.1501
      5 C         -62.0982  -44.9789  -22.7665 C.ar    1  UNL1        0.0808
      6 C         -62.5548  -44.9272  -21.4405 C.ar    1  UNL1        0.0080
      7 C         -62.8406  -43.7014  -20.8354 C.ar    1  UNL1        0.0148
      8 C         -62.6869  -42.4991  -21.5474 C.ar    1  UNL1        0.0502
      9 C         -62.2553  -42.5548  -22.8845 C.ar    1  UNL1        0.0443
     10 C         -61.9641  -43.7806  -23.4911 C.ar    1  UNL1        0.1457
     11 F         -61.5894  -43.7922  -24.7956 F       1  UNL1       -0.2040
     12 N         -62.9769  -41.2296  -20.9205 N.pl3   1  UNL1       -0.3040
     13 C         -62.0780  -40.0838  -21.1212 C.3     1  UNL1        0.1122
     14 C         -62.8552  -38.7652  -21.0584 C.3     1  UNL1        0.1122
     15 N         -63.6859  -38.6838  -19.8467 N.pl3   1  UNL1       -0.3040
     16 C         -63.9869  -39.9019  -19.0805 C.3     1  UNL1        0.1122
     17 C         -64.1278  -41.1099  -20.0119 C.3     1  UNL1        0.1122
     18 C         -64.1289  -37.3942  -19.3672 C.ar    1  UNL1        0.0488
     19 C         -63.2685  -36.5790  -18.6099 C.ar    1  UNL1        0.0154
     20 C         -63.6976  -35.3336  -18.1447 C.ar    1  UNL1        0.0135
     21 C         -64.9907  -34.8821  -18.4244 C.ar    1  UNL1        0.0683
     22 CL        -65.4932  -33.3086  -17.8209 Cl      1  UNL1       -0.0814
     23 C         -65.8616  -35.6867  -19.1762 C.ar    1  UNL1        0.0694
     24 CL        -67.4987  -35.1599  -19.5442 Cl      1  UNL1       -0.0813
     25 C         -65.4305  -36.9342  -19.6424 C.ar    1  UNL1        0.0268
     26 C         -62.2134  -48.0755  -25.1174 C.3     1  UNL1        0.1535
     27 C         -63.4024  -49.0091  -25.1975 C.2     1  UNL1        0.2443
     28 O         -64.5337  -48.5536  -25.5129 O.2     1  UNL1       -0.2730
     29 N         -63.2741  -50.4133  -24.9262 N.am    1  UNL1       -0.2827
     30 H         -63.9782  -51.0567  -25.3519 H       1  UNL1        0.1549
     31 C         -62.2767  -50.9690  -24.0527 C.ar    1  UNL1        0.0517
     32 C         -61.0170  -50.3589  -23.9497 C.ar    1  UNL1        0.0351
     33 C         -60.0538  -50.8994  -23.0990 C.ar    1  UNL1        0.1001
     34 N         -60.3372  -52.0061  -22.3656 N.ar    1  UNL1       -0.2425
     35 C         -61.5502  -52.6151  -22.4297 C.ar    1  UNL1        0.0982
     36 C         -62.5578  -52.1084  -23.2676 C.ar    1  UNL1        0.0396
     37 C         -63.8864  -52.8130  -23.3534 C.3     1  UNL1        0.1664
     38 O         -64.2988  -52.8726  -24.6904 O.3     1  UNL1       -0.3771
     39 H         -65.1916  -53.3058  -24.6846 H       1  UNL1        0.2109
     40 C         -61.6273  -47.7404  -26.5091 C.3     1  UNL1        0.0569
     41 C         -62.6674  -47.4092  -27.5474 C.ar    1  UNL1       -0.0017
     42 C         -63.3934  -48.3142  -28.3171 C.ar    1  UNL1        0.0681
     43 N         -64.2850  -47.6634  -29.0984 N.ar    1  UNL1       -0.3523
     44 C         -64.1266  -46.3552  -28.8335 C.ar    1  UNL1        0.0563
     45 C         -64.8337  -45.2894  -29.3890 C.ar    1  UNL1        0.0170
     46 C         -64.5063  -43.9892  -28.9629 C.ar    1  UNL1        0.0015
     47 C         -63.4846  -43.7849  -28.0096 C.ar    1  UNL1        0.0001
     48 C         -62.7839  -44.8790  -27.4717 C.ar    1  UNL1        0.0012
     49 C         -63.1427  -46.1585  -27.8986 C.ar    1  UNL1        0.0131
     50 H         -64.9617  -48.0945  -29.7668 H       1  UNL1        0.1660
@<TRIPOS>BOND
     1     1     2    2
     2     2     3   am
     3     3    26    1
     4    26    40    1
     5    40    41    1
     6    41    42   ar
     7    42    43   ar
     8    43    44   ar
     9    44    45   ar
    10    45    46   ar
    11    46    47   ar
    12    47    48   ar
    13    48    49   ar
    14    26    27    1
    15    27    28    2
    16    27    29   am
    17    29    31    1
    18    31    32   ar
    19    32    33   ar
    20    33    34   ar
    21    34    35   ar
    22    35    36   ar
    23    36    37    1
    24    37    38    1
    25     2     5    1
    26     5     6   ar
    27     6     7   ar
    28     7     8   ar
    29     8    12    1
    30    12    13    1
    31    13    14    1
    32    14    15    1
    33    15    18    1
    34    18    19   ar
    35    19    20   ar
    36    20    21   ar
    37    21    22    1
    38    21    23   ar
    39    23    24    1
    40    23    25   ar
    41    15    16    1
    42    16    17    1
    43     8     9   ar
    44     9    10   ar
    45    10    11    1
    46    49    41   ar
    47    36    31   ar
    48    10     5   ar
    49    49    44   ar
    50    17    12    1
    51    25    18   ar
    52     3     4    1
    53    43    50    1
    54    29    30    1
    55    38    39    1
@<TRIPOS>MOLECULE
*****
 50 55 0 0 0
SMALL
GASTEIGER

@<TRIPOS>ATOM
      1 O         -60.0980  -46.1636  -25.6612 O.2     1  UNL1       -0.2701
      2 C         -61.0047  -45.3714  -26.0374 C.2     1  UNL1        0.2483
      3 N         -61.5016  -45.4347  -27.3837 N.am    1  UNL1       -0.2945
      4 H         -62.1456  -44.6804  -27.7135 H       1  UNL1        0.1501
      5 C         -61.4964  -44.3376  -25.1025 C.ar    1  UNL1        0.0808
      6 C         -60.9074  -44.2157  -23.8346 C.ar    1  UNL1        0.0080
      7 C         -61.3233  -43.2168  -22.9516 C.ar    1  UNL1        0.0148
      8 C         -62.3467  -42.3233  -23.3130 C.ar    1  UNL1        0.0502
      9 C         -62.9543  -42.4642  -24.5732 C.ar    1  UNL1        0.0443
     10 C         -62.5364  -43.4606  -25.4608 C.ar    1  UNL1        0.1457
     11 F         -63.1771  -43.5872  -26.6507 F       1  UNL1       -0.2040
     12 N         -62.7740  -41.2856  -22.4024 N.pl3   1  UNL1       -0.3040
     13 C         -61.8852  -40.8407  -21.3193 C.3     1  UNL1        0.1122
     14 C         -62.1298  -39.3657  -20.9861 C.3     1  UNL1        0.1122
     15 N         -63.5570  -39.0926  -20.7548 N.pl3   1  UNL1       -0.3040
     16 C         -64.5709  -40.0562  -21.2073 C.3     1  UNL1        0.1122
     17 C         -64.1341  -40.7350  -22.5092 C.3     1  UNL1        0.1122
     18 C         -63.9498  -37.9202  -20.0062 C.ar    1  UNL1        0.0488
     19 C         -65.2972  -37.7109  -19.6608 C.ar    1  UNL1        0.0154
     20 C         -65.6770  -36.5766  -18.9393 C.ar    1  UNL1        0.0135
     21 C         -64.7214  -35.6324  -18.5527 C.ar    1  UNL1        0.0683
     22 CL        -65.2394  -34.2178  -17.6454 Cl      1  UNL1       -0.0814
     23 C         -63.3733  -35.8264  -18.8935 C.ar    1  UNL1        0.0694
     24 CL        -62.1405  -34.6596  -18.4333 Cl      1  UNL1       -0.0813
     25 C         -62.9936  -36.9637  -19.6161 C.ar    1  UNL1        0.0268
     26 C         -60.9440  -46.3448  -28.3880 C.3     1  UNL1        0.1535
     27 C         -59.5536  -45.8898  -28.7771 C.2     1  UNL1        0.2443
     28 O         -58.5590  -46.6086  -28.4927 O.2     1  UNL1       -0.2730
     29 N         -59.3356  -44.6524  -29.4724 N.am    1  UNL1       -0.2827
     30 H         -58.4663  -44.5632  -30.0444 H       1  UNL1        0.1549
     31 C         -60.2093  -43.5154  -29.3698 C.ar    1  UNL1        0.0517
     32 C         -60.1709  -42.7030  -28.2260 C.ar    1  UNL1        0.0351
     33 C         -61.0178  -41.5996  -28.1322 C.ar    1  UNL1        0.1001
     34 N         -61.8693  -41.3066  -29.1481 N.ar    1  UNL1       -0.2425
     35 C         -61.9240  -42.0626  -30.2758 C.ar    1  UNL1        0.0982
     36 C         -61.0889  -43.1828  -30.4231 C.ar    1  UNL1        0.0396
     37 C         -61.1837  -44.0308  -31.6644 C.3     1  UNL1        0.1664
     38 O         -60.8279  -43.2657  -32.7821 O.3     1  UNL1       -0.3771
     39 H         -60.9473  -43.8567  -33.5703 H       1  UNL1        0.2109
     40 C         -60.9723  -47.8103  -27.8939 C.3     1  UNL1        0.0569
     41 C         -62.2840  -48.2234  -27.2789 C.ar    1  UNL1       -0.0017
     42 C         -63.5421  -48.1460  -27.8702 C.ar    1  UNL1        0.0681
     43 N         -64.4838  -48.6660  -27.0506 N.ar    1  UNL1       -0.3523
     44 C         -63.8339  -49.0673  -25.9447 C.ar    1  UNL1        0.0563
     45 C         -64.3825  -49.6783  -24.8176 C.ar    1  UNL1        0.0170
     46 C         -63.5127  -50.0226  -23.7667 C.ar    1  UNL1        0.0015
     47 C         -62.1316  -49.7428  -23.8606 C.ar    1  UNL1        0.0001
     48 C         -61.6079  -49.1196  -25.0071 C.ar    1  UNL1        0.0012
     49 C         -62.4910  -48.8066  -26.0417 C.ar    1  UNL1        0.0131
     50 H         -65.5070  -48.7432  -27.2442 H       1  UNL1        0.1660
@<TRIPOS>BOND
     1     1     2    2
     2     2     3   am
     3     3    26    1
     4    26    40    1
     5    40    41    1
     6    41    42   ar
     7    42    43   ar
     8    43    44   ar
     9    44    45   ar
    10    45    46   ar
    11    46    47   ar
    12    47    48   ar
    13    48    49   ar
    14    26    27    1
    15    27    28    2
    16    27    29   am
    17    29    31    1
    18    31    32   ar
    19    32    33   ar
    20    33    34   ar
    21    34    35   ar
    22    35    36   ar
    23    36    37    1
    24    37    38    1
    25     2     5    1
    26     5     6   ar
    27     6     7   ar
    28     7     8   ar
    29     8    12    1
    30    12    13    1
    31    13    14    1
    32    14    15    1
    33    15    18    1
    34    18    19   ar
    35    19    20   ar
    36    20    21   ar
    37    21    22    1
    38    21    23   ar
    39    23    24    1
    40    23    25   ar
    41    15    16    1
    42    16    17    1
    43     8     9   ar
    44     9    10   ar
    45    10    11    1
    46    49    41   ar
    47    36    31   ar
    48    10     5   ar
    49    49    44   ar
    50    17    12    1
    51    25    18   ar
    52     3     4    1
    53    43    50    1
    54    29    30    1
    55    38    39    1
