@<TRIPOS>MOLECULE
*****
 52 57 0 0 0
SMALL
GASTEIGER

@<TRIPOS>ATOM
      1 C          60.1073   87.4318    9.8631 C.ar    1  UNL1        0.0502
      2 C          59.1753   86.3911   10.0152 C.ar    1  UNL1        0.0148
      3 C          59.2628   85.5103   11.0959 C.ar    1  UNL1        0.0080
      4 C          60.2909   85.6407   12.0437 C.ar    1  UNL1        0.0808
      5 C          61.2181   86.6903   11.9029 C.ar    1  UNL1        0.1457
      6 F          62.1858   86.8973   12.8305 F       1  UNL1       -0.2040
      7 C          61.1274   87.5715   10.8209 C.ar    1  UNL1        0.0443
      8 N          60.0086   90.0465    6.4565 N.pl3   1  UNL1       -0.3041
      9 C          59.6326   88.6307    6.3182 C.3     1  UNL1        0.1122
     10 C          59.0938   88.0599    7.6336 C.3     1  UNL1        0.1122
     11 N          60.0180   88.3401    8.7423 N.pl3   1  UNL1       -0.3040
     12 C          60.7886   89.5935    8.7569 C.3     1  UNL1        0.1122
     13 C          60.1992   90.6279    7.7931 C.3     1  UNL1        0.1122
     14 C          60.2946   92.5210    2.9734 C.ar    1  UNL1       -0.0185
     15 C          59.0828   92.3861    3.6800 C.ar    1  UNL1       -0.0031
     16 C          58.9913   91.5816    4.8122 C.ar    1  UNL1        0.0142
     17 C          60.1076   90.8795    5.2795 C.ar    1  UNL1        0.0479
     18 C          61.3244   91.0045    4.5909 C.ar    1  UNL1        0.0181
     19 C          61.4423   91.8133    3.4401 C.ar    1  UNL1        0.0687
     20 C          62.7872   91.9062    2.7391 C.3     1  UNL1        0.4183
     21 F          62.6768   91.7119    1.3725 F       1  UNL1       -0.1659
     22 F          63.6412   90.9377    3.2356 F       1  UNL1       -0.1659
     23 F          63.3354   93.1600    2.9433 F       1  UNL1       -0.1659
     24 C          59.9946   94.8760    2.1070 C.3     1  UNL1        0.0047
     25 C          60.3189   93.4223    1.7386 C.3     1  UNL1        0.0223
     26 C          59.3650   92.9027    0.6550 C.3     1  UNL1        0.0047
     27 C          60.3682   84.6870   13.1738 C.2     1  UNL1        0.2483
     28 O          59.3463   84.4921   13.8876 O.2     1  UNL1       -0.2701
     29 N          61.5750   83.9532   13.4383 N.am    1  UNL1       -0.2945
     30 H          62.2950   83.9129   12.6834 H       1  UNL1        0.1501
     31 C          61.6840   83.0140   14.5610 C.3     1  UNL1        0.1535
     32 C          61.1623   81.6553   14.1679 C.2     1  UNL1        0.2443
     33 O          61.8610   80.6281   14.3893 O.2     1  UNL1       -0.2730
     34 N          59.8370   81.5306   13.6288 N.am    1  UNL1       -0.2825
     35 H          59.1936   82.3487   13.7251 H       1  UNL1        0.1549
     36 C          59.3035   80.3142   13.0791 C.ar    1  UNL1        0.0535
     37 C          58.9421   80.2702   11.7256 C.ar    1  UNL1        0.0353
     38 C          58.4431   79.0845   11.1813 C.ar    1  UNL1        0.1002
     39 N          58.3246   77.9748   11.9572 N.ar    1  UNL1       -0.2422
     40 C          58.6853   77.9808   13.2677 C.ar    1  UNL1        0.1002
     41 C          59.1879   79.1463   13.8520 C.ar    1  UNL1        0.0353
     42 C          63.1307   82.9399   15.0924 C.3     1  UNL1        0.0569
     43 C          63.8523   84.2607   15.0622 C.ar    1  UNL1       -0.0017
     44 C          65.0911   84.5148   14.4792 C.ar    1  UNL1        0.0681
     45 N          65.4154   85.8212   14.6075 N.ar    1  UNL1       -0.3523
     46 C          64.3936   86.3949   15.2662 C.ar    1  UNL1        0.0563
     47 C          64.2682   87.7359   15.6266 C.ar    1  UNL1        0.0170
     48 C          63.1038   88.1263   16.3130 C.ar    1  UNL1        0.0015
     49 C          62.1035   87.1783   16.6219 C.ar    1  UNL1        0.0001
     50 C          62.2580   85.8314   16.2472 C.ar    1  UNL1        0.0012
     51 C          63.4208   85.4745   15.5632 C.ar    1  UNL1        0.0131
     52 H          66.2827   86.2870   14.2592 H       1  UNL1        0.1660
@<TRIPOS>BOND
     1    24    25    1
     2    25    26    1
     3    25    14    1
     4    14    15   ar
     5    15    16   ar
     6    16    17   ar
     7    17     8    1
     8     8     9    1
     9     9    10    1
    10    10    11    1
    11    11     1    1
    12     1     2   ar
    13     2     3   ar
    14     3     4   ar
    15     4    27    1
    16    27    28    2
    17    27    29   am
    18    29    31    1
    19    31    42    1
    20    42    43    1
    21    43    44   ar
    22    44    45   ar
    23    45    46   ar
    24    46    47   ar
    25    47    48   ar
    26    48    49   ar
    27    49    50   ar
    28    50    51   ar
    29    31    32    1
    30    32    33    2
    31    32    34   am
    32    34    36    1
    33    36    37   ar
    34    37    38   ar
    35    38    39   ar
    36    39    40   ar
    37    40    41   ar
    38     4     5   ar
    39     5     6    1
    40     5     7   ar
    41    11    12    1
    42    12    13    1
    43    17    18   ar
    44    18    19   ar
    45    19    20    1
    46    20    21    1
    47    20    22    1
    48    20    23    1
    49    19    14   ar
    50    13     8    1
    51     7     1   ar
    52    51    43   ar
    53    41    36   ar
    54    51    46   ar
    55    29    30    1
    56    45    52    1
    57    34    35    1
@<TRIPOS>MOLECULE
*****
 52 57 0 0 0
SMALL
GASTEIGER

@<TRIPOS>ATOM
      1 C          59.7134   89.3186    7.2812 C.ar    1  UNL1        0.0502
      2 C          59.2240   88.0094    7.1352 C.ar    1  UNL1        0.0148
      3 C          59.2189   87.1271    8.2182 C.ar    1  UNL1        0.0080
      4 C          59.7140   87.5279    9.4698 C.ar    1  UNL1        0.0808
      5 C          60.1920   88.8428    9.6241 C.ar    1  UNL1        0.1457
      6 F          60.6152   89.2957   10.8305 F       1  UNL1       -0.2040
      7 C          60.1946   89.7244    8.5387 C.ar    1  UNL1        0.0443
      8 N          59.6927   91.8695    3.8252 N.pl3   1  UNL1       -0.3041
      9 C          58.4286   91.3686    4.3871 C.3     1  UNL1        0.1122
     10 C          58.5537   91.0796    5.8862 C.3     1  UNL1        0.1122
     11 N          59.7218   90.2293    6.1588 N.pl3   1  UNL1       -0.3040
     12 C          60.9382   90.3690    5.3427 C.3     1  UNL1        0.1122
     13 C          60.9481   91.6909    4.5690 C.3     1  UNL1        0.1122
     14 C          59.6696   94.0602    0.1459 C.ar    1  UNL1       -0.0185
     15 C          60.5465   94.3988    1.1959 C.ar    1  UNL1       -0.0031
     16 C          60.5532   93.6856    2.3912 C.ar    1  UNL1        0.0142
     17 C          59.6815   92.6084    2.5830 C.ar    1  UNL1        0.0479
     18 C          58.8032   92.2538    1.5469 C.ar    1  UNL1        0.0181
     19 C          58.7770   92.9618    0.3261 C.ar    1  UNL1        0.0687
     20 C          57.8022   92.5289   -0.7562 C.3     1  UNL1        0.4183
     21 F          57.1209   91.3737   -0.4116 F       1  UNL1       -0.1659
     22 F          58.4886   92.2796   -1.9312 F       1  UNL1       -0.1659
     23 F          56.8645   93.5242   -0.9664 F       1  UNL1       -0.1659
     24 C          58.3613   94.8873   -1.8518 C.3     1  UNL1        0.0047
     25 C          59.7193   94.8892   -1.1378 C.3     1  UNL1        0.0223
     26 C          60.8332   94.3976   -2.0715 C.3     1  UNL1        0.0047
     27 C          59.7079   86.5698   10.5989 C.2     1  UNL1        0.2483
     28 O          58.6305   85.9936   10.9133 O.2     1  UNL1       -0.2701
     29 N          60.9181   86.2587   11.3086 N.am    1  UNL1       -0.2945
     30 H          61.8248   86.5170   10.8603 H       1  UNL1        0.1501
     31 C          60.9375   85.3254   12.4412 C.3     1  UNL1        0.1535
     32 C          60.5936   83.9305   11.9845 C.2     1  UNL1        0.2443
     33 O          61.5088   83.1582   11.5868 O.2     1  UNL1       -0.2730
     34 N          59.2408   83.4600   12.0914 N.am    1  UNL1       -0.2825
     35 H          58.5781   84.0142   12.6798 H       1  UNL1        0.1549
     36 C          58.7769   82.2144   11.5440 C.ar    1  UNL1        0.0535
     37 C          58.7891   81.0634   12.3435 C.ar    1  UNL1        0.0353
     38 C          58.3196   79.8550   11.8232 C.ar    1  UNL1        0.1002
     39 N          57.8380   79.8005   10.5534 N.ar    1  UNL1       -0.2422
     40 C          57.7948   80.9038    9.7606 C.ar    1  UNL1        0.1002
     41 C          58.2556   82.1321   10.2415 C.ar    1  UNL1        0.0353
     42 C          62.2910   85.3682   13.1807 C.3     1  UNL1        0.0569
     43 C          62.2330   86.0849   14.5032 C.ar    1  UNL1       -0.0017
     44 C          61.6904   85.5944   15.6882 C.ar    1  UNL1        0.0681
     45 N          61.8459   86.4924   16.6872 N.ar    1  UNL1       -0.3523
     46 C          62.4811   87.5456   16.1446 C.ar    1  UNL1        0.0563
     47 C          62.8684   88.7206   16.7875 C.ar    1  UNL1        0.0170
     48 C          63.5315   89.6995   16.0250 C.ar    1  UNL1        0.0015
     49 C          63.7878   89.4853   14.6527 C.ar    1  UNL1        0.0001
     50 C          63.3840   88.2905   14.0302 C.ar    1  UNL1        0.0012
     51 C          62.7329   87.3358   14.8127 C.ar    1  UNL1        0.0131
     52 H          61.5380   86.3834   17.6790 H       1  UNL1        0.1660
@<TRIPOS>BOND
     1    24    25    1
     2    25    26    1
     3    25    14    1
     4    14    15   ar
     5    15    16   ar
     6    16    17   ar
     7    17     8    1
     8     8     9    1
     9     9    10    1
    10    10    11    1
    11    11     1    1
    12     1     2   ar
    13     2     3   ar
    14     3     4   ar
    15     4    27    1
    16    27    28    2
    17    27    29   am
    18    29    31    1
    19    31    42    1
    20    42    43    1
    21    43    44   ar
    22    44    45   ar
    23    45    46   ar
    24    46    47   ar
    25    47    48   ar
    26    48    49   ar
    27    49    50   ar
    28    50    51   ar
    29    31    32    1
    30    32    33    2
    31    32    34   am
    32    34    36    1
    33    36    37   ar
    34    37    38   ar
    35    38    39   ar
    36    39    40   ar
    37    40    41   ar
    38     4     5   ar
    39     5     6    1
    40     5     7   ar
    41    11    12    1
    42    12    13    1
    43    17    18   ar
    44    18    19   ar
    45    19    20    1
    46    20    21    1
    47    20    22    1
    48    20    23    1
    49    19    14   ar
    50    13     8    1
    51     7     1   ar
    52    51    43   ar
    53    41    36   ar
    54    51    46   ar
    55    29    30    1
    56    45    52    1
    57    34    35    1
@<TRIPOS>MOLECULE
*****
 52 57 0 0 0
SMALL
GASTEIGER

@<TRIPOS>ATOM
      1 C          59.7495   89.0312    7.4487 C.ar    1  UNL1        0.0502
      2 C          59.1472   87.7732    7.2774 C.ar    1  UNL1        0.0148
      3 C          59.0292   86.8889    8.3523 C.ar    1  UNL1        0.0080
      4 C          59.5212   87.2354    9.6211 C.ar    1  UNL1        0.0808
      5 C          60.1124   88.5002    9.8004 C.ar    1  UNL1        0.1457
      6 F          60.5390   88.9056   11.0225 F       1  UNL1       -0.2040
      7 C          60.2280   89.3841    8.7230 C.ar    1  UNL1        0.0443
      8 N          60.0585   91.5950    4.0161 N.pl3   1  UNL1       -0.3041
      9 C          58.7394   91.2410    4.5632 C.3     1  UNL1        0.1122
     10 C          58.8164   90.9272    6.0606 C.3     1  UNL1        0.1122
     11 N          59.8744   89.9438    6.3348 N.pl3   1  UNL1       -0.3040
     12 C          61.1061   89.9467    5.5297 C.3     1  UNL1        0.1122
     13 C          61.2776   91.2646    4.7681 C.3     1  UNL1        0.1122
     14 C          60.3050   93.8064    0.3574 C.ar    1  UNL1       -0.0185
     15 C          59.0771   93.2977    0.8258 C.ar    1  UNL1       -0.0031
     16 C          58.9984   92.5792    2.0155 C.ar    1  UNL1        0.0142
     17 C          60.1449   92.3402    2.7806 C.ar    1  UNL1        0.0479
     18 C          61.3766   92.8425    2.3319 C.ar    1  UNL1        0.0181
     19 C          61.4823   93.5731    1.1289 C.ar    1  UNL1        0.0687
     20 C          62.8447   94.0894    0.6974 C.3     1  UNL1        0.4183
     21 F          62.7714   94.8512   -0.4566 F       1  UNL1       -0.1659
     22 F          63.6908   93.0239    0.4468 F       1  UNL1       -0.1659
     23 F          63.3804   94.8853    1.6943 F       1  UNL1       -0.1659
     24 C          58.8864   94.8852   -1.4344 C.3     1  UNL1        0.0047
     25 C          60.3138   94.5859   -0.9578 C.3     1  UNL1        0.0223
     26 C          61.1103   93.8413   -2.0374 C.3     1  UNL1        0.0047
     27 C          59.3940   86.2755   10.7414 C.2     1  UNL1        0.2483
     28 O          60.0567   85.2022   10.7125 O.2     1  UNL1       -0.2701
     29 N          58.5618   86.5710   11.8750 N.am    1  UNL1       -0.2945
     30 H          58.2592   87.5608   12.0112 H       1  UNL1        0.1501
     31 C          58.4053   85.6308   12.9912 C.3     1  UNL1        0.1535
     32 C          58.1317   84.2399   12.4782 C.2     1  UNL1        0.2443
     33 O          57.0948   84.0172   11.7943 O.2     1  UNL1       -0.2730
     34 N          59.0980   83.1993   12.6931 N.am    1  UNL1       -0.2825
     35 H          60.0548   83.4809   13.0057 H       1  UNL1        0.1549
     36 C          58.8691   81.8135   12.3873 C.ar    1  UNL1        0.0535
     37 C          59.0884   80.8444   13.3758 C.ar    1  UNL1        0.0353
     38 C          58.8472   79.4985   13.0903 C.ar    1  UNL1        0.1002
     39 N          58.3862   79.1333   11.8650 N.ar    1  UNL1       -0.2422
     40 C          58.1451   80.0518   10.8924 C.ar    1  UNL1        0.1002
     41 C          58.3742   81.4083   11.1359 C.ar    1  UNL1        0.0353
     42 C          59.6298   85.6643   13.9293 C.3     1  UNL1        0.0569
     43 C          60.1903   87.0456   14.1397 C.ar    1  UNL1       -0.0017
     44 C          59.4688   88.1920   14.4628 C.ar    1  UNL1        0.0681
     45 N          60.3004   89.2474   14.6141 N.ar    1  UNL1       -0.3523
     46 C          61.5402   88.7790   14.3894 C.ar    1  UNL1        0.0563
     47 C          62.7352   89.4957   14.4380 C.ar    1  UNL1        0.0170
     48 C          63.9296   88.8016   14.1721 C.ar    1  UNL1        0.0015
     49 C          63.9031   87.4232   13.8651 C.ar    1  UNL1        0.0001
     50 C          62.6822   86.7261   13.8216 C.ar    1  UNL1        0.0012
     51 C          61.5143   87.4396   14.0946 C.ar    1  UNL1        0.0131
     52 H          60.0304   90.2255   14.8608 H       1  UNL1        0.1660
@<TRIPOS>BOND
     1    24    25    1
     2    25    26    1
     3    25    14    1
     4    14    15   ar
     5    15    16   ar
     6    16    17   ar
     7    17     8    1
     8     8     9    1
     9     9    10    1
    10    10    11    1
    11    11     1    1
    12     1     2   ar
    13     2     3   ar
    14     3     4   ar
    15     4    27    1
    16    27    28    2
    17    27    29   am
    18    29    31    1
    19    31    42    1
    20    42    43    1
    21    43    44   ar
    22    44    45   ar
    23    45    46   ar
    24    46    47   ar
    25    47    48   ar
    26    48    49   ar
    27    49    50   ar
    28    50    51   ar
    29    31    32    1
    30    32    33    2
    31    32    34   am
    32    34    36    1
    33    36    37   ar
    34    37    38   ar
    35    38    39   ar
    36    39    40   ar
    37    40    41   ar
    38     4     5   ar
    39     5     6    1
    40     5     7   ar
    41    11    12    1
    42    12    13    1
    43    17    18   ar
    44    18    19   ar
    45    19    20    1
    46    20    21    1
    47    20    22    1
    48    20    23    1
    49    19    14   ar
    50    13     8    1
    51     7     1   ar
    52    51    43   ar
    53    41    36   ar
    54    51    46   ar
    55    29    30    1
    56    45    52    1
    57    34    35    1
