@<TRIPOS>MOLECULE
*****
 52 58 0 0 0
SMALL
GASTEIGER

@<TRIPOS>ATOM
      1 C          60.2439   84.8820   12.5947 C.ar    1  UNL1        0.1388
      2 C          59.1646   84.8445   11.7049 C.ar    1  UNL1        0.0382
      3 C          59.2006   85.5714   10.5119 C.ar    1  UNL1        0.0176
      4 C          60.3179   86.3579   10.1943 C.ar    1  UNL1        0.0481
      5 C          61.3915   86.4159   11.0971 C.ar    1  UNL1        0.0176
      6 C          61.3549   85.6877   12.2896 C.ar    1  UNL1        0.0382
      7 N          60.3538   87.1004    8.9609 N.pl3   1  UNL1       -0.3041
      8 C          59.6759   86.5721    7.7710 C.3     1  UNL1        0.1122
      9 C          59.0428   87.7161    6.9814 C.3     1  UNL1        0.1122
     10 N          60.0262   88.7862    6.7775 N.pl3   1  UNL1       -0.3041
     11 C          60.7133   89.3194    7.9599 C.3     1  UNL1        0.1122
     12 C          61.3325   88.1783    8.7706 C.3     1  UNL1        0.1122
     13 C          60.0718   89.4934    5.5239 C.ar    1  UNL1        0.0480
     14 C          58.9724   90.2513    5.0876 C.ar    1  UNL1        0.0160
     15 C          59.0248   90.9370    3.8709 C.ar    1  UNL1        0.0190
     16 C          60.1743   90.8733    3.0694 C.ar    1  UNL1        0.0702
     17 C          61.2782   90.1284    3.5111 C.ar    1  UNL1        0.0190
     18 C          61.2261   89.4412    4.7269 C.ar    1  UNL1        0.0160
     19 N          60.2343   91.5861    1.8233 N.ar    1  UNL1       -0.2378
     20 C          61.2804   92.2448    1.2690 C.ar    1  UNL1        0.1998
     21 I          63.1814   92.5169    2.1520 I       1  UNL1        0.0018
     22 N          60.9427   92.8016    0.0849 N.ar    1  UNL1       -0.1415
     23 N          59.6703   92.4948   -0.1232 N.ar    1  UNL1       -0.2021
     24 C          59.2482   91.7669    0.9256 C.ar    1  UNL1        0.3525
     25 O          58.0843   91.2955    1.0422 O.2     1  UNL1       -0.2444
     26 C          58.9016   92.8846   -1.3102 C.3     1  UNL1        0.1099
     27 C          58.3479   91.6357   -2.0012 C.3     1  UNL1        0.0265
     28 C          57.7617   93.8462   -0.9257 C.3     1  UNL1        0.0245
     29 C          56.5614   93.7116   -1.8617 C.3     1  UNL1        0.0021
     30 O          60.1636   84.1159   13.7673 O.3     1  UNL1       -0.4727
     31 C          60.7375   82.8214   13.9589 C.3     1  UNL1        0.2374
     32 C          60.9893   80.5166   11.2597 C.3     1  UNL1        0.2296
     33 O          60.5117   79.6349   12.2587 O.3     1  UNL1       -0.3267
     34 C          60.1910   80.4241   13.3619 C.3     1  UNL1        0.1783
     35 C          60.2389   81.8460   12.8822 C.3     1  UNL1        0.1909
     36 O          61.0986   81.8249   11.7876 O.3     1  UNL1       -0.3255
     37 C          60.0351   80.5112   10.0601 C.ar    1  UNL1        0.0409
     38 C          60.4192   81.1584    8.8640 C.ar    1  UNL1        0.0022
     39 C          59.5857   81.1539    7.7446 C.ar    1  UNL1        0.0113
     40 C          58.3618   80.4882    7.7849 C.ar    1  UNL1        0.0585
     41 CL         57.3186   80.4824    6.3746 Cl      1  UNL1       -0.0822
     42 C          57.9753   79.8130    8.9432 C.ar    1  UNL1        0.0226
     43 C          58.8007   79.8069   10.0749 C.ar    1  UNL1        0.0591
     44 CL         58.2446   78.8746   11.4635 Cl      1  UNL1       -0.0824
     45 C          62.3827   80.0475   10.7918 C.3     1  UNL1        0.1679
     46 C          64.1124   81.6715   11.6968 C.ar    1  UNL1        0.1205
     47 N          64.8400   82.7309   11.2767 N.ar    1  UNL1       -0.2293
     48 C          64.5043   82.8765    9.9796 C.ar    1  UNL1        0.1188
     49 C          63.5726   81.9255    9.6350 C.ar    1  UNL1        0.0979
     50 N          63.3286   81.1657   10.7166 N.ar    1  UNL1       -0.3084
     51 C          64.4643   82.2964   14.1174 C.3     1  UNL1        0.0084
     52 C          64.0913   81.1955   13.1264 C.3     1  UNL1        0.0640
@<TRIPOS>BOND
     1    51    52    1
     2    52    46    1
     3    46    47   ar
     4    47    48   ar
     5    48    49   ar
     6    49    50   ar
     7    50    45    1
     8    32    45    1
     9    32    37    1
    10    37    38   ar
    11    38    39   ar
    12    39    40   ar
    13    40    41    1
    14    40    42   ar
    15    42    43   ar
    16    43    44    1
    17    32    33    1
    18    33    34    1
    19    34    35    1
    20    35    31    1
    21    31    30    1
    22    30     1    1
    23     1     2   ar
    24     2     3   ar
    25     3     4   ar
    26     4     7    1
    27     7     8    1
    28     8     9    1
    29     9    10    1
    30    10    13    1
    31    13    14   ar
    32    14    15   ar
    33    15    16   ar
    34    16    19    1
    35    19    20   ar
    36    20    21    1
    37    20    22   ar
    38    22    23   ar
    39    23    26    1
    40    26    27    1
    41    26    28    1
    42    28    29    1
    43    23    24   ar
    44    24    25    2
    45    16    17   ar
    46    17    18   ar
    47    10    11    1
    48    11    12    1
    49     4     5   ar
    50     5     6   ar
    51    35    36    1
    52    50    46   ar
    53    36    32    1
    54    43    37   ar
    55     6     1   ar
    56    12     7    1
    57    18    13   ar
    58    24    19   ar
@<TRIPOS>MOLECULE
*****
 52 58 0 0 0
SMALL
GASTEIGER

@<TRIPOS>ATOM
      1 C          60.7099   85.3483   12.7052 C.ar    1  UNL1        0.1388
      2 C          61.8446   86.0318   12.2541 C.ar    1  UNL1        0.0382
      3 C          61.8296   86.7045   11.0294 C.ar    1  UNL1        0.0176
      4 C          60.6772   86.6956   10.2295 C.ar    1  UNL1        0.0481
      5 C          59.5458   85.9902   10.6692 C.ar    1  UNL1        0.0176
      6 C          59.5615   85.3184   11.8948 C.ar    1  UNL1        0.0382
      7 N          60.6637   87.3955    8.9711 N.pl3   1  UNL1       -0.3041
      8 C          60.0022   86.7926    7.8077 C.3     1  UNL1        0.1122
      9 C          59.3044   87.8750    6.9864 C.3     1  UNL1        0.1122
     10 N          60.2304   88.9855    6.7348 N.pl3   1  UNL1       -0.3041
     11 C          60.9009   89.5935    7.8904 C.3     1  UNL1        0.1122
     12 C          61.5847   88.5139    8.7328 C.3     1  UNL1        0.1122
     13 C          60.2283   89.6499    5.4573 C.ar    1  UNL1        0.0480
     14 C          61.3365   89.5573    4.5989 C.ar    1  UNL1        0.0160
     15 C          61.3264   90.2029    3.3594 C.ar    1  UNL1        0.0190
     16 C          60.2111   90.9540    2.9595 C.ar    1  UNL1        0.0702
     17 C          59.0981   91.0352    3.8099 C.ar    1  UNL1        0.0190
     18 C          59.1079   90.3912    5.0502 C.ar    1  UNL1        0.0160
     19 N          60.1942   91.6097    1.6811 N.ar    1  UNL1       -0.2378
     20 C          61.1877   92.2899    1.0602 C.ar    1  UNL1        0.1998
     21 I          63.1021   92.6920    1.8609 I       1  UNL1        0.0018
     22 N          60.7835   92.7742   -0.1348 N.ar    1  UNL1       -0.1415
     23 N          59.5212   92.3986   -0.2829 N.ar    1  UNL1       -0.2021
     24 C          59.1706   91.7017    0.8124 C.ar    1  UNL1        0.3525
     25 O          58.0357   91.1822    0.9920 O.2     1  UNL1       -0.2444
     26 C          58.6947   92.6959   -1.4577 C.3     1  UNL1        0.1099
     27 C          58.0363   91.4105   -1.9658 C.3     1  UNL1        0.0265
     28 C          57.6310   93.7563   -1.1175 C.3     1  UNL1        0.0245
     29 C          56.2765   93.4275   -1.7440 C.3     1  UNL1        0.0021
     30 O          60.7734   84.7082   13.9522 O.3     1  UNL1       -0.4727
     31 C          61.8143   83.8315   14.3877 C.3     1  UNL1        0.2374
     32 C          62.0544   81.0482   12.1839 C.3     1  UNL1        0.2296
     33 O          62.7632   80.5171   13.2879 O.3     1  UNL1       -0.3267
     34 C          62.6183   81.4331   14.3284 C.3     1  UNL1        0.1783
     35 C          61.5624   82.4030   13.8825 C.3     1  UNL1        0.1909
     36 O          61.5931   82.3500   12.4919 O.3     1  UNL1       -0.3255
     37 C          60.8702   80.1385   11.8380 C.ar    1  UNL1        0.0409
     38 C          61.1081   78.7882   11.4957 C.ar    1  UNL1        0.0022
     39 C          60.0524   77.9254   11.1975 C.ar    1  UNL1        0.0113
     40 C          58.7368   78.3823   11.2534 C.ar    1  UNL1        0.0585
     41 CL         57.4128   77.2937   10.8808 Cl      1  UNL1       -0.0822
     42 C          58.4742   79.7023   11.6219 C.ar    1  UNL1        0.0226
     43 C          59.5222   80.5807   11.9252 C.ar    1  UNL1        0.0591
     44 CL         59.0773   82.2078   12.4363 Cl      1  UNL1       -0.0824
     45 C          62.9970   81.1265   10.9649 C.3     1  UNL1        0.1679
     46 C          61.6415   82.3595    9.2068 C.ar    1  UNL1        0.1205
     47 N          61.6509   83.5416    8.5504 N.ar    1  UNL1       -0.2293
     48 C          62.7060   84.2038    9.0648 C.ar    1  UNL1        0.1188
     49 C          63.3300   83.4174   10.0048 C.ar    1  UNL1        0.0979
     50 N          62.6572   82.2573   10.0951 N.ar    1  UNL1       -0.3084
     51 C          59.6440   81.6411    7.8404 C.3     1  UNL1        0.0084
     52 C          60.6808   81.2429    8.8890 C.3     1  UNL1        0.0640
@<TRIPOS>BOND
     1    51    52    1
     2    52    46    1
     3    46    47   ar
     4    47    48   ar
     5    48    49   ar
     6    49    50   ar
     7    50    45    1
     8    32    45    1
     9    32    37    1
    10    37    38   ar
    11    38    39   ar
    12    39    40   ar
    13    40    41    1
    14    40    42   ar
    15    42    43   ar
    16    43    44    1
    17    32    33    1
    18    33    34    1
    19    34    35    1
    20    35    31    1
    21    31    30    1
    22    30     1    1
    23     1     2   ar
    24     2     3   ar
    25     3     4   ar
    26     4     7    1
    27     7     8    1
    28     8     9    1
    29     9    10    1
    30    10    13    1
    31    13    14   ar
    32    14    15   ar
    33    15    16   ar
    34    16    19    1
    35    19    20   ar
    36    20    21    1
    37    20    22   ar
    38    22    23   ar
    39    23    26    1
    40    26    27    1
    41    26    28    1
    42    28    29    1
    43    23    24   ar
    44    24    25    2
    45    16    17   ar
    46    17    18   ar
    47    10    11    1
    48    11    12    1
    49     4     5   ar
    50     5     6   ar
    51    35    36    1
    52    50    46   ar
    53    36    32    1
    54    43    37   ar
    55     6     1   ar
    56    12     7    1
    57    18    13   ar
    58    24    19   ar
@<TRIPOS>MOLECULE
*****
 52 58 0 0 0
SMALL
GASTEIGER

@<TRIPOS>ATOM
      1 C          60.5302   85.6304   12.9853 C.ar    1  UNL1        0.1388
      2 C          61.7391   85.9712   12.3684 C.ar    1  UNL1        0.0382
      3 C          61.7485   86.5921   11.1165 C.ar    1  UNL1        0.0176
      4 C          60.5436   86.8742   10.4558 C.ar    1  UNL1        0.0481
      5 C          59.3306   86.5111   11.0624 C.ar    1  UNL1        0.0176
      6 C          59.3222   85.8909   12.3150 C.ar    1  UNL1        0.0382
      7 N          60.5573   87.5200    9.1688 N.pl3   1  UNL1       -0.3041
      8 C          59.7824   86.9521    8.0589 C.3     1  UNL1        0.1122
      9 C          59.1794   88.0747    7.2168 C.3     1  UNL1        0.1122
     10 N          60.2152   89.0589    6.8815 N.pl3   1  UNL1       -0.3041
     11 C          60.9992   89.6304    7.9830 C.3     1  UNL1        0.1122
     12 C          61.5896   88.5132    8.8467 C.3     1  UNL1        0.1122
     13 C          60.2354   89.6674    5.5766 C.ar    1  UNL1        0.0480
     14 C          61.3467   89.5142    4.7309 C.ar    1  UNL1        0.0160
     15 C          61.3582   90.1057    3.4647 C.ar    1  UNL1        0.0190
     16 C          60.2619   90.8625    3.0250 C.ar    1  UNL1        0.0702
     17 C          59.1456   91.0040    3.8631 C.ar    1  UNL1        0.0190
     18 C          59.1338   90.4141    5.1300 C.ar    1  UNL1        0.0160
     19 N          60.2671   91.4625    1.7194 N.ar    1  UNL1       -0.2378
     20 C          61.2972   92.0317    1.0484 C.ar    1  UNL1        0.1998
     21 I          63.2570   92.3082    1.7901 I       1  UNL1        0.0018
     22 N          60.9045   92.4965   -0.1582 N.ar    1  UNL1       -0.1415
     23 N          59.6126   92.2203   -0.2630 N.ar    1  UNL1       -0.2021
     24 C          59.2334   91.6017    0.8692 C.ar    1  UNL1        0.3525
     25 O          58.0647   91.1857    1.0954 O.2     1  UNL1       -0.2444
     26 C          58.7845   92.5347   -1.4322 C.3     1  UNL1        0.1099
     27 C          57.9903   91.2950   -1.8521 C.3     1  UNL1        0.0265
     28 C          57.8387   93.7108   -1.1258 C.3     1  UNL1        0.0245
     29 C          56.4229   93.4536   -1.6402 C.3     1  UNL1        0.0021
     30 O          60.5787   85.0285   14.2518 O.3     1  UNL1       -0.4727
     31 C          61.5135   84.0302   14.6656 C.3     1  UNL1        0.2374
     32 C          61.0218   82.2335   11.6338 C.3     1  UNL1        0.2296
     33 O          62.4035   81.9857   11.8154 O.3     1  UNL1       -0.3267
     34 C          62.7332   82.4879   13.0731 C.3     1  UNL1        0.1783
     35 C          61.4296   82.8002   13.7493 C.3     1  UNL1        0.1909
     36 O          60.5289   83.0102   12.7091 O.3     1  UNL1       -0.3255
     37 C          60.2603   80.9058   11.5512 C.ar    1  UNL1        0.0409
     38 C          58.9971   80.7895   12.1739 C.ar    1  UNL1        0.0022
     39 C          58.2655   79.6032   12.0996 C.ar    1  UNL1        0.0113
     40 C          58.7660   78.5148   11.3871 C.ar    1  UNL1        0.0585
     41 CL         57.8418   77.0268   11.2937 Cl      1  UNL1       -0.0822
     42 C          59.9954   78.6163   10.7351 C.ar    1  UNL1        0.0226
     43 C          60.7416   79.8000   10.7990 C.ar    1  UNL1        0.0591
     44 CL         62.2517   79.8417    9.8910 Cl      1  UNL1       -0.0824
     45 C          60.8137   83.0115   10.3177 C.3     1  UNL1        0.1679
     46 C          58.9074   82.2947    8.8009 C.ar    1  UNL1        0.1205
     47 N          57.5745   82.4827    8.6740 N.ar    1  UNL1       -0.2293
     48 C          57.2450   83.2706    9.7166 C.ar    1  UNL1        0.1188
     49 C          58.3727   83.5643   10.4469 C.ar    1  UNL1        0.0979
     50 N          59.4185   82.9471    9.8706 N.ar    1  UNL1       -0.3084
     51 C          58.9526   80.4404    7.0883 C.3     1  UNL1        0.0084
     52 C          59.7384   81.5455    7.7914 C.3     1  UNL1        0.0640
@<TRIPOS>BOND
     1    51    52    1
     2    52    46    1
     3    46    47   ar
     4    47    48   ar
     5    48    49   ar
     6    49    50   ar
     7    50    45    1
     8    32    45    1
     9    32    37    1
    10    37    38   ar
    11    38    39   ar
    12    39    40   ar
    13    40    41    1
    14    40    42   ar
    15    42    43   ar
    16    43    44    1
    17    32    33    1
    18    33    34    1
    19    34    35    1
    20    35    31    1
    21    31    30    1
    22    30     1    1
    23     1     2   ar
    24     2     3   ar
    25     3     4   ar
    26     4     7    1
    27     7     8    1
    28     8     9    1
    29     9    10    1
    30    10    13    1
    31    13    14   ar
    32    14    15   ar
    33    15    16   ar
    34    16    19    1
    35    19    20   ar
    36    20    21    1
    37    20    22   ar
    38    22    23   ar
    39    23    26    1
    40    26    27    1
    41    26    28    1
    42    28    29    1
    43    23    24   ar
    44    24    25    2
    45    16    17   ar
    46    17    18   ar
    47    10    11    1
    48    11    12    1
    49     4     5   ar
    50     5     6   ar
    51    35    36    1
    52    50    46   ar
    53    36    32    1
    54    43    37   ar
    55     6     1   ar
    56    12     7    1
    57    18    13   ar
    58    24    19   ar
@<TRIPOS>MOLECULE
*****
 52 58 0 0 0
SMALL
GASTEIGER

@<TRIPOS>ATOM
      1 C          58.2419   84.5895   11.8205 C.ar    1  UNL1        0.1388
      2 C          58.0540   84.1031   10.5220 C.ar    1  UNL1        0.0382
      3 C          58.4104   84.8769    9.4142 C.ar    1  UNL1        0.0176
      4 C          58.9537   86.1583    9.5894 C.ar    1  UNL1        0.0481
      5 C          59.1204   86.6575   10.8910 C.ar    1  UNL1        0.0176
      6 C          58.7645   85.8825   11.9984 C.ar    1  UNL1        0.0382
      7 N          59.3256   86.9499    8.4454 N.pl3   1  UNL1       -0.3041
      8 C          58.6041   86.7847    7.1779 C.3     1  UNL1        0.1122
      9 C          58.4447   88.1386    6.4891 C.3     1  UNL1        0.1122
     10 N          59.7381   88.8307    6.4432 N.pl3   1  UNL1       -0.3041
     11 C          60.4705   88.9980    7.7042 C.3     1  UNL1        0.1122
     12 C          60.6160   87.6496    8.4137 C.3     1  UNL1        0.1122
     13 C          60.1091   89.5876    5.2757 C.ar    1  UNL1        0.0480
     14 C          61.3543   89.3871    4.6568 C.ar    1  UNL1        0.0160
     15 C          61.7066   90.1236    3.5225 C.ar    1  UNL1        0.0190
     16 C          60.8227   91.0745    2.9911 C.ar    1  UNL1        0.0702
     17 C          59.5731   91.2652    3.5999 C.ar    1  UNL1        0.0190
     18 C          59.2205   90.5302    4.7351 C.ar    1  UNL1        0.0160
     19 N          61.1785   91.8253    1.8187 N.ar    1  UNL1       -0.2378
     20 C          60.4431   92.0664    0.7068 C.ar    1  UNL1        0.1998
     21 I          58.5159   91.2970    0.3050 I       1  UNL1        0.0018
     22 N          61.1299   92.8100   -0.1884 N.ar    1  UNL1       -0.1415
     23 N          62.3144   93.0503    0.3553 N.ar    1  UNL1       -0.2021
     24 C          62.3399   92.4539    1.5603 C.ar    1  UNL1        0.3525
     25 O          63.3181   92.4971    2.3548 O.2     1  UNL1       -0.2444
     26 C          63.3744   93.8465   -0.2724 C.3     1  UNL1        0.1099
     27 C          64.6703   93.7078    0.5310 C.3     1  UNL1        0.0265
     28 C          63.5883   93.4082   -1.7331 C.3     1  UNL1        0.0245
     29 C          63.6339   91.8871   -1.8717 C.3     1  UNL1        0.0021
     30 O          57.8866   83.7619   12.8965 O.3     1  UNL1       -0.4727
     31 C          58.6735   82.6900   13.4196 C.3     1  UNL1        0.2374
     32 C          62.0524   83.3251   12.5023 C.3     1  UNL1        0.2296
     33 O          62.1959   81.9953   12.9657 O.3     1  UNL1       -0.3267
     34 C          60.9084   81.5219   13.2130 C.3     1  UNL1        0.1783
     35 C          59.9731   82.5334   12.6160 C.3     1  UNL1        0.1909
     36 O          60.6974   83.7219   12.5968 O.3     1  UNL1       -0.3255
     37 C          62.5300   83.4254   11.0492 C.ar    1  UNL1        0.0409
     38 C          61.9701   84.4064   10.2001 C.ar    1  UNL1        0.0022
     39 C          62.3973   84.5415    8.8783 C.ar    1  UNL1        0.0113
     40 C          63.4046   83.7172    8.3797 C.ar    1  UNL1        0.0585
     41 CL         63.9406   83.8925    6.7187 Cl      1  UNL1       -0.0822
     42 C          63.9968   82.7637    9.2085 C.ar    1  UNL1        0.0226
     43 C          63.5803   82.6160   10.5377 C.ar    1  UNL1        0.0591
     44 CL         64.4350   81.4231   11.5141 Cl      1  UNL1       -0.0824
     45 C          62.9109   84.2631   13.3763 C.3     1  UNL1        0.1679
     46 C          61.8638   86.5260   13.8573 C.ar    1  UNL1        0.1205
     47 N          61.0611   87.1075   14.7769 N.ar    1  UNL1       -0.2293
     48 C          60.7549   86.1130   15.6334 C.ar    1  UNL1        0.1188
     49 C          61.3833   84.9550   15.2387 C.ar    1  UNL1        0.0979
     50 N          62.0792   85.2159   14.1187 N.ar    1  UNL1       -0.3084
     51 C          63.4329   88.4111   13.2592 C.3     1  UNL1        0.0084
     52 C          62.5356   87.2875   12.7439 C.3     1  UNL1        0.0640
@<TRIPOS>BOND
     1    51    52    1
     2    52    46    1
     3    46    47   ar
     4    47    48   ar
     5    48    49   ar
     6    49    50   ar
     7    50    45    1
     8    32    45    1
     9    32    37    1
    10    37    38   ar
    11    38    39   ar
    12    39    40   ar
    13    40    41    1
    14    40    42   ar
    15    42    43   ar
    16    43    44    1
    17    32    33    1
    18    33    34    1
    19    34    35    1
    20    35    31    1
    21    31    30    1
    22    30     1    1
    23     1     2   ar
    24     2     3   ar
    25     3     4   ar
    26     4     7    1
    27     7     8    1
    28     8     9    1
    29     9    10    1
    30    10    13    1
    31    13    14   ar
    32    14    15   ar
    33    15    16   ar
    34    16    19    1
    35    19    20   ar
    36    20    21    1
    37    20    22   ar
    38    22    23   ar
    39    23    26    1
    40    26    27    1
    41    26    28    1
    42    28    29    1
    43    23    24   ar
    44    24    25    2
    45    16    17   ar
    46    17    18   ar
    47    10    11    1
    48    11    12    1
    49     4     5   ar
    50     5     6   ar
    51    35    36    1
    52    50    46   ar
    53    36    32    1
    54    43    37   ar
    55     6     1   ar
    56    12     7    1
    57    18    13   ar
    58    24    19   ar
@<TRIPOS>MOLECULE
*****
 52 58 0 0 0
SMALL
GASTEIGER

@<TRIPOS>ATOM
      1 C          59.5206   84.9338   12.3018 C.ar    1  UNL1        0.1388
      2 C          60.5443   85.8848   12.2272 C.ar    1  UNL1        0.0382
      3 C          60.7505   86.6175   11.0552 C.ar    1  UNL1        0.0176
      4 C          59.9382   86.4020    9.9320 C.ar    1  UNL1        0.0481
      5 C          58.9262   85.4311    9.9970 C.ar    1  UNL1        0.0176
      6 C          58.7201   84.6994   11.1700 C.ar    1  UNL1        0.0382
      7 N          60.1498   87.1636    8.7284 N.pl3   1  UNL1       -0.3041
      8 C          59.6095   86.6779    7.4529 C.3     1  UNL1        0.1122
      9 C          59.1146   87.8551    6.6150 C.3     1  UNL1        0.1122
     10 N          60.1478   88.8958    6.5567 N.pl3   1  UNL1       -0.3041
     11 C          60.6983   89.3862    7.8260 C.3     1  UNL1        0.1122
     12 C          61.1768   88.2120    8.6832 C.3     1  UNL1        0.1122
     13 C          60.3705   89.6222    5.3335 C.ar    1  UNL1        0.0480
     14 C          59.3673   90.4454    4.7954 C.ar    1  UNL1        0.0160
     15 C          59.5915   91.1493    3.6090 C.ar    1  UNL1        0.0190
     16 C          60.8193   91.0390    2.9396 C.ar    1  UNL1        0.0702
     17 C          61.8270   90.2284    3.4838 C.ar    1  UNL1        0.0190
     18 C          61.6032   89.5230    4.6693 C.ar    1  UNL1        0.0160
     19 N          61.0558   91.7701    1.7254 N.ar    1  UNL1       -0.2378
     20 C          60.2280   91.9570    0.6695 C.ar    1  UNL1        0.1998
     21 I          58.3039   91.1130    0.4390 I       1  UNL1        0.0018
     22 N          60.8161   92.6994   -0.2944 N.ar    1  UNL1       -0.1415
     23 N          62.0300   92.9936    0.1485 N.ar    1  UNL1       -0.2021
     24 C          62.1705   92.4303    1.3615 C.ar    1  UNL1        0.3525
     25 O          63.2055   92.5272    2.0753 O.2     1  UNL1       -0.2444
     26 C          63.0090   93.8081   -0.5794 C.3     1  UNL1        0.1099
     27 C          64.3282   93.8478    0.1966 C.3     1  UNL1        0.0265
     28 C          63.2274   93.2525   -1.9990 C.3     1  UNL1        0.0245
     29 C          63.6047   91.7718   -1.9807 C.3     1  UNL1        0.0021
     30 O          59.3444   84.2423   13.5099 O.3     1  UNL1       -0.4727
     31 C          59.9017   82.9660   13.8293 C.3     1  UNL1        0.2374
     32 C          60.5924   80.6600   11.2090 C.3     1  UNL1        0.2296
     33 O          60.0751   79.7560   12.1674 O.3     1  UNL1       -0.3267
     34 C          59.5872   80.5308   13.2184 C.3     1  UNL1        0.1783
     35 C          59.5868   81.9481   12.7229 C.3     1  UNL1        0.1909
     36 O          60.5555   81.9775   11.7238 O.3     1  UNL1       -0.3255
     37 C          59.7715   80.5766    9.9171 C.ar    1  UNL1        0.0409
     38 C          60.2430   81.2215    8.7515 C.ar    1  UNL1        0.0022
     39 C          59.5333   81.1474    7.5520 C.ar    1  UNL1        0.0113
     40 C          58.3506   80.4134    7.4818 C.ar    1  UNL1        0.0585
     41 CL         57.4634   80.3204    5.9713 Cl      1  UNL1       -0.0822
     42 C          57.8821   79.7397    8.6103 C.ar    1  UNL1        0.0226
     43 C          58.5830   79.8030    9.8214 C.ar    1  UNL1        0.0591
     44 CL         57.9361   78.8674   11.1679 Cl      1  UNL1       -0.0824
     45 C          62.0561   80.2857   10.8957 C.3     1  UNL1        0.1679
     46 C          63.6603   82.2469   11.0653 C.ar    1  UNL1        0.1205
     47 N          64.4749   82.8270   11.9754 N.ar    1  UNL1       -0.2293
     48 C          64.2962   82.1020   13.0974 C.ar    1  UNL1        0.1188
     49 C          63.3985   81.0891   12.8536 C.ar    1  UNL1        0.0979
     50 N          62.9969   81.1830   11.5743 N.ar    1  UNL1       -0.3084
     51 C          62.6336   83.8277    9.3860 C.3     1  UNL1        0.0084
     52 C          63.6000   82.6682    9.6197 C.3     1  UNL1        0.0640
@<TRIPOS>BOND
     1    51    52    1
     2    52    46    1
     3    46    47   ar
     4    47    48   ar
     5    48    49   ar
     6    49    50   ar
     7    50    45    1
     8    32    45    1
     9    32    37    1
    10    37    38   ar
    11    38    39   ar
    12    39    40   ar
    13    40    41    1
    14    40    42   ar
    15    42    43   ar
    16    43    44    1
    17    32    33    1
    18    33    34    1
    19    34    35    1
    20    35    31    1
    21    31    30    1
    22    30     1    1
    23     1     2   ar
    24     2     3   ar
    25     3     4   ar
    26     4     7    1
    27     7     8    1
    28     8     9    1
    29     9    10    1
    30    10    13    1
    31    13    14   ar
    32    14    15   ar
    33    15    16   ar
    34    16    19    1
    35    19    20   ar
    36    20    21    1
    37    20    22   ar
    38    22    23   ar
    39    23    26    1
    40    26    27    1
    41    26    28    1
    42    28    29    1
    43    23    24   ar
    44    24    25    2
    45    16    17   ar
    46    17    18   ar
    47    10    11    1
    48    11    12    1
    49     4     5   ar
    50     5     6   ar
    51    35    36    1
    52    50    46   ar
    53    36    32    1
    54    43    37   ar
    55     6     1   ar
    56    12     7    1
    57    18    13   ar
    58    24    19   ar
@<TRIPOS>MOLECULE
*****
 52 58 0 0 0
SMALL
GASTEIGER

@<TRIPOS>ATOM
      1 C          60.4548   85.7402   13.2710 C.ar    1  UNL1        0.1388
      2 C          61.6127   86.2141   12.6443 C.ar    1  UNL1        0.0382
      3 C          61.5371   86.8712   11.4133 C.ar    1  UNL1        0.0176
      4 C          60.2975   87.0565   10.7834 C.ar    1  UNL1        0.0481
      5 C          59.1374   86.5604   11.3990 C.ar    1  UNL1        0.0176
      6 C          59.2139   85.9041   12.6308 C.ar    1  UNL1        0.0382
      7 N          60.2232   87.7399    9.5180 N.pl3   1  UNL1       -0.3041
      8 C          60.9798   88.9809    9.3131 C.3     1  UNL1        0.1122
      9 C          61.5210   89.0313    7.8857 C.3     1  UNL1        0.1122
     10 N          60.4452   88.7327    6.9331 N.pl3   1  UNL1       -0.3041
     11 C          59.6790   87.4964    7.1306 C.3     1  UNL1        0.1122
     12 C          59.1510   87.4254    8.5654 C.3     1  UNL1        0.1122
     13 C          60.3651   89.4521    5.6883 C.ar    1  UNL1        0.0480
     14 C          61.4521   89.4690    4.7985 C.ar    1  UNL1        0.0160
     15 C          61.3663   90.1673    3.5909 C.ar    1  UNL1        0.0190
     16 C          60.1952   90.8628    3.2551 C.ar    1  UNL1        0.0702
     17 C          59.1039   90.8346    4.1364 C.ar    1  UNL1        0.0190
     18 C          59.1894   90.1378    5.3449 C.ar    1  UNL1        0.0160
     19 N          60.1010   91.5726    2.0093 N.ar    1  UNL1       -0.2378
     20 C          61.0500   92.2959    1.3678 C.ar    1  UNL1        0.1998
     21 I          62.9979   92.6958    2.0842 I       1  UNL1        0.0018
     22 N          60.5759   92.8242    0.2180 N.ar    1  UNL1       -0.1415
     23 N          59.3132   92.4338    0.1197 N.ar    1  UNL1       -0.2021
     24 C          59.0315   91.6844    1.2002 C.ar    1  UNL1        0.3525
     25 O          57.9155   91.1384    1.4159 O.2     1  UNL1       -0.2444
     26 C          58.4213   92.7672   -0.9961 C.3     1  UNL1        0.1099
     27 C          59.0658   93.8477   -1.8686 C.3     1  UNL1        0.0265
     28 C          58.1027   91.5116   -1.8288 C.3     1  UNL1        0.0245
     29 C          56.6105   91.1825   -1.8170 C.3     1  UNL1        0.0021
     30 O          60.5864   85.1071   14.5162 O.3     1  UNL1       -0.4727
     31 C          61.6002   84.1641   14.8694 C.3     1  UNL1        0.2374
     32 C          61.2639   82.2744   11.8732 C.3     1  UNL1        0.2296
     33 O          62.5838   81.9011   12.2224 O.3     1  UNL1       -0.3267
     34 C          62.8224   82.4310   13.4893 C.3     1  UNL1        0.1783
     35 C          61.4913   82.9039   13.9981 C.3     1  UNL1        0.1909
     36 O          60.7380   83.1489   12.8535 O.3     1  UNL1       -0.3255
     37 C          60.3828   81.0256   11.7550 C.ar    1  UNL1        0.0409
     38 C          60.9826   79.7754   11.4827 C.ar    1  UNL1        0.0022
     39 C          60.2139   78.6141   11.3911 C.ar    1  UNL1        0.0113
     40 C          58.8353   78.6689   11.5887 C.ar    1  UNL1        0.0585
     41 CL         57.8734   77.2064   11.4757 Cl      1  UNL1       -0.0822
     42 C          58.2241   79.8860   11.8924 C.ar    1  UNL1        0.0226
     43 C          58.9813   81.0604   11.9890 C.ar    1  UNL1        0.0591
     44 CL         58.1193   82.5315   12.4357 Cl      1  UNL1       -0.0824
     45 C          61.2846   83.0018   10.5127 C.3     1  UNL1        0.1679
     46 C          59.4186   82.5289    8.8567 C.ar    1  UNL1        0.1205
     47 N          59.0480   81.5694    7.9790 N.ar    1  UNL1       -0.2293
     48 C          60.0297   80.6490    8.0522 C.ar    1  UNL1        0.1188
     49 C          60.9664   81.0467    8.9774 C.ar    1  UNL1        0.0979
     50 N          60.5816   82.2319    9.4813 N.ar    1  UNL1       -0.3084
     51 C          57.0792   83.3818    9.2731 C.3     1  UNL1        0.0084
     52 C          58.5646   83.7264    9.1845 C.3     1  UNL1        0.0640
@<TRIPOS>BOND
     1    51    52    1
     2    52    46    1
     3    46    47   ar
     4    47    48   ar
     5    48    49   ar
     6    49    50   ar
     7    50    45    1
     8    32    45    1
     9    32    37    1
    10    37    38   ar
    11    38    39   ar
    12    39    40   ar
    13    40    41    1
    14    40    42   ar
    15    42    43   ar
    16    43    44    1
    17    32    33    1
    18    33    34    1
    19    34    35    1
    20    35    31    1
    21    31    30    1
    22    30     1    1
    23     1     2   ar
    24     2     3   ar
    25     3     4   ar
    26     4     7    1
    27     7     8    1
    28     8     9    1
    29     9    10    1
    30    10    13    1
    31    13    14   ar
    32    14    15   ar
    33    15    16   ar
    34    16    19    1
    35    19    20   ar
    36    20    21    1
    37    20    22   ar
    38    22    23   ar
    39    23    26    1
    40    26    27    1
    41    26    28    1
    42    28    29    1
    43    23    24   ar
    44    24    25    2
    45    16    17   ar
    46    17    18   ar
    47    10    11    1
    48    11    12    1
    49     4     5   ar
    50     5     6   ar
    51    35    36    1
    52    50    46   ar
    53    36    32    1
    54    43    37   ar
    55     6     1   ar
    56    12     7    1
    57    18    13   ar
    58    24    19   ar
@<TRIPOS>MOLECULE
*****
 52 58 0 0 0
SMALL
GASTEIGER

@<TRIPOS>ATOM
      1 C          58.2199   84.7587   11.6826 C.ar    1  UNL1        0.1388
      2 C          58.6932   86.0666   11.8359 C.ar    1  UNL1        0.0382
      3 C          59.0685   86.8223   10.7220 C.ar    1  UNL1        0.0176
      4 C          58.9846   86.2753    9.4329 C.ar    1  UNL1        0.0481
      5 C          58.5329   84.9549    9.2792 C.ar    1  UNL1        0.0176
      6 C          58.1569   84.2001   10.3939 C.ar    1  UNL1        0.0382
      7 N          59.3661   87.0596    8.2871 N.pl3   1  UNL1       -0.3041
      8 C          58.6399   86.9034    7.0211 C.3     1  UNL1        0.1122
      9 C          58.4995   88.2585    6.3306 C.3     1  UNL1        0.1122
     10 N          59.8029   88.9312    6.2814 N.pl3   1  UNL1       -0.3041
     11 C          60.5400   89.0895    7.5408 C.3     1  UNL1        0.1122
     12 C          60.6667   87.7401    8.2520 C.3     1  UNL1        0.1122
     13 C          60.1830   89.6809    5.1121 C.ar    1  UNL1        0.0480
     14 C          59.3508   90.6944    4.6081 C.ar    1  UNL1        0.0160
     15 C          59.7274   91.4194    3.4743 C.ar    1  UNL1        0.0190
     16 C          60.9388   91.1411    2.8239 C.ar    1  UNL1        0.0702
     17 C          61.7773   90.1390    3.3349 C.ar    1  UNL1        0.0190
     18 C          61.4009   89.4124    4.4678 C.ar    1  UNL1        0.0160
     19 N          61.3329   91.8926    1.6644 N.ar    1  UNL1       -0.2378
     20 C          60.6147   92.1811    0.5525 C.ar    1  UNL1        0.1998
     21 I          58.6584   91.5012    0.1302 I       1  UNL1        0.0018
     22 N          61.3377   92.9072   -0.3285 N.ar    1  UNL1       -0.1415
     23 N          62.5285   93.0884    0.2245 N.ar    1  UNL1       -0.2021
     24 C          62.5217   92.4742    1.4207 C.ar    1  UNL1        0.3525
     25 O          63.4965   92.4638    2.2205 O.2     1  UNL1       -0.2444
     26 C          63.6252   93.8471   -0.3865 C.3     1  UNL1        0.1099
     27 C          64.9082   93.6459    0.4244 C.3     1  UNL1        0.0265
     28 C          63.8318   93.4168   -1.8506 C.3     1  UNL1        0.0245
     29 C          63.8596   91.8963   -2.0002 C.3     1  UNL1        0.0021
     30 O          57.8367   84.0530   12.8331 O.3     1  UNL1       -0.4727
     31 C          58.1542   84.4154   14.1783 C.3     1  UNL1        0.2374
     32 C          61.5869   83.7785   13.4914 C.3     1  UNL1        0.2296
     33 O          61.7254   84.9999   14.1932 O.3     1  UNL1       -0.3267
     34 C          60.4629   85.3136   14.6935 C.3     1  UNL1        0.1783
     35 C          59.6212   84.0866   14.4932 C.3     1  UNL1        0.1909
     36 O          60.2219   83.4101   13.4354 O.3     1  UNL1       -0.3255
     37 C          62.3998   82.6816   14.1884 C.ar    1  UNL1        0.0409
     38 C          61.8552   81.3832   14.3081 C.ar    1  UNL1        0.0022
     39 C          62.5763   80.3544   14.9160 C.ar    1  UNL1        0.0113
     40 C          63.8622   80.5906   15.3990 C.ar    1  UNL1        0.0585
     41 CL         64.7662   79.2939   16.1596 Cl      1  UNL1       -0.0822
     42 C          64.4351   81.8555   15.2621 C.ar    1  UNL1        0.0226
     43 C          63.7252   82.8985   14.6536 C.ar    1  UNL1        0.0591
     44 CL         64.5637   84.4389   14.4783 Cl      1  UNL1       -0.0824
     45 C          62.1171   83.9558   12.0533 C.3     1  UNL1        0.1679
     46 C          62.3152   82.4053   10.0521 C.ar    1  UNL1        0.1205
     47 N          61.6676   81.3514    9.5059 N.ar    1  UNL1       -0.2293
     48 C          60.6503   81.1048   10.3548 C.ar    1  UNL1        0.1188
     49 C          60.6802   82.0138   11.3864 C.ar    1  UNL1        0.0979
     50 N          61.7305   82.8306   11.1959 N.ar    1  UNL1       -0.3084
     51 C          63.0360   84.1394    8.3648 C.3     1  UNL1        0.0084
     52 C          63.4787   83.0968    9.3896 C.3     1  UNL1        0.0640
@<TRIPOS>BOND
     1    51    52    1
     2    52    46    1
     3    46    47   ar
     4    47    48   ar
     5    48    49   ar
     6    49    50   ar
     7    50    45    1
     8    32    45    1
     9    32    37    1
    10    37    38   ar
    11    38    39   ar
    12    39    40   ar
    13    40    41    1
    14    40    42   ar
    15    42    43   ar
    16    43    44    1
    17    32    33    1
    18    33    34    1
    19    34    35    1
    20    35    31    1
    21    31    30    1
    22    30     1    1
    23     1     2   ar
    24     2     3   ar
    25     3     4   ar
    26     4     7    1
    27     7     8    1
    28     8     9    1
    29     9    10    1
    30    10    13    1
    31    13    14   ar
    32    14    15   ar
    33    15    16   ar
    34    16    19    1
    35    19    20   ar
    36    20    21    1
    37    20    22   ar
    38    22    23   ar
    39    23    26    1
    40    26    27    1
    41    26    28    1
    42    28    29    1
    43    23    24   ar
    44    24    25    2
    45    16    17   ar
    46    17    18   ar
    47    10    11    1
    48    11    12    1
    49     4     5   ar
    50     5     6   ar
    51    35    36    1
    52    50    46   ar
    53    36    32    1
    54    43    37   ar
    55     6     1   ar
    56    12     7    1
    57    18    13   ar
    58    24    19   ar
