@<TRIPOS>MOLECULE
*****
 47 52 0 0 0
SMALL
GASTEIGER

@<TRIPOS>ATOM
      1 C         -71.5622  -56.0085  -21.5179 C.ar    1  UNL1        0.0823
      2 C         -72.4497  -55.4808  -22.4667 C.ar    1  UNL1        0.0204
      3 C         -72.1519  -55.5489  -23.8271 C.ar    1  UNL1        0.0357
      4 C         -70.9482  -56.1386  -24.2472 C.ar    1  UNL1        0.1332
      5 N         -70.0958  -56.6303  -23.3053 N.ar    1  UNL1       -0.2152
      6 C         -70.3570  -56.5811  -21.9711 C.ar    1  UNL1        0.1403
      7 N         -69.4073  -57.1431  -21.0608 N.pl3   1  UNL1       -0.3416
      8 H         -68.5141  -57.5437  -21.4245 H       1  UNL1        0.1438
      9 H         -69.5888  -57.2056  -20.0359 H       1  UNL1        0.1438
     10 N         -70.6065  -56.2379  -25.6497 N.pl3   1  UNL1       -0.2932
     11 C         -69.6257  -57.2340  -26.1147 C.3     1  UNL1        0.0923
     12 C         -69.1426  -56.9368  -27.5436 C.3     1  UNL1        0.0252
     13 C         -68.8557  -55.4323  -27.7485 C.3     1  UNL1        0.0472
     14 C         -70.0707  -54.5403  -27.3548 C.3     1  UNL1        0.0252
     15 C         -71.1850  -55.3086  -26.6317 C.3     1  UNL1        0.0923
     16 C         -67.5789  -55.0079  -26.9996 C.3     1  UNL1        0.2054
     17 O         -67.9288  -54.3635  -25.7762 O.3     1  UNL1       -0.4755
     18 C         -67.5106  -54.7892  -24.5069 C.ar    1  UNL1        0.1388
     19 C         -66.6979  -55.9227  -24.3222 C.ar    1  UNL1        0.0369
     20 C         -66.3197  -56.3122  -23.0363 C.ar    1  UNL1        0.0033
     21 C         -66.7400  -55.5766  -21.9263 C.ar    1  UNL1        0.0066
     22 C         -67.5407  -54.4327  -22.0905 C.ar    1  UNL1        0.0785
     23 C         -67.9271  -54.0539  -23.3898 C.ar    1  UNL1        0.0433
     24 C         -67.9825  -53.6617  -20.9026 C.2     1  UNL1        0.3381
     25 O         -67.6847  -54.0682  -19.7479 O.2     1  UNL1       -0.2451
     26 O         -68.7118  -52.4793  -21.0234 O.3     1  UNL1       -0.4771
     27 H         -68.8956  -52.0403  -21.9161 H       1  UNL1        0.2954
     28 C         -71.5163  -54.7327  -19.3330 C.2     1  UNL1        0.2840
     29 O         -70.9543  -53.7430  -19.8744 O.2     1  UNL1       -0.2665
     30 N         -71.8443  -55.8954  -20.1127 N.am    1  UNL1       -0.2757
     31 H         -72.2713  -56.7200  -19.6384 H       1  UNL1        0.1553
     32 C         -73.4960  -52.6987  -17.7764 C.3     1  UNL1        0.0345
     33 C         -72.6663  -53.8125  -17.2142 C.ar    1  UNL1        0.0202
     34 C         -71.7941  -54.6769  -17.8873 C.ar    1  UNL1        0.1946
     35 O         -71.1965  -55.4781  -17.0229 O.2     1  UNL1       -0.4492
     36 C         -71.6540  -55.1947  -15.8278 C.ar    1  UNL1        0.1452
     37 C         -71.3058  -55.7973  -14.6239 C.ar    1  UNL1        0.0375
     38 C         -71.9246  -55.3325  -13.4502 C.ar    1  UNL1        0.0031
     39 C         -72.8763  -54.2776  -13.4965 C.ar    1  UNL1        0.0002
     40 C         -73.2004  -53.6906  -14.7432 C.ar    1  UNL1        0.0028
     41 C         -72.5683  -54.1786  -15.8869 C.ar    1  UNL1        0.0337
     42 C         -73.5236  -53.7947  -12.2504 C.ar    1  UNL1        0.0000
     43 C         -74.7413  -54.3510  -11.8143 C.ar    1  UNL1        0.0000
     44 C         -75.3491  -53.8934  -10.6411 C.ar    1  UNL1        0.0000
     45 C         -74.7504  -52.8789   -9.8910 C.ar    1  UNL1        0.0000
     46 C         -73.5424  -52.3192  -10.3127 C.ar    1  UNL1        0.0000
     47 C         -72.9305  -52.7721  -11.4856 C.ar    1  UNL1        0.0000
@<TRIPOS>BOND
     1    32    33    1
     2    33    34   ar
     3    34    28    1
     4    28    29    2
     5    28    30   am
     6    30     1    1
     7     1     2   ar
     8     2     3   ar
     9     3     4   ar
    10     4    10    1
    11    10    11    1
    12    11    12    1
    13    12    13    1
    14    13    16    1
    15    16    17    1
    16    17    18    1
    17    18    19   ar
    18    19    20   ar
    19    20    21   ar
    20    21    22   ar
    21    22    24    1
    22    24    25    2
    23    24    26    1
    24    22    23   ar
    25    13    14    1
    26    14    15    1
    27     4     5   ar
    28     5     6   ar
    29     6     7    1
    30    34    35   ar
    31    35    36   ar
    32    36    37   ar
    33    37    38   ar
    34    38    39   ar
    35    39    42    1
    36    42    43   ar
    37    43    44   ar
    38    44    45   ar
    39    45    46   ar
    40    46    47   ar
    41    39    40   ar
    42    40    41   ar
    43    41    33   ar
    44     6     1   ar
    45    41    36   ar
    46    15    10    1
    47    47    42   ar
    48    23    18   ar
    49    30    31    1
    50    26    27    1
    51     7     8    1
    52     7     9    1
@<TRIPOS>MOLECULE
*****
 47 52 0 0 0
SMALL
GASTEIGER

@<TRIPOS>ATOM
      1 C         -73.2027  -56.3013  -21.9113 C.ar    1  UNL1        0.0823
      2 C         -74.4943  -56.1377  -22.4325 C.ar    1  UNL1        0.0204
      3 C         -74.7114  -56.1826  -23.8090 C.ar    1  UNL1        0.0357
      4 C         -73.6261  -56.3800  -24.6786 C.ar    1  UNL1        0.1332
      5 N         -72.3791  -56.5211  -24.1486 N.ar    1  UNL1       -0.2152
      6 C         -72.1336  -56.4838  -22.8110 C.ar    1  UNL1        0.1403
      7 N         -70.7910  -56.6621  -22.3506 N.pl3   1  UNL1       -0.3416
      8 H         -70.0164  -56.7764  -23.0416 H       1  UNL1        0.1438
      9 H         -70.5539  -56.7223  -21.3369 H       1  UNL1        0.1438
     10 N         -73.8103  -56.4427  -26.1124 N.pl3   1  UNL1       -0.2932
     11 C         -72.8954  -57.2343  -26.9529 C.3     1  UNL1        0.0923
     12 C         -73.0376  -56.8812  -28.4423 C.3     1  UNL1        0.0252
     13 C         -73.1436  -55.3551  -28.6602 C.3     1  UNL1        0.0472
     14 C         -74.2776  -54.7138  -27.8061 C.3     1  UNL1        0.0252
     15 C         -74.8772  -55.6711  -26.7674 C.3     1  UNL1        0.0923
     16 C         -71.7895  -54.6669  -28.4068 C.3     1  UNL1        0.2054
     17 O         -71.5837  -54.5089  -27.0043 O.3     1  UNL1       -0.4755
     18 C         -70.3953  -54.8352  -26.3346 C.ar    1  UNL1        0.1388
     19 C         -69.4435  -55.7187  -26.8760 C.ar    1  UNL1        0.0369
     20 C         -68.2822  -56.0209  -26.1630 C.ar    1  UNL1        0.0033
     21 C         -68.0548  -55.4444  -24.9118 C.ar    1  UNL1        0.0066
     22 C         -68.9868  -54.5481  -24.3596 C.ar    1  UNL1        0.0785
     23 C         -70.1606  -54.2581  -25.0800 C.ar    1  UNL1        0.0433
     24 C         -68.7341  -53.9447  -23.0282 C.2     1  UNL1        0.3381
     25 O         -67.8343  -53.0725  -22.8981 O.2     1  UNL1       -0.2451
     26 O         -69.4790  -54.3037  -21.9053 O.3     1  UNL1       -0.4771
     27 H         -70.2820  -54.9168  -21.9563 H       1  UNL1        0.2954
     28 C         -72.2202  -55.1396  -19.8893 C.2     1  UNL1        0.2840
     29 O         -71.7292  -54.2234  -20.6021 O.2     1  UNL1       -0.2665
     30 N         -72.9697  -56.2063  -20.4959 N.am    1  UNL1       -0.2757
     31 H         -73.3326  -56.9767  -19.8943 H       1  UNL1        0.1553
     32 C         -73.4348  -53.0527  -17.7331 C.3     1  UNL1        0.0345
     33 C         -72.5194  -54.2155  -17.4987 C.ar    1  UNL1        0.0202
     34 C         -71.9782  -55.1035  -18.4365 C.ar    1  UNL1        0.1946
     35 O         -71.1601  -55.9503  -17.8366 O.2     1  UNL1       -0.4492
     36 C         -71.1617  -55.6731  -16.5556 C.ar    1  UNL1        0.1452
     37 C         -70.4500  -56.3178  -15.5498 C.ar    1  UNL1        0.0375
     38 C         -70.6009  -55.8516  -14.2320 C.ar    1  UNL1        0.0031
     39 C         -71.4553  -54.7535  -13.9406 C.ar    1  UNL1        0.0002
     40 C         -72.1601  -54.1247  -14.9949 C.ar    1  UNL1        0.0028
     41 C         -71.9875  -54.6153  -16.2893 C.ar    1  UNL1        0.0337
     42 C         -71.6071  -54.2697  -12.5449 C.ar    1  UNL1        0.0000
     43 C         -72.4733  -54.9260  -11.6498 C.ar    1  UNL1        0.0000
     44 C         -72.6150  -54.4673  -10.3365 C.ar    1  UNL1        0.0000
     45 C         -71.8955  -53.3521   -9.9020 C.ar    1  UNL1        0.0000
     46 C         -71.0328  -52.6925  -10.7800 C.ar    1  UNL1        0.0000
     47 C         -70.8878  -53.1461  -12.0947 C.ar    1  UNL1        0.0000
@<TRIPOS>BOND
     1    32    33    1
     2    33    34   ar
     3    34    28    1
     4    28    29    2
     5    28    30   am
     6    30     1    1
     7     1     2   ar
     8     2     3   ar
     9     3     4   ar
    10     4    10    1
    11    10    11    1
    12    11    12    1
    13    12    13    1
    14    13    16    1
    15    16    17    1
    16    17    18    1
    17    18    19   ar
    18    19    20   ar
    19    20    21   ar
    20    21    22   ar
    21    22    24    1
    22    24    25    2
    23    24    26    1
    24    22    23   ar
    25    13    14    1
    26    14    15    1
    27     4     5   ar
    28     5     6   ar
    29     6     7    1
    30    34    35   ar
    31    35    36   ar
    32    36    37   ar
    33    37    38   ar
    34    38    39   ar
    35    39    42    1
    36    42    43   ar
    37    43    44   ar
    38    44    45   ar
    39    45    46   ar
    40    46    47   ar
    41    39    40   ar
    42    40    41   ar
    43    41    33   ar
    44     6     1   ar
    45    41    36   ar
    46    15    10    1
    47    47    42   ar
    48    23    18   ar
    49    30    31    1
    50    26    27    1
    51     7     8    1
    52     7     9    1
@<TRIPOS>MOLECULE
*****
 47 52 0 0 0
SMALL
GASTEIGER

@<TRIPOS>ATOM
      1 C         -60.9770  -45.9577  -22.0278 C.ar    1  UNL1        0.0823
      2 C         -60.9905  -46.9075  -20.9962 C.ar    1  UNL1        0.0204
      3 C         -60.8351  -48.2633  -21.2823 C.ar    1  UNL1        0.0357
      4 C         -60.6772  -48.6796  -22.6145 C.ar    1  UNL1        0.1332
      5 N         -60.6828  -47.7392  -23.6000 N.ar    1  UNL1       -0.2152
      6 C         -60.8306  -46.4092  -23.3546 C.ar    1  UNL1        0.1403
      7 N         -60.8030  -45.4971  -24.4563 N.pl3   1  UNL1       -0.3416
      8 H         -60.7121  -45.8624  -25.4303 H       1  UNL1        0.1438
      9 H         -60.8316  -44.4632  -24.3232 H       1  UNL1        0.1438
     10 N         -60.5032  -50.0757  -22.9525 N.pl3   1  UNL1       -0.2932
     11 C         -60.2582  -50.4858  -24.3461 C.3     1  UNL1        0.0923
     12 C         -60.4642  -51.9966  -24.5421 C.3     1  UNL1        0.0252
     13 C         -61.7290  -52.5005  -23.8112 C.3     1  UNL1        0.0472
     14 C         -61.7347  -52.1099  -22.3031 C.3     1  UNL1        0.0252
     15 C         -60.6261  -51.1191  -21.9234 C.3     1  UNL1        0.0923
     16 C         -63.0061  -52.0174  -24.5232 C.3     1  UNL1        0.2054
     17 O         -63.2682  -50.6592  -24.1750 O.3     1  UNL1       -0.4755
     18 C         -63.4451  -49.6219  -25.1024 C.ar    1  UNL1        0.1388
     19 C         -63.4126  -48.2653  -24.7308 C.ar    1  UNL1        0.0369
     20 C         -63.6075  -47.2707  -25.6906 C.ar    1  UNL1        0.0033
     21 C         -63.8296  -47.6151  -27.0255 C.ar    1  UNL1        0.0066
     22 C         -63.8515  -48.9645  -27.4197 C.ar    1  UNL1        0.0785
     23 C         -63.6659  -49.9612  -26.4434 C.ar    1  UNL1        0.0433
     24 C         -64.0911  -49.3166  -28.8407 C.2     1  UNL1        0.3381
     25 O         -64.2065  -48.4026  -29.7000 O.2     1  UNL1       -0.2451
     26 O         -64.1782  -50.6423  -29.2647 O.3     1  UNL1       -0.4771
     27 H         -63.9920  -51.4248  -28.6512 H       1  UNL1        0.2954
     28 C         -62.4273  -44.0405  -21.2375 C.2     1  UNL1        0.2840
     29 O         -63.4023  -44.8105  -21.0252 O.2     1  UNL1       -0.2665
     30 N         -61.1863  -44.5648  -21.7399 N.am    1  UNL1       -0.2757
     31 H         -60.4051  -43.9064  -21.9482 H       1  UNL1        0.1553
     32 C         -64.6877  -42.6114  -19.4133 C.3     1  UNL1        0.0345
     33 C         -63.5688  -41.9799  -20.1841 C.ar    1  UNL1        0.0202
     34 C         -62.6054  -42.5992  -20.9900 C.ar    1  UNL1        0.1946
     35 O         -61.8339  -41.6862  -21.5536 O.2     1  UNL1       -0.4492
     36 C         -62.2314  -40.5092  -21.1359 C.ar    1  UNL1        0.1452
     37 C         -61.6978  -39.2690  -21.4689 C.ar    1  UNL1        0.0375
     38 C         -62.2842  -38.1244  -20.9008 C.ar    1  UNL1        0.0031
     39 C         -63.3897  -38.2355  -20.0141 C.ar    1  UNL1        0.0002
     40 C         -63.9031  -39.5176  -19.7035 C.ar    1  UNL1        0.0028
     41 C         -63.2950  -40.6307  -20.2840 C.ar    1  UNL1        0.0337
     42 C         -64.0012  -37.0197  -19.4200 C.ar    1  UNL1        0.0000
     43 C         -63.2351  -36.1515  -18.6188 C.ar    1  UNL1        0.0000
     44 C         -63.8139  -35.0080  -18.0597 C.ar    1  UNL1        0.0000
     45 C         -65.1598  -34.7178  -18.2935 C.ar    1  UNL1        0.0000
     46 C         -65.9303  -35.5707  -19.0866 C.ar    1  UNL1        0.0000
     47 C         -65.3571  -36.7162  -19.6475 C.ar    1  UNL1        0.0000
@<TRIPOS>BOND
     1    32    33    1
     2    33    34   ar
     3    34    28    1
     4    28    29    2
     5    28    30   am
     6    30     1    1
     7     1     2   ar
     8     2     3   ar
     9     3     4   ar
    10     4    10    1
    11    10    11    1
    12    11    12    1
    13    12    13    1
    14    13    16    1
    15    16    17    1
    16    17    18    1
    17    18    19   ar
    18    19    20   ar
    19    20    21   ar
    20    21    22   ar
    21    22    24    1
    22    24    25    2
    23    24    26    1
    24    22    23   ar
    25    13    14    1
    26    14    15    1
    27     4     5   ar
    28     5     6   ar
    29     6     7    1
    30    34    35   ar
    31    35    36   ar
    32    36    37   ar
    33    37    38   ar
    34    38    39   ar
    35    39    42    1
    36    42    43   ar
    37    43    44   ar
    38    44    45   ar
    39    45    46   ar
    40    46    47   ar
    41    39    40   ar
    42    40    41   ar
    43    41    33   ar
    44     6     1   ar
    45    41    36   ar
    46    15    10    1
    47    47    42   ar
    48    23    18   ar
    49    30    31    1
    50    26    27    1
    51     7     8    1
    52     7     9    1
@<TRIPOS>MOLECULE
*****
 47 52 0 0 0
SMALL
GASTEIGER

@<TRIPOS>ATOM
      1 C         -60.8427  -46.6542  -21.7964 C.ar    1  UNL1        0.0823
      2 C         -60.9203  -47.6903  -20.8546 C.ar    1  UNL1        0.0204
      3 C         -60.7354  -49.0157  -21.2458 C.ar    1  UNL1        0.0357
      4 C         -60.4828  -49.3142  -22.5949 C.ar    1  UNL1        0.1332
      5 N         -60.4273  -48.2915  -23.4930 N.ar    1  UNL1       -0.2152
      6 C         -60.6016  -46.9882  -23.1440 C.ar    1  UNL1        0.1403
      7 N         -60.5047  -45.9834  -24.1577 N.pl3   1  UNL1       -0.3416
      8 H         -60.3440  -46.2624  -25.1511 H       1  UNL1        0.1438
      9 H         -60.5502  -44.9652  -23.9376 H       1  UNL1        0.1438
     10 N         -60.2754  -50.6753  -23.0400 N.pl3   1  UNL1       -0.2932
     11 C         -60.0203  -50.9699  -24.4607 C.3     1  UNL1        0.0923
     12 C         -60.1902  -52.4654  -24.7739 C.3     1  UNL1        0.0252
     13 C         -61.4429  -53.0544  -24.0871 C.3     1  UNL1        0.0472
     14 C         -61.4583  -52.7825  -22.5532 C.3     1  UNL1        0.0252
     15 C         -60.3738  -51.7981  -22.0953 C.3     1  UNL1        0.0923
     16 C         -62.7309  -52.5479  -24.7621 C.3     1  UNL1        0.2054
     17 O         -63.1716  -51.3509  -24.1237 O.3     1  UNL1       -0.4755
     18 C         -63.4009  -50.1361  -24.7861 C.ar    1  UNL1        0.1388
     19 C         -63.4786  -48.9084  -24.1031 C.ar    1  UNL1        0.0369
     20 C         -63.7217  -47.7283  -24.8078 C.ar    1  UNL1        0.0033
     21 C         -63.8833  -47.7576  -26.1945 C.ar    1  UNL1        0.0066
     22 C         -63.7951  -48.9721  -26.8972 C.ar    1  UNL1        0.0785
     23 C         -63.5614  -50.1588  -26.1774 C.ar    1  UNL1        0.0433
     24 C         -63.9712  -48.9895  -28.3701 C.2     1  UNL1        0.3381
     25 O         -63.9027  -50.0814  -28.9947 O.2     1  UNL1       -0.2451
     26 O         -64.2287  -47.8252  -29.0932 O.3     1  UNL1       -0.4771
     27 H         -64.4000  -46.9331  -28.6482 H       1  UNL1        0.2954
     28 C         -62.3980  -44.7316  -21.2595 C.2     1  UNL1        0.2840
     29 O         -63.4172  -45.4401  -21.4781 O.2     1  UNL1       -0.2665
     30 N         -61.0817  -45.2920  -21.4039 N.am    1  UNL1       -0.2757
     31 H         -60.2510  -44.6788  -21.2589 H       1  UNL1        0.1553
     32 C         -61.1871  -42.1149  -22.7313 C.3     1  UNL1        0.0345
     33 C         -62.0878  -42.1848  -21.5359 C.ar    1  UNL1        0.0202
     34 C         -62.5925  -43.3192  -20.8882 C.ar    1  UNL1        0.1946
     35 O         -63.2946  -42.9589  -19.8283 O.2     1  UNL1       -0.4492
     36 C         -63.2918  -41.6495  -19.7692 C.ar    1  UNL1        0.1452
     37 C         -63.9133  -40.8444  -18.8210 C.ar    1  UNL1        0.0375
     38 C         -63.7793  -39.4506  -18.9491 C.ar    1  UNL1        0.0031
     39 C         -63.0295  -38.8854  -20.0163 C.ar    1  UNL1        0.0002
     40 C         -62.4112  -39.7418  -20.9588 C.ar    1  UNL1        0.0028
     41 C         -62.5672  -41.1190  -20.8013 C.ar    1  UNL1        0.0337
     42 C         -62.8947  -37.4120  -20.1417 C.ar    1  UNL1        0.0000
     43 C         -61.9404  -36.8519  -21.0124 C.ar    1  UNL1        0.0000
     44 C         -61.8150  -35.4640  -21.1275 C.ar    1  UNL1        0.0000
     45 C         -62.6384  -34.6211  -20.3778 C.ar    1  UNL1        0.0000
     46 C         -63.5890  -35.1643  -19.5109 C.ar    1  UNL1        0.0000
     47 C         -63.7183  -36.5514  -19.3910 C.ar    1  UNL1        0.0000
@<TRIPOS>BOND
     1    32    33    1
     2    33    34   ar
     3    34    28    1
     4    28    29    2
     5    28    30   am
     6    30     1    1
     7     1     2   ar
     8     2     3   ar
     9     3     4   ar
    10     4    10    1
    11    10    11    1
    12    11    12    1
    13    12    13    1
    14    13    16    1
    15    16    17    1
    16    17    18    1
    17    18    19   ar
    18    19    20   ar
    19    20    21   ar
    20    21    22   ar
    21    22    24    1
    22    24    25    2
    23    24    26    1
    24    22    23   ar
    25    13    14    1
    26    14    15    1
    27     4     5   ar
    28     5     6   ar
    29     6     7    1
    30    34    35   ar
    31    35    36   ar
    32    36    37   ar
    33    37    38   ar
    34    38    39   ar
    35    39    42    1
    36    42    43   ar
    37    43    44   ar
    38    44    45   ar
    39    45    46   ar
    40    46    47   ar
    41    39    40   ar
    42    40    41   ar
    43    41    33   ar
    44     6     1   ar
    45    41    36   ar
    46    15    10    1
    47    47    42   ar
    48    23    18   ar
    49    30    31    1
    50    26    27    1
    51     7     8    1
    52     7     9    1
@<TRIPOS>MOLECULE
*****
 47 52 0 0 0
SMALL
GASTEIGER

@<TRIPOS>ATOM
      1 C         -70.4367  -55.8210  -21.3277 C.ar    1  UNL1        0.0823
      2 C         -70.9345  -56.9536  -21.9881 C.ar    1  UNL1        0.0204
      3 C         -70.7707  -57.0973  -23.3652 C.ar    1  UNL1        0.0357
      4 C         -70.1138  -56.0937  -24.0962 C.ar    1  UNL1        0.1332
      5 N         -69.6527  -54.9961  -23.4341 N.ar    1  UNL1       -0.2152
      6 C         -69.7948  -54.8261  -22.0918 C.ar    1  UNL1        0.1403
      7 N         -69.2582  -53.6470  -21.4850 N.pl3   1  UNL1       -0.3416
      8 H         -68.8045  -52.9181  -22.0793 H       1  UNL1        0.1438
      9 H         -69.2667  -53.4997  -20.4527 H       1  UNL1        0.1438
     10 N         -69.9146  -56.2093  -25.5247 N.pl3   1  UNL1       -0.2932
     11 C         -69.0080  -57.2313  -26.0759 C.3     1  UNL1        0.0923
     12 C         -68.6616  -56.9542  -27.5479 C.3     1  UNL1        0.0252
     13 C         -68.3614  -55.4582  -27.7924 C.3     1  UNL1        0.0472
     14 C         -69.5104  -54.5351  -27.2882 C.3     1  UNL1        0.0252
     15 C         -70.5655  -55.2722  -26.4525 C.3     1  UNL1        0.0923
     16 C         -67.0073  -55.0601  -27.1766 C.3     1  UNL1        0.2054
     17 O         -67.2216  -54.3493  -25.9586 O.3     1  UNL1       -0.4755
     18 C         -66.4635  -54.5268  -24.7920 C.ar    1  UNL1        0.1388
     19 C         -66.7285  -55.5565  -23.8705 C.ar    1  UNL1        0.0369
     20 C         -65.9522  -55.6822  -22.7174 C.ar    1  UNL1        0.0033
     21 C         -64.9047  -54.7916  -22.4740 C.ar    1  UNL1        0.0066
     22 C         -64.6146  -53.7646  -23.3893 C.ar    1  UNL1        0.0785
     23 C         -65.4099  -53.6379  -24.5436 C.ar    1  UNL1        0.0433
     24 C         -63.5005  -52.8236  -23.1173 C.2     1  UNL1        0.3381
     25 O         -63.4595  -51.7148  -23.7139 O.2     1  UNL1       -0.2451
     26 O         -62.4933  -53.1227  -22.2004 O.3     1  UNL1       -0.4771
     27 H         -62.5182  -53.9444  -21.6110 H       1  UNL1        0.2954
     28 C         -71.8564  -55.1024  -19.3601 C.2     1  UNL1        0.2840
     29 O         -72.8004  -54.7489  -20.1167 O.2     1  UNL1       -0.2665
     30 N         -70.6478  -55.6477  -19.9163 N.am    1  UNL1       -0.2757
     31 H         -69.8624  -55.8958  -19.2769 H       1  UNL1        0.1553
     32 C         -73.4357  -52.7223  -17.8366 C.3     1  UNL1        0.0345
     33 C         -72.7139  -53.8953  -17.2467 C.ar    1  UNL1        0.0202
     34 C         -72.0130  -54.9117  -17.9077 C.ar    1  UNL1        0.1946
     35 O         -71.4577  -55.7241  -17.0258 O.2     1  UNL1       -0.4492
     36 C         -71.7823  -55.3017  -15.8283 C.ar    1  UNL1        0.1452
     37 C         -71.4222  -55.8615  -14.6074 C.ar    1  UNL1        0.0375
     38 C         -71.8848  -55.2397  -13.4343 C.ar    1  UNL1        0.0031
     39 C         -72.6952  -54.0735  -13.4984 C.ar    1  UNL1        0.0002
     40 C         -73.0367  -53.5353  -14.7623 C.ar    1  UNL1        0.0028
     41 C         -72.5615  -54.1797  -15.9046 C.ar    1  UNL1        0.0337
     42 C         -73.1782  -53.4252  -12.2529 C.ar    1  UNL1        0.0000
     43 C         -74.5358  -53.0828  -12.1040 C.ar    1  UNL1        0.0000
     44 C         -74.9874  -52.4713  -10.9304 C.ar    1  UNL1        0.0000
     45 C         -74.0925  -52.1957   -9.8944 C.ar    1  UNL1        0.0000
     46 C         -72.7435  -52.5306  -10.0296 C.ar    1  UNL1        0.0000
     47 C         -72.2860  -53.1414  -11.2013 C.ar    1  UNL1        0.0000
@<TRIPOS>BOND
     1    32    33    1
     2    33    34   ar
     3    34    28    1
     4    28    29    2
     5    28    30   am
     6    30     1    1
     7     1     2   ar
     8     2     3   ar
     9     3     4   ar
    10     4    10    1
    11    10    11    1
    12    11    12    1
    13    12    13    1
    14    13    16    1
    15    16    17    1
    16    17    18    1
    17    18    19   ar
    18    19    20   ar
    19    20    21   ar
    20    21    22   ar
    21    22    24    1
    22    24    25    2
    23    24    26    1
    24    22    23   ar
    25    13    14    1
    26    14    15    1
    27     4     5   ar
    28     5     6   ar
    29     6     7    1
    30    34    35   ar
    31    35    36   ar
    32    36    37   ar
    33    37    38   ar
    34    38    39   ar
    35    39    42    1
    36    42    43   ar
    37    43    44   ar
    38    44    45   ar
    39    45    46   ar
    40    46    47   ar
    41    39    40   ar
    42    40    41   ar
    43    41    33   ar
    44     6     1   ar
    45    41    36   ar
    46    15    10    1
    47    47    42   ar
    48    23    18   ar
    49    30    31    1
    50    26    27    1
    51     7     8    1
    52     7     9    1
@<TRIPOS>MOLECULE
*****
 47 52 0 0 0
SMALL
GASTEIGER

@<TRIPOS>ATOM
      1 C         -64.7042  -40.7562  -24.0092 C.ar    1  UNL1        0.0823
      2 C         -66.0462  -40.5874  -23.6390 C.ar    1  UNL1        0.0204
      3 C         -66.3914  -40.3967  -22.3016 C.ar    1  UNL1        0.0357
      4 C         -65.3881  -40.3871  -21.3186 C.ar    1  UNL1        0.1332
      5 N         -64.0935  -40.5684  -21.7019 N.ar    1  UNL1       -0.2152
      6 C         -63.7232  -40.7553  -22.9975 C.ar    1  UNL1        0.1403
      7 N         -62.3348  -40.9169  -23.3020 N.pl3   1  UNL1       -0.3416
      8 H         -61.6324  -40.9308  -22.5294 H       1  UNL1        0.1438
      9 H         -61.9845  -40.9841  -24.2818 H       1  UNL1        0.1438
     10 N         -65.7034  -40.1825  -19.9214 N.pl3   1  UNL1       -0.2932
     11 C         -64.7980  -39.4106  -19.0527 C.3     1  UNL1        0.0923
     12 C         -65.1199  -39.6174  -17.5637 C.3     1  UNL1        0.0252
     13 C         -65.4030  -41.1019  -17.2411 C.3     1  UNL1        0.0472
     14 C         -66.5085  -41.7052  -18.1580 C.3     1  UNL1        0.0252
     15 C         -66.9026  -40.7897  -19.3249 C.3     1  UNL1        0.0923
     16 C         -64.1087  -41.9344  -17.2966 C.3     1  UNL1        0.2054
     17 O         -64.0061  -42.5828  -18.5629 O.3     1  UNL1       -0.4755
     18 C         -62.8730  -42.5376  -19.3884 C.ar    1  UNL1        0.1388
     19 C         -61.8632  -41.5708  -19.2298 C.ar    1  UNL1        0.0369
     20 C         -60.7613  -41.5610  -20.0864 C.ar    1  UNL1        0.0033
     21 C         -60.6509  -42.5134  -21.1015 C.ar    1  UNL1        0.0066
     22 C         -61.6420  -43.4967  -21.2677 C.ar    1  UNL1        0.0785
     23 C         -62.7555  -43.4920  -20.4069 C.ar    1  UNL1        0.0433
     24 C         -61.5137  -44.5012  -22.3518 C.2     1  UNL1        0.3381
     25 O         -61.7290  -45.7177  -22.1050 O.2     1  UNL1       -0.2451
     26 O         -61.1737  -44.1372  -23.6543 O.3     1  UNL1       -0.4771
     27 H         -61.0894  -43.1726  -23.9470 H       1  UNL1        0.2954
     28 C         -63.5694  -42.1320  -25.8044 C.2     1  UNL1        0.2840
     29 O         -63.1569  -42.9712  -24.9593 O.2     1  UNL1       -0.2665
     30 N         -64.3511  -41.0019  -25.3809 N.am    1  UNL1       -0.2757
     31 H         -64.6480  -40.2968  -26.0894 H       1  UNL1        0.1553
     32 C         -60.7928  -43.3023  -26.9878 C.3     1  UNL1        0.0345
     33 C         -62.0115  -42.8493  -27.7324 C.ar    1  UNL1        0.0202
     34 C         -63.2032  -42.3231  -27.2186 C.ar    1  UNL1        0.1946
     35 O         -64.0085  -41.9793  -28.2083 O.2     1  UNL1       -0.4492
     36 C         -63.4112  -42.2777  -29.3361 C.ar    1  UNL1        0.1452
     37 C         -63.8982  -42.0942  -30.6255 C.ar    1  UNL1        0.0375
     38 C         -63.0831  -42.4886  -31.7011 C.ar    1  UNL1        0.0031
     39 C         -61.8000  -43.0564  -31.4733 C.ar    1  UNL1        0.0002
     40 C         -61.3420  -43.2237  -30.1444 C.ar    1  UNL1        0.0028
     41 C         -62.1783  -42.8229  -29.1024 C.ar    1  UNL1        0.0337
     42 C         -60.9476  -43.4693  -32.6169 C.ar    1  UNL1        0.0000
     43 C         -59.7200  -44.1223  -32.3957 C.ar    1  UNL1        0.0000
     44 C         -58.9189  -44.5089  -33.4746 C.ar    1  UNL1        0.0000
     45 C         -59.3325  -44.2498  -34.7831 C.ar    1  UNL1        0.0000
     46 C         -60.5481  -43.6031  -35.0158 C.ar    1  UNL1        0.0000
     47 C         -61.3529  -43.2134  -33.9408 C.ar    1  UNL1        0.0000
@<TRIPOS>BOND
     1    32    33    1
     2    33    34   ar
     3    34    28    1
     4    28    29    2
     5    28    30   am
     6    30     1    1
     7     1     2   ar
     8     2     3   ar
     9     3     4   ar
    10     4    10    1
    11    10    11    1
    12    11    12    1
    13    12    13    1
    14    13    16    1
    15    16    17    1
    16    17    18    1
    17    18    19   ar
    18    19    20   ar
    19    20    21   ar
    20    21    22   ar
    21    22    24    1
    22    24    25    2
    23    24    26    1
    24    22    23   ar
    25    13    14    1
    26    14    15    1
    27     4     5   ar
    28     5     6   ar
    29     6     7    1
    30    34    35   ar
    31    35    36   ar
    32    36    37   ar
    33    37    38   ar
    34    38    39   ar
    35    39    42    1
    36    42    43   ar
    37    43    44   ar
    38    44    45   ar
    39    45    46   ar
    40    46    47   ar
    41    39    40   ar
    42    40    41   ar
    43    41    33   ar
    44     6     1   ar
    45    41    36   ar
    46    15    10    1
    47    47    42   ar
    48    23    18   ar
    49    30    31    1
    50    26    27    1
    51     7     8    1
    52     7     9    1
@<TRIPOS>MOLECULE
*****
 47 52 0 0 0
SMALL
GASTEIGER

@<TRIPOS>ATOM
      1 C         -64.1119  -51.8341  -24.2812 C.ar    1  UNL1        0.0823
      2 C         -65.4771  -52.0959  -24.4663 C.ar    1  UNL1        0.0204
      3 C         -66.1134  -53.0883  -23.7218 C.ar    1  UNL1        0.0357
      4 C         -65.3773  -53.8386  -22.7899 C.ar    1  UNL1        0.1332
      5 N         -64.0492  -53.5756  -22.6394 N.ar    1  UNL1       -0.2152
      6 C         -63.3990  -52.6138  -23.3487 C.ar    1  UNL1        0.1403
      7 N         -62.0059  -52.3993  -23.1043 N.pl3   1  UNL1       -0.3416
      8 H         -61.4997  -53.0053  -22.4209 H       1  UNL1        0.1438
      9 H         -61.4742  -51.6259  -23.5587 H       1  UNL1        0.1438
     10 N         -66.0021  -54.8703  -21.9906 N.pl3   1  UNL1       -0.2932
     11 C         -65.6103  -56.2818  -22.1472 C.3     1  UNL1        0.0923
     12 C         -66.6238  -57.2327  -21.4900 C.3     1  UNL1        0.0252
     13 C         -68.0801  -56.8092  -21.7861 C.3     1  UNL1        0.0472
     14 C         -68.3528  -55.3240  -21.4033 C.3     1  UNL1        0.0252
     15 C         -67.0820  -54.5403  -21.0484 C.3     1  UNL1        0.0923
     16 C         -68.4474  -57.0890  -23.2551 C.3     1  UNL1        0.2054
     17 O         -68.5985  -55.8570  -23.9577 O.3     1  UNL1       -0.4755
     18 C         -68.4498  -55.7107  -25.3448 C.ar    1  UNL1        0.1388
     19 C         -69.3974  -56.2041  -26.2603 C.ar    1  UNL1        0.0369
     20 C         -69.1961  -56.0440  -27.6322 C.ar    1  UNL1        0.0033
     21 C         -68.0572  -55.3885  -28.1043 C.ar    1  UNL1        0.0066
     22 C         -67.1054  -54.8757  -27.2055 C.ar    1  UNL1        0.0785
     23 C         -67.3105  -55.0519  -25.8242 C.ar    1  UNL1        0.0433
     24 C         -65.8986  -54.1836  -27.7205 C.2     1  UNL1        0.3381
     25 O         -64.7778  -54.4031  -27.1886 O.2     1  UNL1       -0.2451
     26 O         -65.9617  -53.2993  -28.7969 O.3     1  UNL1       -0.4771
     27 H         -66.8053  -53.1558  -29.3365 H       1  UNL1        0.2954
     28 C         -63.8006  -49.4526  -25.0778 C.2     1  UNL1        0.2840
     29 O         -64.7405  -49.0406  -24.3462 O.2     1  UNL1       -0.2665
     30 N         -63.4434  -50.8454  -25.0826 N.am    1  UNL1       -0.2757
     31 H         -62.6906  -51.1735  -25.7251 H       1  UNL1        0.1553
     32 C         -63.9180  -49.2444  -28.3062 C.3     1  UNL1        0.0345
     33 C         -63.1746  -48.3758  -27.3378 C.ar    1  UNL1        0.0202
     34 C         -63.1083  -48.4816  -25.9430 C.ar    1  UNL1        0.1946
     35 O         -62.2894  -47.5643  -25.4592 O.2     1  UNL1       -0.4492
     36 C         -61.8405  -46.8539  -26.4651 C.ar    1  UNL1        0.1452
     37 C         -60.9600  -45.7789  -26.4150 C.ar    1  UNL1        0.0375
     38 C         -60.6088  -45.1568  -27.6260 C.ar    1  UNL1        0.0031
     39 C         -61.1390  -45.6164  -28.8622 C.ar    1  UNL1        0.0002
     40 C         -62.0309  -46.7156  -28.8681 C.ar    1  UNL1        0.0028
     41 C         -62.3584  -47.3067  -27.6477 C.ar    1  UNL1        0.0337
     42 C         -60.7610  -44.9517  -30.1351 C.ar    1  UNL1        0.0000
     43 C         -61.6842  -44.1383  -30.8197 C.ar    1  UNL1        0.0000
     44 C         -61.3258  -43.5146  -32.0187 C.ar    1  UNL1        0.0000
     45 C         -60.0455  -43.6940  -32.5469 C.ar    1  UNL1        0.0000
     46 C         -59.1206  -44.4981  -31.8773 C.ar    1  UNL1        0.0000
     47 C         -59.4737  -45.1251  -30.6784 C.ar    1  UNL1        0.0000
@<TRIPOS>BOND
     1    32    33    1
     2    33    34   ar
     3    34    28    1
     4    28    29    2
     5    28    30   am
     6    30     1    1
     7     1     2   ar
     8     2     3   ar
     9     3     4   ar
    10     4    10    1
    11    10    11    1
    12    11    12    1
    13    12    13    1
    14    13    16    1
    15    16    17    1
    16    17    18    1
    17    18    19   ar
    18    19    20   ar
    19    20    21   ar
    20    21    22   ar
    21    22    24    1
    22    24    25    2
    23    24    26    1
    24    22    23   ar
    25    13    14    1
    26    14    15    1
    27     4     5   ar
    28     5     6   ar
    29     6     7    1
    30    34    35   ar
    31    35    36   ar
    32    36    37   ar
    33    37    38   ar
    34    38    39   ar
    35    39    42    1
    36    42    43   ar
    37    43    44   ar
    38    44    45   ar
    39    45    46   ar
    40    46    47   ar
    41    39    40   ar
    42    40    41   ar
    43    41    33   ar
    44     6     1   ar
    45    41    36   ar
    46    15    10    1
    47    47    42   ar
    48    23    18   ar
    49    30    31    1
    50    26    27    1
    51     7     8    1
    52     7     9    1
@<TRIPOS>MOLECULE
*****
 47 52 0 0 0
SMALL
GASTEIGER

@<TRIPOS>ATOM
      1 C         -64.6517  -40.7164  -23.8373 C.ar    1  UNL1        0.0823
      2 C         -65.9787  -40.5227  -23.4276 C.ar    1  UNL1        0.0204
      3 C         -66.2842  -40.3575  -22.0773 C.ar    1  UNL1        0.0357
      4 C         -65.2559  -40.3988  -21.1212 C.ar    1  UNL1        0.1332
      5 N         -63.9769  -40.6034  -21.5429 N.ar    1  UNL1       -0.2152
      6 C         -63.6452  -40.7665  -22.8522 C.ar    1  UNL1        0.1403
      7 N         -62.2699  -40.9559  -23.1972 N.pl3   1  UNL1       -0.3416
      8 H         -61.5484  -41.0076  -22.4441 H       1  UNL1        0.1438
      9 H         -61.9468  -41.0069  -24.1873 H       1  UNL1        0.1438
     10 N         -65.5296  -40.2219  -19.7114 N.pl3   1  UNL1       -0.2932
     11 C         -64.4582  -39.8208  -18.7833 C.3     1  UNL1        0.0923
     12 C         -64.8606  -40.0413  -17.3160 C.3     1  UNL1        0.0252
     13 C         -65.5727  -41.3981  -17.1164 C.3     1  UNL1        0.0472
     14 C         -66.7850  -41.5762  -18.0785 C.3     1  UNL1        0.0252
     15 C         -66.8673  -40.4960  -19.1654 C.3     1  UNL1        0.0923
     16 C         -64.5774  -42.5665  -17.2420 C.3     1  UNL1        0.2054
     17 O         -64.8931  -43.3476  -18.3929 O.3     1  UNL1       -0.4755
     18 C         -64.0151  -43.5759  -19.4626 C.ar    1  UNL1        0.1388
     19 C         -64.2841  -44.5210  -20.4696 C.ar    1  UNL1        0.0369
     20 C         -63.3709  -44.7197  -21.5065 C.ar    1  UNL1        0.0033
     21 C         -62.1886  -43.9784  -21.5543 C.ar    1  UNL1        0.0066
     22 C         -61.9078  -43.0191  -20.5655 C.ar    1  UNL1        0.0785
     23 C         -62.8285  -42.8335  -19.5173 C.ar    1  UNL1        0.0433
     24 C         -60.6468  -42.2402  -20.6269 C.2     1  UNL1        0.3381
     25 O         -60.0221  -42.1476  -21.7170 O.2     1  UNL1       -0.2451
     26 O         -60.1319  -41.5861  -19.5081 O.3     1  UNL1       -0.4771
     27 H         -60.6319  -41.5302  -18.6305 H       1  UNL1        0.2954
     28 C         -63.5918  -42.0695  -25.6945 C.2     1  UNL1        0.2840
     29 O         -63.1719  -42.9355  -24.8808 O.2     1  UNL1       -0.2665
     30 N         -64.3406  -40.9359  -25.2236 N.am    1  UNL1       -0.2757
     31 H         -64.6437  -40.2091  -25.9070 H       1  UNL1        0.1553
     32 C         -60.8886  -43.3018  -26.9804 C.3     1  UNL1        0.0345
     33 C         -62.1087  -42.7863  -27.6807 C.ar    1  UNL1        0.0202
     34 C         -63.2679  -42.2336  -27.1223 C.ar    1  UNL1        0.1946
     35 O         -64.0849  -41.8346  -28.0812 O.2     1  UNL1       -0.4492
     36 C         -63.5267  -42.1220  -29.2317 C.ar    1  UNL1        0.1452
     37 C         -64.0389  -41.8858  -30.5028 C.ar    1  UNL1        0.0375
     38 C         -63.2652  -42.2780  -31.6093 C.ar    1  UNL1        0.0031
     39 C         -61.9977  -42.8962  -31.4301 C.ar    1  UNL1        0.0002
     40 C         -61.5130  -43.1163  -30.1184 C.ar    1  UNL1        0.0028
     41 C         -62.3084  -42.7160  -29.0448 C.ar    1  UNL1        0.0337
     42 C         -61.1891  -43.3064  -32.6061 C.ar    1  UNL1        0.0000
     43 C         -59.8931  -43.8297  -32.4364 C.ar    1  UNL1        0.0000
     44 C         -59.1336  -44.2141  -33.5458 C.ar    1  UNL1        0.0000
     45 C         -59.6572  -44.0817  -34.8337 C.ar    1  UNL1        0.0000
     46 C         -60.9415  -43.5642  -35.0153 C.ar    1  UNL1        0.0000
     47 C         -61.7052  -43.1774  -33.9097 C.ar    1  UNL1        0.0000
@<TRIPOS>BOND
     1    32    33    1
     2    33    34   ar
     3    34    28    1
     4    28    29    2
     5    28    30   am
     6    30     1    1
     7     1     2   ar
     8     2     3   ar
     9     3     4   ar
    10     4    10    1
    11    10    11    1
    12    11    12    1
    13    12    13    1
    14    13    16    1
    15    16    17    1
    16    17    18    1
    17    18    19   ar
    18    19    20   ar
    19    20    21   ar
    20    21    22   ar
    21    22    24    1
    22    24    25    2
    23    24    26    1
    24    22    23   ar
    25    13    14    1
    26    14    15    1
    27     4     5   ar
    28     5     6   ar
    29     6     7    1
    30    34    35   ar
    31    35    36   ar
    32    36    37   ar
    33    37    38   ar
    34    38    39   ar
    35    39    42    1
    36    42    43   ar
    37    43    44   ar
    38    44    45   ar
    39    45    46   ar
    40    46    47   ar
    41    39    40   ar
    42    40    41   ar
    43    41    33   ar
    44     6     1   ar
    45    41    36   ar
    46    15    10    1
    47    47    42   ar
    48    23    18   ar
    49    30    31    1
    50    26    27    1
    51     7     8    1
    52     7     9    1
@<TRIPOS>MOLECULE
*****
 47 52 0 0 0
SMALL
GASTEIGER

@<TRIPOS>ATOM
      1 C         -64.2982  -52.1719  -24.9273 C.ar    1  UNL1        0.0823
      2 C         -64.4105  -52.1004  -23.5313 C.ar    1  UNL1        0.0204
      3 C         -65.1131  -53.0782  -22.8282 C.ar    1  UNL1        0.0357
      4 C         -65.7229  -54.1339  -23.5258 C.ar    1  UNL1        0.1332
      5 N         -65.6122  -54.1727  -24.8830 N.ar    1  UNL1       -0.2152
      6 C         -64.9330  -53.2360  -25.5985 C.ar    1  UNL1        0.1403
      7 N         -64.8566  -53.3751  -27.0202 N.pl3   1  UNL1       -0.3416
      8 H         -65.3529  -54.1636  -27.4918 H       1  UNL1        0.1438
      9 H         -64.2852  -52.7342  -27.6118 H       1  UNL1        0.1438
     10 N         -66.4524  -55.1737  -22.8328 N.pl3   1  UNL1       -0.2932
     11 C         -67.7617  -55.6309  -23.3298 C.3     1  UNL1        0.0923
     12 C         -68.5173  -56.4555  -22.2750 C.3     1  UNL1        0.0252
     13 C         -68.4159  -55.8182  -20.8710 C.3     1  UNL1        0.0472
     14 C         -66.9401  -55.5553  -20.4469 C.3     1  UNL1        0.0252
     15 C         -65.9313  -55.7540  -21.5861 C.3     1  UNL1        0.0923
     16 C         -69.2637  -54.5355  -20.7857 C.3     1  UNL1        0.2054
     17 O         -70.6018  -54.8652  -20.4181 O.3     1  UNL1       -0.4755
     18 C         -71.1848  -54.5539  -19.1809 C.ar    1  UNL1        0.1388
     19 C         -71.0647  -55.3940  -18.0587 C.ar    1  UNL1        0.0369
     20 C         -71.6753  -55.0447  -16.8531 C.ar    1  UNL1        0.0033
     21 C         -72.4035  -53.8576  -16.7513 C.ar    1  UNL1        0.0066
     22 C         -72.5235  -52.9976  -17.8570 C.ar    1  UNL1        0.0785
     23 C         -71.9145  -53.3632  -19.0721 C.ar    1  UNL1        0.0433
     24 C         -73.3021  -51.7407  -17.7359 C.2     1  UNL1        0.3381
     25 O         -74.1785  -51.4633  -18.5974 O.2     1  UNL1       -0.2451
     26 O         -73.1047  -50.8529  -16.6789 O.3     1  UNL1       -0.4771
     27 H         -72.4952  -51.0603  -15.8986 H       1  UNL1        0.2954
     28 C         -63.8921  -49.7378  -25.4876 C.2     1  UNL1        0.2840
     29 O         -64.7675  -49.3588  -24.6639 O.2     1  UNL1       -0.2665
     30 N         -63.6164  -51.1387  -25.6583 N.am    1  UNL1       -0.2757
     31 H         -62.9182  -51.4344  -26.3740 H       1  UNL1        0.1553
     32 C         -64.0828  -49.2483  -28.6819 C.3     1  UNL1        0.0345
     33 C         -63.2884  -48.4889  -27.6635 C.ar    1  UNL1        0.0202
     34 C         -63.1910  -48.7167  -26.2852 C.ar    1  UNL1        0.1946
     35 O         -62.3315  -47.8692  -25.7473 O.2     1  UNL1       -0.4492
     36 C         -61.8854  -47.0882  -26.7007 C.ar    1  UNL1        0.1452
     37 C         -60.9701  -46.0480  -26.5831 C.ar    1  UNL1        0.0375
     38 C         -60.6294  -45.3343  -27.7456 C.ar    1  UNL1        0.0031
     39 C         -61.2045  -45.6696  -29.0016 C.ar    1  UNL1        0.0002
     40 C         -62.1308  -46.7374  -29.0769 C.ar    1  UNL1        0.0028
     41 C         -62.4465  -47.4216  -27.9031 C.ar    1  UNL1        0.0337
     42 C         -60.8372  -44.9090  -30.2228 C.ar    1  UNL1        0.0000
     43 C         -61.7548  -44.0210  -30.8162 C.ar    1  UNL1        0.0000
     44 C         -61.4065  -43.3070  -31.9669 C.ar    1  UNL1        0.0000
     45 C         -60.1420  -43.4695  -32.5369 C.ar    1  UNL1        0.0000
     46 C         -59.2229  -44.3470  -31.9578 C.ar    1  UNL1        0.0000
     47 C         -59.5659  -45.0644  -30.8076 C.ar    1  UNL1        0.0000
@<TRIPOS>BOND
     1    32    33    1
     2    33    34   ar
     3    34    28    1
     4    28    29    2
     5    28    30   am
     6    30     1    1
     7     1     2   ar
     8     2     3   ar
     9     3     4   ar
    10     4    10    1
    11    10    11    1
    12    11    12    1
    13    12    13    1
    14    13    16    1
    15    16    17    1
    16    17    18    1
    17    18    19   ar
    18    19    20   ar
    19    20    21   ar
    20    21    22   ar
    21    22    24    1
    22    24    25    2
    23    24    26    1
    24    22    23   ar
    25    13    14    1
    26    14    15    1
    27     4     5   ar
    28     5     6   ar
    29     6     7    1
    30    34    35   ar
    31    35    36   ar
    32    36    37   ar
    33    37    38   ar
    34    38    39   ar
    35    39    42    1
    36    42    43   ar
    37    43    44   ar
    38    44    45   ar
    39    45    46   ar
    40    46    47   ar
    41    39    40   ar
    42    40    41   ar
    43    41    33   ar
    44     6     1   ar
    45    41    36   ar
    46    15    10    1
    47    47    42   ar
    48    23    18   ar
    49    30    31    1
    50    26    27    1
    51     7     8    1
    52     7     9    1
