@<TRIPOS>MOLECULE
*****
 34 37 0 0 0
SMALL
GASTEIGER

@<TRIPOS>ATOM
      1 C         -18.1200  -12.3030   -9.7771 C.ar    1  UNL1        0.1718
      2 C         -18.6881  -13.1645  -10.7282 C.ar    1  UNL1        0.0400
      3 C         -19.8113  -12.7746  -11.4525 C.ar    1  UNL1        0.0030
      4 C         -20.3773  -11.5038  -11.2707 C.ar    1  UNL1       -0.0015
      5 C         -19.7677  -10.5957  -10.3656 C.ar    1  UNL1        0.0145
      6 C         -18.6718  -11.0294   -9.5759 C.ar    1  UNL1        0.1636
      7 O         -18.1136  -10.2346   -8.5702 O.3     1  UNL1       -0.5031
      8 C         -20.3104   -9.1835  -10.2783 C.3     1  UNL1        0.0299
      9 C         -21.6442   -9.1341   -9.5182 C.3     1  UNL1        0.0091
     10 C         -22.6312  -10.2483   -9.9161 C.3     1  UNL1        0.0227
     11 C         -22.6567  -10.4981  -11.4134 C.2     1  UNL1       -0.0398
     12 C         -21.6176  -11.1365  -12.0228 C.2     1  UNL1       -0.0076
     13 H         -18.5364   -9.3857   -8.2215 H       1  UNL1        0.2923
     14 C         -21.6542  -11.4336  -13.4710 C.ar    1  UNL1        0.0056
     15 C         -21.7930  -12.7510  -13.9165 C.ar    1  UNL1        0.0402
     16 C         -21.8558  -13.0450  -15.2917 C.ar    1  UNL1        0.1754
     17 C         -21.7728  -11.9829  -16.2301 C.ar    1  UNL1        0.2061
     18 C         -21.6183  -10.6614  -15.7754 C.ar    1  UNL1        0.1754
     19 C         -21.5552  -10.3945  -14.3971 C.ar    1  UNL1        0.0402
     20 O         -22.0017  -14.3683  -15.7369 O.3     1  UNL1       -0.4683
     21 C         -23.1466  -15.1848  -15.5111 C.3     1  UNL1        0.2526
     22 O         -21.8371  -12.1667  -17.6248 O.3     1  UNL1       -0.4654
     23 C         -22.9936  -12.0409  -18.4447 C.3     1  UNL1        0.2528
     24 O         -21.5344   -9.6361  -16.7316 O.3     1  UNL1       -0.4683
     25 C         -21.2248   -8.2780  -16.4356 C.3     1  UNL1        0.2526
     26 C         -15.6729  -12.2593   -9.2495 C.3     1  UNL1        0.2526
     27 O         -17.0109  -12.6791   -9.0020 O.3     1  UNL1       -0.4684
     28 C         -23.8631  -10.0033  -12.1926 C.3     1  UNL1        0.0483
     29 C         -24.5748  -11.1190  -12.9158 C.ar    1  UNL1       -0.0181
     30 C         -25.0252  -10.9339  -14.2350 C.ar    1  UNL1       -0.0039
     31 C         -25.6889  -11.9656  -14.9051 C.ar    1  UNL1       -0.0003
     32 C         -25.9234  -13.1825  -14.2602 C.ar    1  UNL1       -0.0000
     33 C         -25.4955  -13.3696  -12.9433 C.ar    1  UNL1       -0.0003
     34 C         -24.8296  -12.3413  -12.2695 C.ar    1  UNL1       -0.0039
@<TRIPOS>BOND
     1    26    27    1
     2    27     1    1
     3     1     2   ar
     4     2     3   ar
     5     3     4   ar
     6     4     5   ar
     7     5     6   ar
     8     6     7    1
     9     5     8    1
    10     8     9    1
    11     9    10    1
    12    10    11    1
    13    11    28    1
    14    28    29    1
    15    29    30   ar
    16    30    31   ar
    17    31    32   ar
    18    32    33   ar
    19    33    34   ar
    20    11    12    2
    21    12    14    1
    22    14    15   ar
    23    15    16   ar
    24    16    20    1
    25    20    21    1
    26    16    17   ar
    27    17    22    1
    28    22    23    1
    29    17    18   ar
    30    18    24    1
    31    24    25    1
    32    18    19   ar
    33     6     1   ar
    34    34    29   ar
    35    19    14   ar
    36    12     4    1
    37     7    13    1
@<TRIPOS>MOLECULE
*****
 34 37 0 0 0
SMALL
GASTEIGER

@<TRIPOS>ATOM
      1 C         -18.4162  -10.8181   -9.3299 C.ar    1  UNL1        0.1718
      2 C         -18.7574  -11.8403  -10.2290 C.ar    1  UNL1        0.0400
      3 C         -19.9276  -11.7597  -10.9788 C.ar    1  UNL1        0.0030
      4 C         -20.7710  -10.6433  -10.8756 C.ar    1  UNL1       -0.0015
      5 C         -20.3993   -9.5691  -10.0252 C.ar    1  UNL1        0.0145
      6 C         -19.2467   -9.6946   -9.2074 C.ar    1  UNL1        0.1636
      7 O         -18.9010   -8.7364   -8.2498 O.3     1  UNL1       -0.5031
      8 C         -21.2506   -8.3154  -10.0247 C.3     1  UNL1        0.0299
      9 C         -22.5731   -8.5277   -9.2729 C.3     1  UNL1        0.0091
     10 C         -23.2737   -9.8589   -9.6059 C.3     1  UNL1        0.0227
     11 C         -23.2168  -10.1943  -11.0854 C.2     1  UNL1       -0.0398
     12 C         -22.0497  -10.6130  -11.6522 C.2     1  UNL1       -0.0076
     13 H         -19.5116   -7.9877   -7.9542 H       1  UNL1        0.2923
     14 C         -21.9935  -10.9940  -13.0800 C.ar    1  UNL1        0.0056
     15 C         -22.1396  -12.3315  -13.4583 C.ar    1  UNL1        0.0402
     16 C         -22.1147  -12.7046  -14.8154 C.ar    1  UNL1        0.1754
     17 C         -21.9349  -11.7021  -15.8046 C.ar    1  UNL1        0.2061
     18 C         -21.7737  -10.3605  -15.4162 C.ar    1  UNL1        0.1754
     19 C         -21.7994  -10.0144  -14.0544 C.ar    1  UNL1        0.0402
     20 O         -22.2680  -14.0477  -15.1936 O.3     1  UNL1       -0.4683
     21 C         -23.5023  -14.7583  -15.2024 C.3     1  UNL1        0.2526
     22 O         -21.9068  -11.9663  -17.1875 O.3     1  UNL1       -0.4654
     23 C         -23.0113  -11.9148  -18.0837 C.3     1  UNL1        0.2528
     24 O         -21.5929   -9.3959  -16.4210 O.3     1  UNL1       -0.4683
     25 C         -20.8892   -8.1700  -16.2475 C.3     1  UNL1        0.2526
     26 C         -16.5907  -12.0916   -8.1836 C.3     1  UNL1        0.2526
     27 O         -17.2637  -10.8856   -8.5303 O.3     1  UNL1       -0.4684
     28 C         -24.4910  -10.0340  -11.8967 C.3     1  UNL1        0.0483
     29 C         -24.9319   -8.5950  -11.9923 C.ar    1  UNL1       -0.0181
     30 C         -24.0821   -7.6302  -12.5618 C.ar    1  UNL1       -0.0039
     31 C         -24.4875   -6.2952  -12.6471 C.ar    1  UNL1       -0.0003
     32 C         -25.7350   -5.9090  -12.1506 C.ar    1  UNL1       -0.0000
     33 C         -26.5790   -6.8573  -11.5666 C.ar    1  UNL1       -0.0003
     34 C         -26.1787   -8.1941  -11.4807 C.ar    1  UNL1       -0.0039
@<TRIPOS>BOND
     1    26    27    1
     2    27     1    1
     3     1     2   ar
     4     2     3   ar
     5     3     4   ar
     6     4     5   ar
     7     5     6   ar
     8     6     7    1
     9     5     8    1
    10     8     9    1
    11     9    10    1
    12    10    11    1
    13    11    28    1
    14    28    29    1
    15    29    30   ar
    16    30    31   ar
    17    31    32   ar
    18    32    33   ar
    19    33    34   ar
    20    11    12    2
    21    12    14    1
    22    14    15   ar
    23    15    16   ar
    24    16    20    1
    25    20    21    1
    26    16    17   ar
    27    17    22    1
    28    22    23    1
    29    17    18   ar
    30    18    24    1
    31    24    25    1
    32    18    19   ar
    33     6     1   ar
    34    34    29   ar
    35    19    14   ar
    36    12     4    1
    37     7    13    1
@<TRIPOS>MOLECULE
*****
 34 37 0 0 0
SMALL
GASTEIGER

@<TRIPOS>ATOM
      1 C         -18.4476  -10.8025   -9.3714 C.ar    1  UNL1        0.1718
      2 C         -18.8094  -11.8194  -10.2685 C.ar    1  UNL1        0.0400
      3 C         -19.9913  -11.7293  -10.9987 C.ar    1  UNL1        0.0030
      4 C         -20.8264  -10.6085  -10.8776 C.ar    1  UNL1       -0.0015
      5 C         -20.4346   -9.5397  -10.0294 C.ar    1  UNL1        0.0145
      6 C         -19.2695   -9.6748   -9.2312 C.ar    1  UNL1        0.1636
      7 O         -18.9027   -8.7222   -8.2759 O.3     1  UNL1       -0.5031
      8 C         -21.2786   -8.2812  -10.0103 C.3     1  UNL1        0.0299
      9 C         -22.5898   -8.4888   -9.2377 C.3     1  UNL1        0.0091
     10 C         -23.3034   -9.8147   -9.5640 C.3     1  UNL1        0.0227
     11 C         -23.2728  -10.1449  -11.0455 C.2     1  UNL1       -0.0398
     12 C         -22.1175  -10.5681  -11.6329 C.2     1  UNL1       -0.0076
     13 H         -19.5040   -7.9711   -7.9675 H       1  UNL1        0.2923
     14 C         -22.0870  -10.9441  -13.0628 C.ar    1  UNL1        0.0056
     15 C         -21.8945   -9.9675  -14.0440 C.ar    1  UNL1        0.0402
     16 C         -21.8370  -10.3151  -15.4068 C.ar    1  UNL1        0.1754
     17 C         -21.9808  -11.6776  -15.7792 C.ar    1  UNL1        0.2061
     18 C         -22.1891  -12.6530  -14.7882 C.ar    1  UNL1        0.1754
     19 C         -22.2456  -12.2796  -13.4346 C.ar    1  UNL1        0.0402
     20 O         -21.6371   -9.3336  -16.3902 O.3     1  UNL1       -0.4683
     21 C         -20.8142   -8.1810  -16.2389 C.3     1  UNL1        0.2526
     22 O         -21.9271  -12.1326  -17.1108 O.3     1  UNL1       -0.4654
     23 C         -22.9318  -11.9671  -18.1052 C.3     1  UNL1        0.2528
     24 O         -22.3324  -13.9902  -15.1929 O.3     1  UNL1       -0.4683
     25 C         -23.5589  -14.7136  -15.1739 C.3     1  UNL1        0.2526
     26 C         -16.6017  -12.0892   -8.2734 C.3     1  UNL1        0.2526
     27 O         -17.2826  -10.8796   -8.5910 O.3     1  UNL1       -0.4684
     28 C         -24.5592   -9.9743  -11.8351 C.3     1  UNL1        0.0483
     29 C         -24.9901   -8.5318  -11.9233 C.ar    1  UNL1       -0.0181
     30 C         -26.2613   -8.1431  -11.4645 C.ar    1  UNL1       -0.0039
     31 C         -26.6639   -6.8072  -11.5496 C.ar    1  UNL1       -0.0003
     32 C         -25.8099   -5.8526  -12.1075 C.ar    1  UNL1       -0.0000
     33 C         -24.5519   -6.2325  -12.5824 C.ar    1  UNL1       -0.0003
     34 C         -24.1440   -7.5671  -12.4978 C.ar    1  UNL1       -0.0039
@<TRIPOS>BOND
     1    26    27    1
     2    27     1    1
     3     1     2   ar
     4     2     3   ar
     5     3     4   ar
     6     4     5   ar
     7     5     6   ar
     8     6     7    1
     9     5     8    1
    10     8     9    1
    11     9    10    1
    12    10    11    1
    13    11    28    1
    14    28    29    1
    15    29    30   ar
    16    30    31   ar
    17    31    32   ar
    18    32    33   ar
    19    33    34   ar
    20    11    12    2
    21    12    14    1
    22    14    15   ar
    23    15    16   ar
    24    16    20    1
    25    20    21    1
    26    16    17   ar
    27    17    22    1
    28    22    23    1
    29    17    18   ar
    30    18    24    1
    31    24    25    1
    32    18    19   ar
    33     6     1   ar
    34    34    29   ar
    35    19    14   ar
    36    12     4    1
    37     7    13    1
@<TRIPOS>MOLECULE
*****
 34 37 0 0 0
SMALL
GASTEIGER

@<TRIPOS>ATOM
      1 C         -18.4629  -10.8688   -9.4439 C.ar    1  UNL1        0.1718
      2 C         -18.8134  -11.8573  -10.3765 C.ar    1  UNL1        0.0400
      3 C         -19.9617  -11.7212  -11.1518 C.ar    1  UNL1        0.0030
      4 C         -20.7722  -10.5815  -11.0406 C.ar    1  UNL1       -0.0015
      5 C         -20.3883   -9.5408  -10.1546 C.ar    1  UNL1        0.0145
      6 C         -19.2608   -9.7229   -9.3130 C.ar    1  UNL1        0.1636
      7 O         -18.9091   -8.7999   -8.3235 O.3     1  UNL1       -0.5031
      8 C         -21.2000   -8.2611  -10.1428 C.3     1  UNL1        0.0299
      9 C         -22.5466   -8.4497   -9.4285 C.3     1  UNL1        0.0091
     10 C         -23.2799   -9.7494   -9.8117 C.3     1  UNL1        0.0227
     11 C         -23.1969  -10.0501  -11.2974 C.2     1  UNL1       -0.0398
     12 C         -22.0297  -10.4916  -11.8466 C.2     1  UNL1       -0.0076
     13 H         -19.5033   -8.0396   -8.0237 H       1  UNL1        0.2923
     14 C         -21.9503  -10.8391  -13.2818 C.ar    1  UNL1        0.0056
     15 C         -21.9258   -9.8316  -14.2501 C.ar    1  UNL1        0.0402
     16 C         -21.8236  -10.1476  -15.6180 C.ar    1  UNL1        0.1754
     17 C         -21.7485  -11.5104  -16.0088 C.ar    1  UNL1        0.2061
     18 C         -21.7888  -12.5194  -15.0304 C.ar    1  UNL1        0.1754
     19 C         -21.8941  -12.1777  -13.6714 C.ar    1  UNL1        0.0402
     20 O         -21.7926   -9.1339  -16.5886 O.3     1  UNL1       -0.4683
     21 C         -22.7313   -8.0673  -16.6864 C.3     1  UNL1        0.2526
     22 O         -21.6326  -11.9335  -17.3470 O.3     1  UNL1       -0.4654
     23 C         -22.6840  -12.0256  -18.3018 C.3     1  UNL1        0.2528
     24 O         -21.7175  -13.8569  -15.4532 O.3     1  UNL1       -0.4683
     25 C         -22.8152  -14.7642  -15.4537 C.3     1  UNL1        0.2526
     26 C         -16.6814  -12.2229   -8.3210 C.3     1  UNL1        0.2526
     27 O         -17.3331  -10.9924   -8.6189 O.3     1  UNL1       -0.4684
     28 C         -24.4451   -9.8295  -12.1346 C.3     1  UNL1        0.0483
     29 C         -24.8988  -11.0889  -12.8292 C.ar    1  UNL1       -0.0181
     30 C         -25.2789  -11.0536  -14.1826 C.ar    1  UNL1       -0.0039
     31 C         -25.7039  -12.2192  -14.8266 C.ar    1  UNL1       -0.0003
     32 C         -25.7693  -13.4242  -14.1226 C.ar    1  UNL1       -0.0000
     33 C         -25.4108  -13.4655  -12.7727 C.ar    1  UNL1       -0.0003
     34 C         -24.9833  -12.3027  -12.1247 C.ar    1  UNL1       -0.0039
@<TRIPOS>BOND
     1    26    27    1
     2    27     1    1
     3     1     2   ar
     4     2     3   ar
     5     3     4   ar
     6     4     5   ar
     7     5     6   ar
     8     6     7    1
     9     5     8    1
    10     8     9    1
    11     9    10    1
    12    10    11    1
    13    11    28    1
    14    28    29    1
    15    29    30   ar
    16    30    31   ar
    17    31    32   ar
    18    32    33   ar
    19    33    34   ar
    20    11    12    2
    21    12    14    1
    22    14    15   ar
    23    15    16   ar
    24    16    20    1
    25    20    21    1
    26    16    17   ar
    27    17    22    1
    28    22    23    1
    29    17    18   ar
    30    18    24    1
    31    24    25    1
    32    18    19   ar
    33     6     1   ar
    34    34    29   ar
    35    19    14   ar
    36    12     4    1
    37     7    13    1
@<TRIPOS>MOLECULE
*****
 34 37 0 0 0
SMALL
GASTEIGER

@<TRIPOS>ATOM
      1 C         -21.5388   -7.5192   -9.1861 C.ar    1  UNL1        0.1718
      2 C         -21.0046   -7.4649  -10.4828 C.ar    1  UNL1        0.0400
      3 C         -21.7336   -7.9447  -11.5675 C.ar    1  UNL1        0.0030
      4 C         -23.0262   -8.4610  -11.3920 C.ar    1  UNL1       -0.0015
      5 C         -23.6065   -8.4531  -10.0964 C.ar    1  UNL1        0.0145
      6 C         -22.8276   -8.0351   -8.9867 C.ar    1  UNL1        0.1636
      7 O         -23.2886   -8.1318   -7.6703 O.3     1  UNL1       -0.5031
      8 C         -25.0495   -8.8902   -9.9445 C.3     1  UNL1        0.0299
      9 C         -25.1963  -10.4146  -10.0629 C.3     1  UNL1        0.0091
     10 C         -24.3879  -11.0315  -11.2204 C.3     1  UNL1        0.0227
     11 C         -24.4489  -10.1950  -12.4859 C.2     1  UNL1       -0.0398
     12 C         -23.7608   -9.0210  -12.5692 C.2     1  UNL1       -0.0076
     13 H         -24.1154   -8.6447   -7.3979 H       1  UNL1        0.2923
     14 C         -23.7688   -8.2237  -13.8146 C.ar    1  UNL1        0.0056
     15 C         -22.7553   -8.3884  -14.7628 C.ar    1  UNL1        0.0402
     16 C         -22.7650   -7.6552  -15.9644 C.ar    1  UNL1        0.1754
     17 C         -23.8205   -6.7367  -16.2051 C.ar    1  UNL1        0.2061
     18 C         -24.8288   -6.5650  -15.2403 C.ar    1  UNL1        0.1754
     19 C         -24.7946   -7.3070  -14.0474 C.ar    1  UNL1        0.0402
     20 O         -21.7496   -7.8269  -16.9183 O.3     1  UNL1       -0.4683
     21 C         -20.4131   -8.2235  -16.6268 C.3     1  UNL1        0.2526
     22 O         -23.9307   -5.9641  -17.3773 O.3     1  UNL1       -0.4654
     23 C         -24.6413   -6.3134  -18.5600 C.3     1  UNL1        0.2528
     24 O         -25.8547   -5.6442  -15.5093 O.3     1  UNL1       -0.4683
     25 C         -26.8196   -5.2082  -14.5571 C.3     1  UNL1        0.2526
     26 C         -19.7307   -7.7885   -7.4755 C.3     1  UNL1        0.2526
     27 O         -20.8157   -7.0797   -8.0653 O.3     1  UNL1       -0.4684
     28 C         -25.3052  -10.7067  -13.6315 C.3     1  UNL1        0.0483
     29 C         -24.8793  -12.0762  -14.0977 C.ar    1  UNL1       -0.0181
     30 C         -23.5561  -12.3019  -14.5168 C.ar    1  UNL1       -0.0039
     31 C         -23.1609  -13.5696  -14.9534 C.ar    1  UNL1       -0.0003
     32 C         -24.0850  -14.6168  -14.9914 C.ar    1  UNL1       -0.0000
     33 C         -25.4065  -14.3976  -14.5940 C.ar    1  UNL1       -0.0003
     34 C         -25.8061  -13.1319  -14.1548 C.ar    1  UNL1       -0.0039
@<TRIPOS>BOND
     1    26    27    1
     2    27     1    1
     3     1     2   ar
     4     2     3   ar
     5     3     4   ar
     6     4     5   ar
     7     5     6   ar
     8     6     7    1
     9     5     8    1
    10     8     9    1
    11     9    10    1
    12    10    11    1
    13    11    28    1
    14    28    29    1
    15    29    30   ar
    16    30    31   ar
    17    31    32   ar
    18    32    33   ar
    19    33    34   ar
    20    11    12    2
    21    12    14    1
    22    14    15   ar
    23    15    16   ar
    24    16    20    1
    25    20    21    1
    26    16    17   ar
    27    17    22    1
    28    22    23    1
    29    17    18   ar
    30    18    24    1
    31    24    25    1
    32    18    19   ar
    33     6     1   ar
    34    34    29   ar
    35    19    14   ar
    36    12     4    1
    37     7    13    1
@<TRIPOS>MOLECULE
*****
 34 37 0 0 0
SMALL
GASTEIGER

@<TRIPOS>ATOM
      1 C         -21.5606   -7.5391   -9.1845 C.ar    1  UNL1        0.1718
      2 C         -21.0326   -7.4907  -10.4839 C.ar    1  UNL1        0.0400
      3 C         -21.7641   -7.9810  -11.5622 C.ar    1  UNL1        0.0030
      4 C         -23.0535   -8.5021  -11.3774 C.ar    1  UNL1       -0.0015
      5 C         -23.6280   -8.4885  -10.0793 C.ar    1  UNL1        0.0145
      6 C         -22.8461   -8.0597   -8.9758 C.ar    1  UNL1        0.1636
      7 O         -23.3007   -8.1500   -7.6568 O.3     1  UNL1       -0.5031
      8 C         -25.0683   -8.9314   -9.9180 C.3     1  UNL1        0.0299
      9 C         -25.2084  -10.4571  -10.0259 C.3     1  UNL1        0.0091
     10 C         -24.4024  -11.0778  -11.1830 C.3     1  UNL1        0.0227
     11 C         -24.4731  -10.2498  -12.4536 C.2     1  UNL1       -0.0398
     12 C         -23.7908   -9.0732  -12.5476 C.2     1  UNL1       -0.0076
     13 H         -24.1239   -8.6650   -7.3773 H       1  UNL1        0.2923
     14 C         -23.8081   -8.2841  -13.7982 C.ar    1  UNL1        0.0056
     15 C         -24.8176   -7.3442  -14.0241 C.ar    1  UNL1        0.0402
     16 C         -24.8311   -6.5677  -15.1980 C.ar    1  UNL1        0.1754
     17 C         -23.8035   -6.7516  -16.1603 C.ar    1  UNL1        0.2061
     18 C         -22.7994   -7.7094  -15.9335 C.ar    1  UNL1        0.1754
     19 C         -22.8100   -8.4741  -14.7546 C.ar    1  UNL1        0.0402
     20 O         -25.8423   -5.6197  -15.4201 O.3     1  UNL1       -0.4683
     21 C         -26.8813   -5.3023  -14.4991 C.3     1  UNL1        0.2526
     22 O         -23.7177   -6.0196  -17.3602 O.3     1  UNL1       -0.4654
     23 C         -24.6205   -6.0822  -18.4587 C.3     1  UNL1        0.2528
     24 O         -21.8015   -7.8683  -16.9090 O.3     1  UNL1       -0.4683
     25 C         -20.4448   -8.2003  -16.6309 C.3     1  UNL1        0.2526
     26 C         -19.7420   -7.7877   -7.4819 C.3     1  UNL1        0.2526
     27 O         -20.8346   -7.0890   -8.0699 O.3     1  UNL1       -0.4684
     28 C         -25.3321  -10.7729  -13.5920 C.3     1  UNL1        0.0483
     29 C         -24.8787  -12.1273  -14.0761 C.ar    1  UNL1       -0.0181
     30 C         -23.5472  -12.3248  -14.4827 C.ar    1  UNL1       -0.0039
     31 C         -23.1265  -13.5784  -14.9359 C.ar    1  UNL1       -0.0003
     32 C         -24.0331  -14.6392  -15.0031 C.ar    1  UNL1       -0.0000
     33 C         -25.3626  -14.4479  -14.6182 C.ar    1  UNL1       -0.0003
     34 C         -25.7877  -13.1964  -14.1625 C.ar    1  UNL1       -0.0039
@<TRIPOS>BOND
     1    26    27    1
     2    27     1    1
     3     1     2   ar
     4     2     3   ar
     5     3     4   ar
     6     4     5   ar
     7     5     6   ar
     8     6     7    1
     9     5     8    1
    10     8     9    1
    11     9    10    1
    12    10    11    1
    13    11    28    1
    14    28    29    1
    15    29    30   ar
    16    30    31   ar
    17    31    32   ar
    18    32    33   ar
    19    33    34   ar
    20    11    12    2
    21    12    14    1
    22    14    15   ar
    23    15    16   ar
    24    16    20    1
    25    20    21    1
    26    16    17   ar
    27    17    22    1
    28    22    23    1
    29    17    18   ar
    30    18    24    1
    31    24    25    1
    32    18    19   ar
    33     6     1   ar
    34    34    29   ar
    35    19    14   ar
    36    12     4    1
    37     7    13    1
@<TRIPOS>MOLECULE
*****
 34 37 0 0 0
SMALL
GASTEIGER

@<TRIPOS>ATOM
      1 C         -20.0915   -8.7027  -10.6861 C.ar    1  UNL1        0.1718
      2 C         -20.6982   -7.6263  -11.3517 C.ar    1  UNL1        0.0400
      3 C         -21.6516   -7.8542  -12.3402 C.ar    1  UNL1        0.0030
      4 C         -22.0482   -9.1594  -12.6679 C.ar    1  UNL1       -0.0015
      5 C         -21.4964  -10.2531  -11.9505 C.ar    1  UNL1        0.0145
      6 C         -20.4696  -10.0161  -11.0005 C.ar    1  UNL1        0.1636
      7 O         -19.7885  -11.0557  -10.3603 O.3     1  UNL1       -0.5031
      8 C         -22.0310  -11.6445  -12.2237 C.3     1  UNL1        0.0299
      9 C         -21.5231  -12.1944  -13.5648 C.3     1  UNL1        0.0091
     10 C         -21.5792  -11.1754  -14.7190 C.3     1  UNL1        0.0227
     11 C         -22.8536  -10.3503  -14.7077 C.2     1  UNL1       -0.0398
     12 C         -23.0330   -9.3731  -13.7741 C.2     1  UNL1       -0.0076
     13 H         -19.8514  -12.0258  -10.6356 H       1  UNL1        0.2923
     14 C         -24.2457   -8.5268  -13.7851 C.ar    1  UNL1        0.0056
     15 C         -25.2767   -8.7615  -12.8712 C.ar    1  UNL1        0.0402
     16 C         -26.4246   -7.9470  -12.8534 C.ar    1  UNL1        0.1754
     17 C         -26.5282   -6.8781  -13.7821 C.ar    1  UNL1        0.2061
     18 C         -25.4940   -6.6569  -14.7086 C.ar    1  UNL1        0.1754
     19 C         -24.3595   -7.4862  -14.7077 C.ar    1  UNL1        0.0402
     20 O         -27.4561   -8.1803  -11.9303 O.3     1  UNL1       -0.4683
     21 C         -27.3628   -7.9568  -10.5268 C.3     1  UNL1        0.2526
     22 O         -27.6264   -5.9986  -13.8406 O.3     1  UNL1       -0.4654
     23 C         -28.8497   -6.2138  -14.5356 C.3     1  UNL1        0.2528
     24 O         -25.6321   -5.5939  -15.6160 O.3     1  UNL1       -0.4683
     25 C         -25.1121   -5.5900  -16.9418 C.3     1  UNL1        0.2526
     26 C         -19.3556   -8.3161   -8.3245 C.3     1  UNL1        0.2526
     27 O         -19.0988   -8.5098   -9.7117 O.3     1  UNL1       -0.4684
     28 C         -23.9082  -10.6632  -15.7553 C.3     1  UNL1        0.0483
     29 C         -24.5576  -12.0057  -15.5311 C.ar    1  UNL1       -0.0181
     30 C         -25.4897  -12.1770  -14.4924 C.ar    1  UNL1       -0.0039
     31 C         -26.0891  -13.4219  -14.2805 C.ar    1  UNL1       -0.0003
     32 C         -25.7517  -14.5086  -15.0911 C.ar    1  UNL1       -0.0000
     33 C         -24.8131  -14.3526  -16.1144 C.ar    1  UNL1       -0.0003
     34 C         -24.2123  -13.1090  -16.3313 C.ar    1  UNL1       -0.0039
@<TRIPOS>BOND
     1    26    27    1
     2    27     1    1
     3     1     2   ar
     4     2     3   ar
     5     3     4   ar
     6     4     5   ar
     7     5     6   ar
     8     6     7    1
     9     5     8    1
    10     8     9    1
    11     9    10    1
    12    10    11    1
    13    11    28    1
    14    28    29    1
    15    29    30   ar
    16    30    31   ar
    17    31    32   ar
    18    32    33   ar
    19    33    34   ar
    20    11    12    2
    21    12    14    1
    22    14    15   ar
    23    15    16   ar
    24    16    20    1
    25    20    21    1
    26    16    17   ar
    27    17    22    1
    28    22    23    1
    29    17    18   ar
    30    18    24    1
    31    24    25    1
    32    18    19   ar
    33     6     1   ar
    34    34    29   ar
    35    19    14   ar
    36    12     4    1
    37     7    13    1
@<TRIPOS>MOLECULE
*****
 34 37 0 0 0
SMALL
GASTEIGER

@<TRIPOS>ATOM
      1 C         -18.7308  -11.5131  -10.1775 C.ar    1  UNL1        0.1718
      2 C         -19.3348  -10.2464  -10.1946 C.ar    1  UNL1        0.0400
      3 C         -20.4409  -10.0024  -11.0041 C.ar    1  UNL1        0.0030
      4 C         -20.9929  -11.0232  -11.7924 C.ar    1  UNL1       -0.0015
      5 C         -20.4367  -12.3277  -11.7275 C.ar    1  UNL1        0.0145
      6 C         -19.2633  -12.5475  -10.9608 C.ar    1  UNL1        0.1636
      7 O         -18.5866  -13.7708  -10.9629 O.3     1  UNL1       -0.5031
      8 C         -21.1239  -13.4483  -12.4814 C.3     1  UNL1        0.0299
      9 C         -20.8707  -13.3540  -13.9934 C.3     1  UNL1        0.0091
     10 C         -21.0101  -11.9289  -14.5620 C.3     1  UNL1        0.0227
     11 C         -22.1927  -11.1793  -13.9750 C.2     1  UNL1       -0.0398
     12 C         -22.1461  -10.7141  -12.6943 C.2     1  UNL1       -0.0076
     13 H         -18.7732  -14.5182  -11.6168 H       1  UNL1        0.2923
     14 C         -23.2694   -9.9363  -12.1285 C.ar    1  UNL1        0.0056
     15 C         -23.5921   -8.6816  -12.6529 C.ar    1  UNL1        0.0402
     16 C         -24.6752   -7.9424  -12.1413 C.ar    1  UNL1        0.1754
     17 C         -25.4413   -8.4856  -11.0765 C.ar    1  UNL1        0.2061
     18 C         -25.1019   -9.7417  -10.5437 C.ar    1  UNL1        0.1754
     19 C         -24.0140  -10.4586  -11.0703 C.ar    1  UNL1        0.0402
     20 O         -25.0017   -6.6853  -12.6738 O.3     1  UNL1       -0.4683
     21 C         -25.7178   -6.4725  -13.8864 C.3     1  UNL1        0.2526
     22 O         -26.5497   -7.8348  -10.5012 O.3     1  UNL1       -0.4654
     23 C         -27.8724   -7.7887  -11.0249 C.3     1  UNL1        0.2528
     24 O         -25.8782  -10.2462   -9.4875 O.3     1  UNL1       -0.4683
     25 C         -25.3553  -10.9432   -8.3611 C.3     1  UNL1        0.2526
     26 C         -17.4364  -11.4100   -8.0369 C.3     1  UNL1        0.2526
     27 O         -17.5911  -11.7828   -9.4025 O.3     1  UNL1       -0.4684
     28 C         -23.4145  -10.9842  -14.8562 C.3     1  UNL1        0.0483
     29 C         -24.2549  -12.2325  -14.9548 C.ar    1  UNL1       -0.0181
     30 C         -25.2209  -12.5153  -13.9729 C.ar    1  UNL1       -0.0039
     31 C         -25.9976  -13.6743  -14.0605 C.ar    1  UNL1       -0.0003
     32 C         -25.8057  -14.5677  -15.1173 C.ar    1  UNL1       -0.0000
     33 C         -24.8358  -14.3042  -16.0880 C.ar    1  UNL1       -0.0003
     34 C         -24.0578  -13.1454  -16.0057 C.ar    1  UNL1       -0.0039
@<TRIPOS>BOND
     1    26    27    1
     2    27     1    1
     3     1     2   ar
     4     2     3   ar
     5     3     4   ar
     6     4     5   ar
     7     5     6   ar
     8     6     7    1
     9     5     8    1
    10     8     9    1
    11     9    10    1
    12    10    11    1
    13    11    28    1
    14    28    29    1
    15    29    30   ar
    16    30    31   ar
    17    31    32   ar
    18    32    33   ar
    19    33    34   ar
    20    11    12    2
    21    12    14    1
    22    14    15   ar
    23    15    16   ar
    24    16    20    1
    25    20    21    1
    26    16    17   ar
    27    17    22    1
    28    22    23    1
    29    17    18   ar
    30    18    24    1
    31    24    25    1
    32    18    19   ar
    33     6     1   ar
    34    34    29   ar
    35    19    14   ar
    36    12     4    1
    37     7    13    1
@<TRIPOS>MOLECULE
*****
 34 37 0 0 0
SMALL
GASTEIGER

@<TRIPOS>ATOM
      1 C         -19.9401   -8.9581  -10.6968 C.ar    1  UNL1        0.1718
      2 C         -20.5360   -7.8553  -11.3280 C.ar    1  UNL1        0.0400
      3 C         -21.5064   -8.0422  -12.3086 C.ar    1  UNL1        0.0030
      4 C         -21.9309   -9.3318  -12.6620 C.ar    1  UNL1       -0.0015
      5 C         -21.3895  -10.4522  -11.9786 C.ar    1  UNL1        0.0145
      6 C         -20.3462  -10.2566  -11.0373 C.ar    1  UNL1        0.1636
      7 O         -19.6756  -11.3234  -10.4315 O.3     1  UNL1       -0.5031
      8 C         -21.9529  -11.8268  -12.2777 C.3     1  UNL1        0.0299
      9 C         -21.4728  -12.3532  -13.6384 C.3     1  UNL1        0.0091
     10 C         -21.5257  -11.3056  -14.7670 C.3     1  UNL1        0.0227
     11 C         -22.7846  -10.4585  -14.7186 C.2     1  UNL1       -0.0398
     12 C         -22.9339   -9.5011  -13.7594 C.2     1  UNL1       -0.0076
     13 H         -19.7598  -12.2853  -10.7291 H       1  UNL1        0.2923
     14 C         -24.1311   -8.6333  -13.7337 C.ar    1  UNL1        0.0056
     15 C         -24.2605   -7.5845  -14.6483 C.ar    1  UNL1        0.0402
     16 C         -25.4068   -6.7675  -14.6520 C.ar    1  UNL1        0.1754
     17 C         -26.4373   -7.0182  -13.7082 C.ar    1  UNL1        0.2061
     18 C         -26.2939   -8.0655  -12.7811 C.ar    1  UNL1        0.1754
     19 C         -25.1383   -8.8650  -12.7963 C.ar    1  UNL1        0.0402
     20 O         -25.5378   -5.7187  -15.5758 O.3     1  UNL1       -0.4683
     21 C         -24.9980   -5.7185  -16.8938 C.3     1  UNL1        0.2526
     22 O         -27.6276   -6.2692  -13.6348 O.3     1  UNL1       -0.4654
     23 C         -28.7709   -6.4090  -14.4709 C.3     1  UNL1        0.2528
     24 O         -27.3306   -8.2817  -11.8585 O.3     1  UNL1       -0.4683
     25 C         -27.2627   -7.9531  -10.4746 C.3     1  UNL1        0.2526
     26 C         -19.1634   -8.6995   -8.3308 C.3     1  UNL1        0.2526
     27 O         -18.9313   -8.8066   -9.7316 O.3     1  UNL1       -0.4684
     28 C         -23.8585  -10.7271  -15.7588 C.3     1  UNL1        0.0483
     29 C         -24.5437  -12.0534  -15.5454 C.ar    1  UNL1       -0.0181
     30 C         -25.4999  -12.2005  -14.5249 C.ar    1  UNL1       -0.0039
     31 C         -26.1326  -13.4305  -14.3230 C.ar    1  UNL1       -0.0003
     32 C         -25.8051  -14.5266  -15.1250 C.ar    1  UNL1       -0.0000
     33 C         -24.8432  -14.3948  -16.1299 C.ar    1  UNL1       -0.0003
     34 C         -24.2090  -13.1662  -16.3369 C.ar    1  UNL1       -0.0039
@<TRIPOS>BOND
     1    26    27    1
     2    27     1    1
     3     1     2   ar
     4     2     3   ar
     5     3     4   ar
     6     4     5   ar
     7     5     6   ar
     8     6     7    1
     9     5     8    1
    10     8     9    1
    11     9    10    1
    12    10    11    1
    13    11    28    1
    14    28    29    1
    15    29    30   ar
    16    30    31   ar
    17    31    32   ar
    18    32    33   ar
    19    33    34   ar
    20    11    12    2
    21    12    14    1
    22    14    15   ar
    23    15    16   ar
    24    16    20    1
    25    20    21    1
    26    16    17   ar
    27    17    22    1
    28    22    23    1
    29    17    18   ar
    30    18    24    1
    31    24    25    1
    32    18    19   ar
    33     6     1   ar
    34    34    29   ar
    35    19    14   ar
    36    12     4    1
    37     7    13    1
