@<TRIPOS>MOLECULE
*****
 30 33 0 0 0
SMALL
GASTEIGER

@<TRIPOS>ATOM
      1 N          47.2438   13.6666  -24.2673 N.ar    1  UNL1       -0.3243
      2 C          48.4263   13.1576  -24.6871 C.ar    1  UNL1        0.0600
      3 C          48.8332   11.8182  -24.6601 C.ar    1  UNL1        0.0177
      4 C          50.1132   11.5009  -25.1369 C.ar    1  UNL1        0.0082
      5 C          50.9631   12.5106  -25.6273 C.ar    1  UNL1        0.0347
      6 BR         52.7031   12.0552  -26.2696 Br      1  UNL1       -0.0490
      7 C          50.5419   13.8511  -25.6437 C.ar    1  UNL1        0.0082
      8 C          49.2613   14.1554  -25.1652 C.ar    1  UNL1        0.0181
      9 C          48.5608   15.3541  -25.0321 C.ar    1  UNL1        0.0230
     10 C          48.8682   16.7008  -25.3299 C.ar    1  UNL1        0.0377
     11 I          50.7170   17.3196  -26.1860 I       1  UNL1       -0.0420
     12 C          47.8803   17.6759  -25.0381 C.ar    1  UNL1        0.0400
     13 BR         48.1549   19.5425  -25.3870 Br      1  UNL1       -0.0486
     14 C          46.6464   17.3008  -24.4730 C.ar    1  UNL1        0.0086
     15 C          46.3652   15.9611  -24.1878 C.ar    1  UNL1        0.0177
     16 C          47.3372   15.0024  -24.4763 C.ar    1  UNL1        0.0604
     17 C          46.1162   12.9433  -23.6634 C.3     1  UNL1        0.1429
     18 C          44.9901   12.7092  -24.6808 C.3     1  UNL1        0.2027
     19 F          44.5624   13.9380  -25.1533 F       1  UNL1       -0.2334
     20 C          45.4466   11.8297  -25.8536 C.3     1  UNL1        0.1259
     21 N          46.0224   12.6496  -26.9188 N.pl3   1  UNL1       -0.3157
     22 H          46.2822   13.6367  -26.6928 H       1  UNL1        0.1483
     23 C          46.1006   12.5664  -30.6107 C.ar    1  UNL1        0.2261
     24 C          46.5379   11.2644  -30.8677 C.ar    1  UNL1        0.0578
     25 C          46.8084   10.4092  -29.7979 C.ar    1  UNL1        0.0077
     26 C          46.6400   10.8592  -28.4869 C.ar    1  UNL1        0.0343
     27 C          46.1988   12.1697  -28.2604 C.ar    1  UNL1        0.1317
     28 N          45.9450   12.9837  -29.3230 N.ar    1  UNL1       -0.1969
     29 C          45.1466   12.9972  -32.8527 C.3     1  UNL1        0.2542
     30 O          45.8268   13.4254  -31.6787 O.3     1  UNL1       -0.4561
@<TRIPOS>BOND
     1    29    30    1
     2    30    23    1
     3    23    24   ar
     4    24    25   ar
     5    25    26   ar
     6    26    27   ar
     7    27    21    1
     8    21    20    1
     9    20    18    1
    10    18    19    1
    11    18    17    1
    12    17     1    1
    13     1     2   ar
    14     2     3   ar
    15     3     4   ar
    16     4     5   ar
    17     5     6    1
    18     5     7   ar
    19     7     8   ar
    20     8     9   ar
    21     9    10   ar
    22    10    11    1
    23    10    12   ar
    24    12    13    1
    25    12    14   ar
    26    14    15   ar
    27    15    16   ar
    28    27    28   ar
    29    28    23   ar
    30    16     1   ar
    31     8     2   ar
    32    16     9   ar
    33    21    22    1
@<TRIPOS>MOLECULE
*****
 30 33 0 0 0
SMALL
GASTEIGER

@<TRIPOS>ATOM
      1 N          47.1887   13.5350  -25.9872 N.ar    1  UNL1       -0.3243
      2 C          48.4524   13.0646  -25.8621 C.ar    1  UNL1        0.0600
      3 C          48.8626   11.7263  -25.8315 C.ar    1  UNL1        0.0177
      4 C          50.2296   11.4516  -25.6831 C.ar    1  UNL1        0.0082
      5 C          51.1604   12.5015  -25.5665 C.ar    1  UNL1        0.0347
      6 BR         53.0172   12.1034  -25.3631 Br      1  UNL1       -0.0490
      7 C          50.7325   13.8397  -25.5945 C.ar    1  UNL1        0.0082
      8 C          49.3648   14.1014  -25.7435 C.ar    1  UNL1        0.0181
      9 C          48.6274   15.2841  -25.7937 C.ar    1  UNL1        0.0230
     10 C          48.9734   16.6522  -25.7201 C.ar    1  UNL1        0.0377
     11 I          50.9749   17.3451  -25.5020 I       1  UNL1       -0.0420
     12 C          47.9189   17.5976  -25.7996 C.ar    1  UNL1        0.0400
     13 BR         48.2352   19.4881  -25.7139 Br      1  UNL1       -0.0486
     14 C          46.5843   17.1735  -25.9454 C.ar    1  UNL1        0.0086
     15 C          46.2669   15.8136  -26.0166 C.ar    1  UNL1        0.0177
     16 C          47.3050   14.8843  -25.9394 C.ar    1  UNL1        0.0604
     17 C          45.9461   12.7583  -26.0971 C.3     1  UNL1        0.1429
     18 C          45.0881   12.8902  -24.8304 C.3     1  UNL1        0.2027
     19 F          43.8935   12.2222  -25.0374 F       1  UNL1       -0.2334
     20 C          45.7962   12.3211  -23.5927 C.3     1  UNL1        0.1259
     21 N          46.4503   13.3887  -22.8370 N.pl3   1  UNL1       -0.3157
     22 H          45.8736   14.2124  -22.5512 H       1  UNL1        0.1483
     23 C          49.8505   12.1283  -22.1346 C.ar    1  UNL1        0.2261
     24 C          50.5615   13.3089  -21.9043 C.ar    1  UNL1        0.0578
     25 C          49.8981   14.5346  -21.9849 C.ar    1  UNL1        0.0077
     26 C          48.5367   14.5706  -22.2927 C.ar    1  UNL1        0.0343
     27 C          47.8498   13.3700  -22.5172 C.ar    1  UNL1        0.1317
     28 N          48.5228   12.1883  -22.4349 N.ar    1  UNL1       -0.1969
     29 C          49.8530    9.6586  -22.2857 C.3     1  UNL1        0.2542
     30 O          50.5102   10.8988  -22.0530 O.3     1  UNL1       -0.4561
@<TRIPOS>BOND
     1    29    30    1
     2    30    23    1
     3    23    24   ar
     4    24    25   ar
     5    25    26   ar
     6    26    27   ar
     7    27    21    1
     8    21    20    1
     9    20    18    1
    10    18    19    1
    11    18    17    1
    12    17     1    1
    13     1     2   ar
    14     2     3   ar
    15     3     4   ar
    16     4     5   ar
    17     5     6    1
    18     5     7   ar
    19     7     8   ar
    20     8     9   ar
    21     9    10   ar
    22    10    11    1
    23    10    12   ar
    24    12    13    1
    25    12    14   ar
    26    14    15   ar
    27    15    16   ar
    28    27    28   ar
    29    28    23   ar
    30    16     1   ar
    31     8     2   ar
    32    16     9   ar
    33    21    22    1
@<TRIPOS>MOLECULE
*****
 30 33 0 0 0
SMALL
GASTEIGER

@<TRIPOS>ATOM
      1 N          47.4328   13.4109  -26.2890 N.ar    1  UNL1       -0.3243
      2 C          48.6698   12.9851  -25.9395 C.ar    1  UNL1        0.0600
      3 C          49.0747   11.6702  -25.6795 C.ar    1  UNL1        0.0177
      4 C          50.4108   11.4433  -25.3194 C.ar    1  UNL1        0.0082
      5 C          51.3162   12.5171  -25.2219 C.ar    1  UNL1        0.0347
      6 BR         53.1308   12.1843  -24.7277 Br      1  UNL1       -0.0490
      7 C          50.8935   13.8318  -25.4816 C.ar    1  UNL1        0.0082
      8 C          49.5568   14.0456  -25.8407 C.ar    1  UNL1        0.0181
      9 C          48.8304   15.1974  -26.1420 C.ar    1  UNL1        0.0230
     10 C          49.1613   16.5698  -26.2049 C.ar    1  UNL1        0.0377
     11 I          51.1155   17.3232  -25.8212 I       1  UNL1       -0.0420
     12 C          48.1248   17.4765  -26.5450 C.ar    1  UNL1        0.0400
     13 BR         48.4237   19.3676  -26.6688 Br      1  UNL1       -0.0486
     14 C          46.8217   17.0116  -26.8062 C.ar    1  UNL1        0.0086
     15 C          46.5188   15.6482  -26.7383 C.ar    1  UNL1        0.0177
     16 C          47.5393   14.7569  -26.4048 C.ar    1  UNL1        0.0604
     17 C          46.2168   12.6030  -26.4565 C.3     1  UNL1        0.1429
     18 C          45.3562   12.6139  -25.1847 C.3     1  UNL1        0.2027
     19 F          44.1390   12.0211  -25.4727 F       1  UNL1       -0.2334
     20 C          46.0348   11.8739  -24.0232 C.3     1  UNL1        0.1259
     21 N          46.1612   12.7491  -22.8585 N.pl3   1  UNL1       -0.3157
     22 H          45.4371   12.6757  -22.1081 H       1  UNL1        0.1483
     23 C          47.9277   15.9924  -22.9207 C.ar    1  UNL1        0.2261
     24 C          49.2077   15.6401  -22.4848 C.ar    1  UNL1        0.0578
     25 C          49.4807   14.3082  -22.1679 C.ar    1  UNL1        0.0077
     26 C          48.4782   13.3440  -22.2892 C.ar    1  UNL1        0.0343
     27 C          47.2045   13.7271  -22.7302 C.ar    1  UNL1        0.1317
     28 N          46.9650   15.0344  -23.0298 N.ar    1  UNL1       -0.1969
     29 C          46.3495   17.8876  -23.1201 C.3     1  UNL1        0.2542
     30 O          47.6504   17.3243  -23.2409 O.3     1  UNL1       -0.4561
@<TRIPOS>BOND
     1    29    30    1
     2    30    23    1
     3    23    24   ar
     4    24    25   ar
     5    25    26   ar
     6    26    27   ar
     7    27    21    1
     8    21    20    1
     9    20    18    1
    10    18    19    1
    11    18    17    1
    12    17     1    1
    13     1     2   ar
    14     2     3   ar
    15     3     4   ar
    16     4     5   ar
    17     5     6    1
    18     5     7   ar
    19     7     8   ar
    20     8     9   ar
    21     9    10   ar
    22    10    11    1
    23    10    12   ar
    24    12    13    1
    25    12    14   ar
    26    14    15   ar
    27    15    16   ar
    28    27    28   ar
    29    28    23   ar
    30    16     1   ar
    31     8     2   ar
    32    16     9   ar
    33    21    22    1
@<TRIPOS>MOLECULE
*****
 30 33 0 0 0
SMALL
GASTEIGER

@<TRIPOS>ATOM
      1 N          49.0384   10.2478  -22.2829 N.ar    1  UNL1       -0.3243
      2 C          49.7562   10.0239  -23.4091 C.ar    1  UNL1        0.0600
      3 C          50.9742    9.3424  -23.5198 C.ar    1  UNL1        0.0177
      4 C          51.5620    9.2299  -24.7880 C.ar    1  UNL1        0.0082
      5 C          50.9372    9.7931  -25.9170 C.ar    1  UNL1        0.0347
      6 BR         51.7573    9.6292  -27.6341 Br      1  UNL1       -0.0490
      7 C          49.7169   10.4781  -25.7890 C.ar    1  UNL1        0.0082
      8 C          49.1397   10.5834  -24.5174 C.ar    1  UNL1        0.0181
      9 C          47.9739   11.1936  -24.0547 C.ar    1  UNL1        0.0230
     10 C          46.9406   11.9240  -24.6837 C.ar    1  UNL1        0.0377
     11 I          46.8871   12.3145  -26.7761 I       1  UNL1       -0.0420
     12 C          45.8925   12.4121  -23.8619 C.ar    1  UNL1        0.0400
     13 BR         44.4230   13.4196  -24.5737 Br      1  UNL1       -0.0486
     14 C          45.8964   12.1706  -22.4748 C.ar    1  UNL1        0.0086
     15 C          46.9300   11.4443  -21.8754 C.ar    1  UNL1        0.0177
     16 C          47.9600   10.9635  -22.6848 C.ar    1  UNL1        0.0604
     17 C          49.3739    9.8519  -20.9082 C.3     1  UNL1        0.1429
     18 C          49.1258   10.9987  -19.9175 C.3     1  UNL1        0.2027
     19 F          48.8138   10.4539  -18.6839 F       1  UNL1       -0.2334
     20 C          50.3460   11.9214  -19.7865 C.3     1  UNL1        0.1259
     21 N          50.1606   13.1363  -20.5791 N.pl3   1  UNL1       -0.3157
     22 H          49.6399   13.9317  -20.1442 H       1  UNL1        0.1483
     23 C          52.2458   12.7446  -23.6027 C.ar    1  UNL1        0.2261
     24 C          51.5297   13.4780  -24.5524 C.ar    1  UNL1        0.0578
     25 C          50.3412   14.1074  -24.1779 C.ar    1  UNL1        0.0077
     26 C          49.8805   14.0001  -22.8642 C.ar    1  UNL1        0.0343
     27 C          50.6209   13.2589  -21.9335 C.ar    1  UNL1        0.1317
     28 N          51.7758   12.6527  -22.3271 N.ar    1  UNL1       -0.1969
     29 C          53.8613   12.0101  -25.3269 C.3     1  UNL1        0.2542
     30 O          53.4372   12.1145  -23.9728 O.3     1  UNL1       -0.4561
@<TRIPOS>BOND
     1    29    30    1
     2    30    23    1
     3    23    24   ar
     4    24    25   ar
     5    25    26   ar
     6    26    27   ar
     7    27    21    1
     8    21    20    1
     9    20    18    1
    10    18    19    1
    11    18    17    1
    12    17     1    1
    13     1     2   ar
    14     2     3   ar
    15     3     4   ar
    16     4     5   ar
    17     5     6    1
    18     5     7   ar
    19     7     8   ar
    20     8     9   ar
    21     9    10   ar
    22    10    11    1
    23    10    12   ar
    24    12    13    1
    25    12    14   ar
    26    14    15   ar
    27    15    16   ar
    28    27    28   ar
    29    28    23   ar
    30    16     1   ar
    31     8     2   ar
    32    16     9   ar
    33    21    22    1
@<TRIPOS>MOLECULE
*****
 30 33 0 0 0
SMALL
GASTEIGER

@<TRIPOS>ATOM
      1 N          50.2607   13.4508  -22.4560 N.ar    1  UNL1       -0.3243
      2 C          50.9739   12.9775  -23.5054 C.ar    1  UNL1        0.0600
      3 C          52.3672   12.9128  -23.6267 C.ar    1  UNL1        0.0177
      4 C          52.9095   12.3928  -24.8107 C.ar    1  UNL1        0.0082
      5 C          52.0667   11.9506  -25.8482 C.ar    1  UNL1        0.0347
      6 BR         52.8278   11.2480  -27.4528 Br      1  UNL1       -0.0490
      7 C          50.6700   12.0263  -25.7132 C.ar    1  UNL1        0.0082
      8 C          50.1404   12.5471  -24.5259 C.ar    1  UNL1        0.0181
      9 C          48.8345   12.7684  -24.0891 C.ar    1  UNL1        0.0230
     10 C          47.5634   12.5499  -24.6665 C.ar    1  UNL1        0.0377
     11 I          47.2841   11.6993  -26.5984 I       1  UNL1       -0.0420
     12 C          46.4269   12.9209  -23.9032 C.ar    1  UNL1        0.0400
     13 BR         44.6382   12.6845  -24.5558 Br      1  UNL1       -0.0486
     14 C          46.5760   13.4847  -22.6217 C.ar    1  UNL1        0.0086
     15 C          47.8447   13.6906  -22.0711 C.ar    1  UNL1        0.0177
     16 C          48.9621   13.3242  -22.8223 C.ar    1  UNL1        0.0604
     17 C          50.7742   14.0295  -21.2067 C.3     1  UNL1        0.1429
     18 C          51.7327   13.0647  -20.4936 C.3     1  UNL1        0.2027
     19 F          52.8820   13.7577  -20.1546 F       1  UNL1       -0.2334
     20 C          51.1027   12.4520  -19.2347 C.3     1  UNL1        0.1259
     21 N          50.8000   11.0370  -19.4464 N.pl3   1  UNL1       -0.3157
     22 H          51.3546   10.3307  -18.9112 H       1  UNL1        0.1483
     23 C          49.2859    9.6258  -22.5056 C.ar    1  UNL1        0.2261
     24 C          47.9200    9.6986  -22.2200 C.ar    1  UNL1        0.0578
     25 C          47.5037   10.2235  -20.9952 C.ar    1  UNL1        0.0077
     26 C          48.4503   10.6696  -20.0709 C.ar    1  UNL1        0.0343
     27 C          49.8131   10.5851  -20.3860 C.ar    1  UNL1        0.1317
     28 N          50.1913   10.0659  -21.5875 N.ar    1  UNL1       -0.1969
     29 C          51.0713    8.8140  -24.0142 C.3     1  UNL1        0.2542
     30 O          49.7072    9.1029  -23.7314 O.3     1  UNL1       -0.4561
@<TRIPOS>BOND
     1    29    30    1
     2    30    23    1
     3    23    24   ar
     4    24    25   ar
     5    25    26   ar
     6    26    27   ar
     7    27    21    1
     8    21    20    1
     9    20    18    1
    10    18    19    1
    11    18    17    1
    12    17     1    1
    13     1     2   ar
    14     2     3   ar
    15     3     4   ar
    16     4     5   ar
    17     5     6    1
    18     5     7   ar
    19     7     8   ar
    20     8     9   ar
    21     9    10   ar
    22    10    11    1
    23    10    12   ar
    24    12    13    1
    25    12    14   ar
    26    14    15   ar
    27    15    16   ar
    28    27    28   ar
    29    28    23   ar
    30    16     1   ar
    31     8     2   ar
    32    16     9   ar
    33    21    22    1
@<TRIPOS>MOLECULE
*****
 30 33 0 0 0
SMALL
GASTEIGER

@<TRIPOS>ATOM
      1 N          47.5645   12.2961  -24.7874 N.ar    1  UNL1       -0.3243
      2 C          47.3746   13.5349  -24.2745 C.ar    1  UNL1        0.0600
      3 C          47.6219   13.9597  -22.9635 C.ar    1  UNL1        0.0177
      4 C          47.3448   15.2937  -22.6318 C.ar    1  UNL1        0.0082
      5 C          46.8289   16.1775  -23.5987 C.ar    1  UNL1        0.0347
      6 BR         46.4571   17.9896  -23.1236 Br      1  UNL1       -0.0490
      7 C          46.5818   15.7349  -24.9093 C.ar    1  UNL1        0.0082
      8 C          46.8629   14.4006  -25.2285 C.ar    1  UNL1        0.0181
      9 C          46.7225   13.6580  -26.4008 C.ar    1  UNL1        0.0230
     10 C          46.2549   13.9646  -27.6985 C.ar    1  UNL1        0.0377
     11 I          45.5719   15.8981  -28.2721 I       1  UNL1       -0.0420
     12 C          46.2500   12.9173  -28.6552 C.ar    1  UNL1        0.0400
     13 BR         45.6434   13.1833  -30.4558 Br      1  UNL1       -0.0486
     14 C          46.6962   11.6274  -28.3094 C.ar    1  UNL1        0.0086
     15 C          47.1552   11.3486  -27.0184 C.ar    1  UNL1        0.0177
     16 C          47.1607   12.3798  -26.0783 C.ar    1  UNL1        0.0604
     17 C          48.0517   11.0981  -24.0896 C.3     1  UNL1        0.1429
     18 C          49.5685   11.1611  -23.8586 C.3     1  UNL1        0.2027
     19 F          49.9457   10.0571  -23.1137 F       1  UNL1       -0.2334
     20 C          50.3518   11.1919  -25.1787 C.3     1  UNL1        0.1259
     21 N          51.3349   12.2745  -25.1693 N.pl3   1  UNL1       -0.3157
     22 H          52.3467   12.0197  -25.2342 H       1  UNL1        0.1483
     23 C          50.0763   15.6495  -25.9872 C.ar    1  UNL1        0.2261
     24 C          50.2487   16.3299  -24.7790 C.ar    1  UNL1        0.0578
     25 C          50.7895   15.6542  -23.6836 C.ar    1  UNL1        0.0077
     26 C          51.1526   14.3113  -23.8039 C.ar    1  UNL1        0.0343
     27 C          50.9692   13.6557  -25.0287 C.ar    1  UNL1        0.1317
     28 N          50.4365   14.3387  -26.0803 N.ar    1  UNL1       -0.1969
     29 C          49.0524   17.6579  -27.0070 C.3     1  UNL1        0.2542
     30 O          49.5370   16.3226  -27.0869 O.3     1  UNL1       -0.4561
@<TRIPOS>BOND
     1    29    30    1
     2    30    23    1
     3    23    24   ar
     4    24    25   ar
     5    25    26   ar
     6    26    27   ar
     7    27    21    1
     8    21    20    1
     9    20    18    1
    10    18    19    1
    11    18    17    1
    12    17     1    1
    13     1     2   ar
    14     2     3   ar
    15     3     4   ar
    16     4     5   ar
    17     5     6    1
    18     5     7   ar
    19     7     8   ar
    20     8     9   ar
    21     9    10   ar
    22    10    11    1
    23    10    12   ar
    24    12    13    1
    25    12    14   ar
    26    14    15   ar
    27    15    16   ar
    28    27    28   ar
    29    28    23   ar
    30    16     1   ar
    31     8     2   ar
    32    16     9   ar
    33    21    22    1
@<TRIPOS>MOLECULE
*****
 30 33 0 0 0
SMALL
GASTEIGER

@<TRIPOS>ATOM
      1 N          49.1945   10.3377  -22.4012 N.ar    1  UNL1       -0.3243
      2 C          49.9204   10.2017  -23.5363 C.ar    1  UNL1        0.0600
      3 C          51.1804    9.6069  -23.6739 C.ar    1  UNL1        0.0177
      4 C          51.7684    9.5784  -24.9466 C.ar    1  UNL1        0.0082
      5 C          51.1023   10.1380  -26.0535 C.ar    1  UNL1        0.0347
      6 BR         51.9235   10.0895  -27.7772 Br      1  UNL1       -0.0490
      7 C          49.8400   10.7355  -25.8985 C.ar    1  UNL1        0.0082
      8 C          49.2629   10.7575  -24.6226 C.ar    1  UNL1        0.0181
      9 C          48.0614   11.2722  -24.1360 C.ar    1  UNL1        0.0230
     10 C          46.9790   11.9539  -24.7363 C.ar    1  UNL1        0.0377
     11 I          46.8899   12.4132  -26.8135 I       1  UNL1       -0.0420
     12 C          45.9047   12.3421  -23.8954 C.ar    1  UNL1        0.0400
     13 BR         44.3682   13.2740  -24.5677 Br      1  UNL1       -0.0486
     14 C          45.9310   12.0529  -22.5177 C.ar    1  UNL1        0.0086
     15 C          47.0134   11.3763  -21.9468 C.ar    1  UNL1        0.0177
     16 C          48.0692   10.9938  -22.7750 C.ar    1  UNL1        0.0604
     17 C          49.5621    9.9169  -21.0421 C.3     1  UNL1        0.1429
     18 C          49.4724   11.0851  -20.0494 C.3     1  UNL1        0.2027
     19 F          49.5426   10.5760  -18.7642 F       1  UNL1       -0.2334
     20 C          50.5930   12.1122  -20.2654 C.3     1  UNL1        0.1259
     21 N          50.0335   13.4329  -20.5501 N.pl3   1  UNL1       -0.3157
     22 H          49.7723   14.0406  -19.7405 H       1  UNL1        0.1483
     23 C          48.3496   14.9924  -23.4442 C.ar    1  UNL1        0.2261
     24 C          49.2936   14.8251  -24.4607 C.ar    1  UNL1        0.0578
     25 C          50.5016   14.1863  -24.1750 C.ar    1  UNL1        0.0077
     26 C          50.7549   13.7215  -22.8830 C.ar    1  UNL1        0.0343
     27 C          49.7885   13.9025  -21.8846 C.ar    1  UNL1        0.1317
     28 N          48.6196   14.5320  -22.1906 N.ar    1  UNL1       -0.1969
     29 C          46.8950   16.9936  -23.4024 C.3     1  UNL1        0.2542
     30 O          47.1380   15.6297  -23.7262 O.3     1  UNL1       -0.4561
@<TRIPOS>BOND
     1    29    30    1
     2    30    23    1
     3    23    24   ar
     4    24    25   ar
     5    25    26   ar
     6    26    27   ar
     7    27    21    1
     8    21    20    1
     9    20    18    1
    10    18    19    1
    11    18    17    1
    12    17     1    1
    13     1     2   ar
    14     2     3   ar
    15     3     4   ar
    16     4     5   ar
    17     5     6    1
    18     5     7   ar
    19     7     8   ar
    20     8     9   ar
    21     9    10   ar
    22    10    11    1
    23    10    12   ar
    24    12    13    1
    25    12    14   ar
    26    14    15   ar
    27    15    16   ar
    28    27    28   ar
    29    28    23   ar
    30    16     1   ar
    31     8     2   ar
    32    16     9   ar
    33    21    22    1
@<TRIPOS>MOLECULE
*****
 30 33 0 0 0
SMALL
GASTEIGER

@<TRIPOS>ATOM
      1 N          46.1354   13.5061  -24.2630 N.ar    1  UNL1       -0.3243
      2 C          46.1163   13.0761  -25.5469 C.ar    1  UNL1        0.0600
      3 C          45.8435   11.7820  -26.0063 C.ar    1  UNL1        0.0177
      4 C          45.8862   11.5423  -27.3873 C.ar    1  UNL1        0.0082
      5 C          46.1986   12.5825  -28.2832 C.ar    1  UNL1        0.0347
      6 BR         46.2531   12.2323  -30.1599 Br      1  UNL1       -0.0490
      7 C          46.4745   13.8752  -27.8062 C.ar    1  UNL1        0.0082
      8 C          46.4283   14.1022  -26.4250 C.ar    1  UNL1        0.0181
      9 C          46.6585   15.2344  -25.6437 C.ar    1  UNL1        0.0230
     10 C          47.0160   16.5684  -25.9424 C.ar    1  UNL1        0.0377
     11 I          47.3168   17.2857  -27.9245 I       1  UNL1       -0.0420
     12 C          47.1760   17.4613  -24.8519 C.ar    1  UNL1        0.0400
     13 BR         47.6594   19.3011  -25.1024 Br      1  UNL1       -0.0486
     14 C          46.9834   17.0201  -23.5288 C.ar    1  UNL1        0.0086
     15 C          46.6291   15.6948  -23.2585 C.ar    1  UNL1        0.0177
     16 C          46.4708   14.8174  -24.3319 C.ar    1  UNL1        0.0604
     17 C          45.8985   12.7173  -23.0460 C.3     1  UNL1        0.1429
     18 C          47.0596   12.8584  -22.0510 C.3     1  UNL1        0.2027
     19 F          46.6370   12.4008  -20.8148 F       1  UNL1       -0.2334
     20 C          48.3018   12.0756  -22.5000 C.3     1  UNL1        0.1259
     21 N          49.4700   12.9533  -22.5599 N.pl3   1  UNL1       -0.3157
     22 H          50.0743   13.0253  -21.7099 H       1  UNL1        0.1483
     23 C          50.4127   15.8514  -24.6469 C.ar    1  UNL1        0.2261
     24 C          50.4126   15.3026  -25.9319 C.ar    1  UNL1        0.0578
     25 C          50.0951   13.9536  -26.1004 C.ar    1  UNL1        0.0077
     26 C          49.7811   13.1682  -24.9896 C.ar    1  UNL1        0.0343
     27 C          49.7881   13.7468  -23.7133 C.ar    1  UNL1        0.1317
     28 N          50.1045   15.0650  -23.5777 N.ar    1  UNL1       -0.1969
     29 C          51.1658   18.0309  -25.5440 C.3     1  UNL1        0.2542
     30 O          50.7280   17.2019  -24.4737 O.3     1  UNL1       -0.4561
@<TRIPOS>BOND
     1    29    30    1
     2    30    23    1
     3    23    24   ar
     4    24    25   ar
     5    25    26   ar
     6    26    27   ar
     7    27    21    1
     8    21    20    1
     9    20    18    1
    10    18    19    1
    11    18    17    1
    12    17     1    1
    13     1     2   ar
    14     2     3   ar
    15     3     4   ar
    16     4     5   ar
    17     5     6    1
    18     5     7   ar
    19     7     8   ar
    20     8     9   ar
    21     9    10   ar
    22    10    11    1
    23    10    12   ar
    24    12    13    1
    25    12    14   ar
    26    14    15   ar
    27    15    16   ar
    28    27    28   ar
    29    28    23   ar
    30    16     1   ar
    31     8     2   ar
    32    16     9   ar
    33    21    22    1
@<TRIPOS>MOLECULE
*****
 30 33 0 0 0
SMALL
GASTEIGER

@<TRIPOS>ATOM
      1 N          46.7038   14.0370  -23.7178 N.ar    1  UNL1       -0.3243
      2 C          47.6293   14.9389  -24.1224 C.ar    1  UNL1        0.0600
      3 C          47.5573   15.7930  -25.2294 C.ar    1  UNL1        0.0177
      4 C          48.6379   16.6508  -25.4807 C.ar    1  UNL1        0.0082
      5 C          49.7647   16.6457  -24.6366 C.ar    1  UNL1        0.0347
      6 BR         51.2256   17.8212  -24.9995 Br      1  UNL1       -0.0490
      7 C          49.8239   15.7793  -23.5318 C.ar    1  UNL1        0.0082
      8 C          48.7385   14.9277  -23.2911 C.ar    1  UNL1        0.0181
      9 C          48.4915   13.9616  -22.3160 C.ar    1  UNL1        0.0230
     10 C          49.2289   13.4826  -21.2099 C.ar    1  UNL1        0.0377
     11 I          51.1505   14.2253  -20.6717 I       1  UNL1       -0.0420
     12 C          48.6408   12.4551  -20.4286 C.ar    1  UNL1        0.0400
     13 BR         49.5226   11.7059  -18.8981 Br      1  UNL1       -0.0486
     14 C          47.3710   11.9423  -20.7559 C.ar    1  UNL1        0.0086
     15 C          46.6602   12.4332  -21.8553 C.ar    1  UNL1        0.0177
     16 C          47.2390   13.4448  -22.6227 C.ar    1  UNL1        0.0604
     17 C          45.4167   13.7215  -24.3530 C.3     1  UNL1        0.1429
     18 C          45.4631   12.3653  -25.0717 C.3     1  UNL1        0.2027
     19 F          44.1726   12.0110  -25.4252 F       1  UNL1       -0.2334
     20 C          46.3537   12.4056  -26.3217 C.3     1  UNL1        0.1259
     21 N          47.4173   11.4062  -26.2289 N.pl3   1  UNL1       -0.3157
     22 H          47.2463   10.4662  -26.6532 H       1  UNL1        0.1483
     23 C          50.1406   11.1403  -23.7478 C.ar    1  UNL1        0.2261
     24 C          51.0495   12.0992  -24.2027 C.ar    1  UNL1        0.0578
     25 C          50.7484   12.8392  -25.3475 C.ar    1  UNL1        0.0077
     26 C          49.5477   12.6169  -26.0246 C.ar    1  UNL1        0.0343
     27 C          48.6553   11.6494  -25.5438 C.ar    1  UNL1        0.1317
     28 N          48.9759   10.9398  -24.4258 N.ar    1  UNL1       -0.1969
     29 C          49.6799    9.2603  -22.2064 C.3     1  UNL1        0.2542
     30 O          50.4370   10.3985  -22.6009 O.3     1  UNL1       -0.4561
@<TRIPOS>BOND
     1    29    30    1
     2    30    23    1
     3    23    24   ar
     4    24    25   ar
     5    25    26   ar
     6    26    27   ar
     7    27    21    1
     8    21    20    1
     9    20    18    1
    10    18    19    1
    11    18    17    1
    12    17     1    1
    13     1     2   ar
    14     2     3   ar
    15     3     4   ar
    16     4     5   ar
    17     5     6    1
    18     5     7   ar
    19     7     8   ar
    20     8     9   ar
    21     9    10   ar
    22    10    11    1
    23    10    12   ar
    24    12    13    1
    25    12    14   ar
    26    14    15   ar
    27    15    16   ar
    28    27    28   ar
    29    28    23   ar
    30    16     1   ar
    31     8     2   ar
    32    16     9   ar
    33    21    22    1
