@<TRIPOS>MOLECULE
*****
 44 49 0 0 0
SMALL
GASTEIGER

@<TRIPOS>ATOM
      1 C         -26.0690   51.3359  -10.2074 C.ar    1  UNL1        0.0702
      2 C         -25.4155   51.5470   -8.9832 C.ar    1  UNL1        0.0191
      3 C         -24.0227   51.6227   -8.9391 C.ar    1  UNL1        0.0356
      4 C         -23.2844   51.4840  -10.1248 C.ar    1  UNL1        0.1318
      5 N         -23.9396   51.2725  -11.2987 N.ar    1  UNL1       -0.2279
      6 C         -25.2935   51.1796  -11.3631 C.ar    1  UNL1        0.1149
      7 N         -21.8544   51.6370  -10.1302 N.pl3   1  UNL1       -0.2932
      8 C         -21.1002   51.8558   -8.8904 C.3     1  UNL1        0.0923
      9 C         -20.5884   53.3091   -8.8177 C.3     1  UNL1        0.0252
     10 C         -20.6489   54.0262  -10.1868 C.3     1  UNL1        0.0472
     11 C         -20.2115   53.0700  -11.3159 C.3     1  UNL1        0.0252
     12 C         -21.1572   51.8538  -11.4062 C.3     1  UNL1        0.0923
     13 C         -19.8050   55.3146  -10.1751 C.3     1  UNL1        0.2054
     14 O         -20.3310   56.2577   -9.2390 O.3     1  UNL1       -0.4755
     15 C         -19.5723   56.9670   -8.2909 C.ar    1  UNL1        0.1388
     16 C         -18.8966   56.2386   -7.3062 C.ar    1  UNL1        0.0369
     17 C         -18.1271   56.8936   -6.3427 C.ar    1  UNL1        0.0033
     18 C         -18.0243   58.2859   -6.3538 C.ar    1  UNL1        0.0066
     19 C         -18.6894   59.0401   -7.3339 C.ar    1  UNL1        0.0785
     20 C         -19.4697   58.3738   -8.2958 C.ar    1  UNL1        0.0433
     21 C         -18.5712   60.5152   -7.3518 C.2     1  UNL1        0.3381
     22 O         -19.5634   61.2394   -7.0675 O.2     1  UNL1       -0.2451
     23 O         -17.3615   61.1186   -7.6812 O.3     1  UNL1       -0.4771
     24 H         -17.2710   62.1274   -7.7006 H       1  UNL1        0.2954
     25 C         -28.2900   50.1703   -9.8187 C.2     1  UNL1        0.2839
     26 O         -29.2141   49.7210  -10.5469 O.2     1  UNL1       -0.2665
     27 N         -27.5013   51.2659  -10.3012 N.am    1  UNL1       -0.2766
     28 H         -27.9964   52.0142  -10.8372 H       1  UNL1        0.1553
     29 C         -27.1448   47.2013   -9.1042 C.3     1  UNL1        0.0345
     30 C         -27.6059   48.2847   -8.1764 C.ar    1  UNL1        0.0202
     31 C         -28.0860   49.5661   -8.4853 C.ar    1  UNL1        0.1946
     32 O         -28.3049   50.2427   -7.3711 O.2     1  UNL1       -0.4492
     33 C         -28.0034   49.4668   -6.3593 C.ar    1  UNL1        0.1452
     34 C         -28.0569   49.7831   -5.0068 C.ar    1  UNL1        0.0375
     35 C         -27.6396   48.8085   -4.0837 C.ar    1  UNL1        0.0031
     36 C         -27.1941   47.5305   -4.5212 C.ar    1  UNL1        0.0002
     37 C         -27.1747   47.2454   -5.9092 C.ar    1  UNL1        0.0028
     38 C         -27.5778   48.2436   -6.7964 C.ar    1  UNL1        0.0337
     39 C         -26.7498   46.5070   -3.5355 C.ar    1  UNL1        0.0000
     40 C         -25.4155   46.0541   -3.5228 C.ar    1  UNL1        0.0000
     41 C         -25.0064   45.0747   -2.6131 C.ar    1  UNL1        0.0000
     42 C         -25.9189   44.5374   -1.7037 C.ar    1  UNL1        0.0000
     43 C         -27.2423   44.9814   -1.6989 C.ar    1  UNL1        0.0000
     44 C         -27.6574   45.9613   -2.6054 C.ar    1  UNL1        0.0000
@<TRIPOS>BOND
     1    29    30    1
     2    30    31   ar
     3    31    25    1
     4    25    26    2
     5    25    27   am
     6    27     1    1
     7     1     2   ar
     8     2     3   ar
     9     3     4   ar
    10     4     7    1
    11     7     8    1
    12     8     9    1
    13     9    10    1
    14    10    13    1
    15    13    14    1
    16    14    15    1
    17    15    16   ar
    18    16    17   ar
    19    17    18   ar
    20    18    19   ar
    21    19    21    1
    22    21    22    2
    23    21    23    1
    24    19    20   ar
    25    10    11    1
    26    11    12    1
    27     4     5   ar
    28     5     6   ar
    29    31    32   ar
    30    32    33   ar
    31    33    34   ar
    32    34    35   ar
    33    35    36   ar
    34    36    39    1
    35    39    40   ar
    36    40    41   ar
    37    41    42   ar
    38    42    43   ar
    39    43    44   ar
    40    36    37   ar
    41    37    38   ar
    42    38    30   ar
    43     6     1   ar
    44    38    33   ar
    45    12     7    1
    46    44    39   ar
    47    20    15   ar
    48    27    28    1
    49    23    24    1
@<TRIPOS>MOLECULE
*****
 44 49 0 0 0
SMALL
GASTEIGER

@<TRIPOS>ATOM
      1 C         -26.3465   51.1273   -8.0017 C.ar    1  UNL1        0.0702
      2 C         -26.4914   52.0948   -9.0083 C.ar    1  UNL1        0.0191
      3 C         -25.4101   52.4147   -9.8304 C.ar    1  UNL1        0.0356
      4 C         -24.1806   51.7645   -9.6405 C.ar    1  UNL1        0.1318
      5 N         -24.0619   50.8354   -8.6532 N.ar    1  UNL1       -0.2279
      6 C         -25.0964   50.5194   -7.8311 C.ar    1  UNL1        0.1149
      7 N         -23.0688   52.0091  -10.5194 N.pl3   1  UNL1       -0.2932
      8 C         -21.7874   51.3139  -10.3494 C.3     1  UNL1        0.0923
      9 C         -20.7147   52.2813   -9.8085 C.3     1  UNL1        0.0252
     10 C         -21.1287   53.7644   -9.9543 C.3     1  UNL1        0.0472
     11 C         -21.8189   54.0001  -11.3140 C.3     1  UNL1        0.0252
     12 C         -23.1097   53.1623  -11.4302 C.3     1  UNL1        0.0923
     13 C         -19.9194   54.6987   -9.7619 C.3     1  UNL1        0.2054
     14 O         -20.3286   55.9518   -9.2098 O.3     1  UNL1       -0.4755
     15 C         -19.5831   56.7151   -8.2937 C.ar    1  UNL1        0.1388
     16 C         -18.8635   56.0402   -7.3020 C.ar    1  UNL1        0.0369
     17 C         -18.1049   56.7502   -6.3694 C.ar    1  UNL1        0.0033
     18 C         -18.0572   58.1446   -6.4186 C.ar    1  UNL1        0.0066
     19 C         -18.7672   58.8459   -7.4065 C.ar    1  UNL1        0.0785
     20 C         -19.5361   58.1242   -8.3371 C.ar    1  UNL1        0.0433
     21 C         -18.7074   60.3235   -7.4650 C.2     1  UNL1        0.3381
     22 O         -17.6422   60.9073   -7.8030 O.2     1  UNL1       -0.2451
     23 O         -19.8286   61.0845   -7.1489 O.3     1  UNL1       -0.4771
     24 H         -19.7972   62.0965   -7.1816 H       1  UNL1        0.2954
     25 C         -28.7692   50.4863   -7.5982 C.2     1  UNL1        0.2839
     26 O         -29.7393   50.9760   -6.9618 O.2     1  UNL1       -0.2665
     27 N         -27.4371   50.7566   -7.1423 N.am    1  UNL1       -0.2766
     28 H         -27.2777   50.7748   -6.1096 H       1  UNL1        0.1553
     29 C         -29.6513   51.3967  -10.6032 C.3     1  UNL1        0.0345
     30 C         -29.4462   50.0162  -10.0562 C.ar    1  UNL1        0.0202
     31 C         -29.0540   49.6271   -8.7667 C.ar    1  UNL1        0.1946
     32 O         -28.9073   48.3143   -8.7206 O.2     1  UNL1       -0.4492
     33 C         -29.1930   47.8321   -9.9049 C.ar    1  UNL1        0.1452
     34 C         -29.1425   46.5037  -10.3109 C.ar    1  UNL1        0.0375
     35 C         -29.4463   46.2110  -11.6519 C.ar    1  UNL1        0.0031
     36 C         -29.8128   47.2424  -12.5603 C.ar    1  UNL1        0.0002
     37 C         -29.8698   48.5805  -12.0972 C.ar    1  UNL1        0.0028
     38 C         -29.5431   48.8352  -10.7650 C.ar    1  UNL1        0.0337
     39 C         -30.1282   46.9223  -13.9796 C.ar    1  UNL1        0.0000
     40 C         -30.4226   45.6005  -14.3691 C.ar    1  UNL1        0.0000
     41 C         -30.6937   45.2978  -15.7068 C.ar    1  UNL1        0.0000
     42 C         -30.6785   46.3068  -16.6710 C.ar    1  UNL1        0.0000
     43 C         -30.3960   47.6224  -16.2994 C.ar    1  UNL1        0.0000
     44 C         -30.1251   47.9318  -14.9633 C.ar    1  UNL1        0.0000
@<TRIPOS>BOND
     1    29    30    1
     2    30    31   ar
     3    31    25    1
     4    25    26    2
     5    25    27   am
     6    27     1    1
     7     1     2   ar
     8     2     3   ar
     9     3     4   ar
    10     4     7    1
    11     7     8    1
    12     8     9    1
    13     9    10    1
    14    10    13    1
    15    13    14    1
    16    14    15    1
    17    15    16   ar
    18    16    17   ar
    19    17    18   ar
    20    18    19   ar
    21    19    21    1
    22    21    22    2
    23    21    23    1
    24    19    20   ar
    25    10    11    1
    26    11    12    1
    27     4     5   ar
    28     5     6   ar
    29    31    32   ar
    30    32    33   ar
    31    33    34   ar
    32    34    35   ar
    33    35    36   ar
    34    36    39    1
    35    39    40   ar
    36    40    41   ar
    37    41    42   ar
    38    42    43   ar
    39    43    44   ar
    40    36    37   ar
    41    37    38   ar
    42    38    30   ar
    43     6     1   ar
    44    38    33   ar
    45    12     7    1
    46    44    39   ar
    47    20    15   ar
    48    27    28    1
    49    23    24    1
@<TRIPOS>MOLECULE
*****
 44 49 0 0 0
SMALL
GASTEIGER

@<TRIPOS>ATOM
      1 C         -26.5505   51.6406  -10.2529 C.ar    1  UNL1        0.0702
      2 C         -25.6868   52.2692   -9.3421 C.ar    1  UNL1        0.0191
      3 C         -24.3386   52.4375   -9.6605 C.ar    1  UNL1        0.0356
      4 C         -23.8556   51.9722  -10.8936 C.ar    1  UNL1        0.1318
      5 N         -24.7101   51.3592  -11.7573 N.ar    1  UNL1       -0.2279
      6 C         -26.0228   51.1705  -11.4620 C.ar    1  UNL1        0.1149
      7 N         -22.4919   52.2001  -11.2896 N.pl3   1  UNL1       -0.2932
      8 C         -21.4025   51.3311  -10.8293 C.3     1  UNL1        0.0923
      9 C         -20.5252   52.0653   -9.7946 C.3     1  UNL1        0.0252
     10 C         -20.7596   53.5941   -9.7995 C.3     1  UNL1        0.0472
     11 C         -20.9101   54.1117  -11.2452 C.3     1  UNL1        0.0252
     12 C         -22.1315   53.4700  -11.9367 C.3     1  UNL1        0.0923
     13 C         -19.6346   54.3295   -9.0474 C.3     1  UNL1        0.2054
     14 O         -19.9334   55.7214   -8.9214 O.3     1  UNL1       -0.4755
     15 C         -19.2923   56.6108   -8.0408 C.ar    1  UNL1        0.1388
     16 C         -18.4888   56.0749   -7.0288 C.ar    1  UNL1        0.0369
     17 C         -17.8277   56.9139   -6.1296 C.ar    1  UNL1        0.0033
     18 C         -17.9625   58.2996   -6.2330 C.ar    1  UNL1        0.0066
     19 C         -18.7599   58.8630   -7.2424 C.ar    1  UNL1        0.0785
     20 C         -19.4297   58.0112   -8.1390 C.ar    1  UNL1        0.0433
     21 C         -18.8937   60.3323   -7.3584 C.2     1  UNL1        0.3381
     22 O         -17.9937   61.0137   -7.9201 O.2     1  UNL1       -0.2451
     23 O         -20.0167   60.9773   -6.8497 O.3     1  UNL1       -0.4771
     24 H         -20.1163   61.9829   -6.9201 H       1  UNL1        0.2954
     25 C         -28.5350   50.2191   -9.5573 C.2     1  UNL1        0.2839
     26 O         -29.6127   49.8484  -10.0931 O.2     1  UNL1       -0.2665
     27 N         -27.9483   51.4595   -9.9725 N.am    1  UNL1       -0.2766
     28 H         -28.5970   52.2542  -10.1723 H       1  UNL1        0.1553
     29 C         -29.7560   49.5246   -6.6139 C.3     1  UNL1        0.0345
     30 C         -28.4624   49.0820   -7.2287 C.ar    1  UNL1        0.0202
     31 C         -27.9449   49.3714   -8.5001 C.ar    1  UNL1        0.1946
     32 O         -26.8125   48.7145   -8.6825 O.2     1  UNL1       -0.4492
     33 C         -26.5636   48.0253   -7.5962 C.ar    1  UNL1        0.1452
     34 C         -25.4918   47.1710   -7.3647 C.ar    1  UNL1        0.0375
     35 C         -25.4442   46.4892   -6.1363 C.ar    1  UNL1        0.0031
     36 C         -26.4534   46.6833   -5.1529 C.ar    1  UNL1        0.0002
     37 C         -27.5174   47.5789   -5.4248 C.ar    1  UNL1        0.0028
     38 C         -27.5417   48.2229   -6.6621 C.ar    1  UNL1        0.0337
     39 C         -26.3960   45.9528   -3.8570 C.ar    1  UNL1        0.0000
     40 C         -25.2469   45.2217   -3.4952 C.ar    1  UNL1        0.0000
     41 C         -25.2046   44.5158   -2.2893 C.ar    1  UNL1        0.0000
     42 C         -26.3031   44.5320   -1.4284 C.ar    1  UNL1        0.0000
     43 C         -27.4457   45.2578   -1.7693 C.ar    1  UNL1        0.0000
     44 C         -27.4940   45.9667   -2.9733 C.ar    1  UNL1        0.0000
@<TRIPOS>BOND
     1    29    30    1
     2    30    31   ar
     3    31    25    1
     4    25    26    2
     5    25    27   am
     6    27     1    1
     7     1     2   ar
     8     2     3   ar
     9     3     4   ar
    10     4     7    1
    11     7     8    1
    12     8     9    1
    13     9    10    1
    14    10    13    1
    15    13    14    1
    16    14    15    1
    17    15    16   ar
    18    16    17   ar
    19    17    18   ar
    20    18    19   ar
    21    19    21    1
    22    21    22    2
    23    21    23    1
    24    19    20   ar
    25    10    11    1
    26    11    12    1
    27     4     5   ar
    28     5     6   ar
    29    31    32   ar
    30    32    33   ar
    31    33    34   ar
    32    34    35   ar
    33    35    36   ar
    34    36    39    1
    35    39    40   ar
    36    40    41   ar
    37    41    42   ar
    38    42    43   ar
    39    43    44   ar
    40    36    37   ar
    41    37    38   ar
    42    38    30   ar
    43     6     1   ar
    44    38    33   ar
    45    12     7    1
    46    44    39   ar
    47    20    15   ar
    48    27    28    1
    49    23    24    1
@<TRIPOS>MOLECULE
*****
 44 49 0 0 0
SMALL
GASTEIGER

@<TRIPOS>ATOM
      1 C         -30.8605   47.6996   -8.5850 C.ar    1  UNL1        0.0702
      2 C         -29.8691   46.7202   -8.7538 C.ar    1  UNL1        0.0191
      3 C         -29.5913   45.8227   -7.7219 C.ar    1  UNL1        0.0356
      4 C         -30.3076   45.9095   -6.5179 C.ar    1  UNL1        0.1318
      5 N         -31.2589   46.8721   -6.3747 N.ar    1  UNL1       -0.2279
      6 C         -31.5352   47.7662   -7.3596 C.ar    1  UNL1        0.1149
      7 N         -30.1056   44.9520   -5.4640 N.pl3   1  UNL1       -0.2932
      8 C         -31.1875   44.5821   -4.5439 C.3     1  UNL1        0.0923
      9 C         -30.9355   45.1795   -3.1443 C.3     1  UNL1        0.0252
     10 C         -29.4763   45.6583   -2.9601 C.3     1  UNL1        0.0472
     11 C         -28.4948   44.6545   -3.5998 C.3     1  UNL1        0.0252
     12 C         -28.7380   44.5369   -5.1193 C.3     1  UNL1        0.0923
     13 C         -29.1553   45.8970   -1.4727 C.3     1  UNL1        0.2054
     14 O         -28.6030   47.2002   -1.2751 O.3     1  UNL1       -0.4755
     15 C         -28.2151   48.0795   -2.3017 C.ar    1  UNL1        0.1388
     16 C         -26.8515   48.3457   -2.4641 C.ar    1  UNL1        0.0369
     17 C         -26.4126   49.2091   -3.4697 C.ar    1  UNL1        0.0033
     18 C         -27.3337   49.8162   -4.3254 C.ar    1  UNL1        0.0066
     19 C         -28.7078   49.5625   -4.1862 C.ar    1  UNL1        0.0785
     20 C         -29.1429   48.6985   -3.1653 C.ar    1  UNL1        0.0433
     21 C         -29.6829   50.1976   -5.1006 C.2     1  UNL1        0.3381
     22 O         -30.9196   50.0020   -4.9521 O.2     1  UNL1       -0.2451
     23 O         -29.2441   51.0199   -6.1337 O.3     1  UNL1       -0.4771
     24 H         -29.9028   51.4561   -6.7677 H       1  UNL1        0.2954
     25 C         -30.6265   49.9479   -9.7396 C.2     1  UNL1        0.2839
     26 O         -31.3909   50.9151   -9.9971 O.2     1  UNL1       -0.2665
     27 N         -31.1892   48.6343   -9.6259 N.am    1  UNL1       -0.2766
     28 H         -31.9550   48.3810  -10.2906 H       1  UNL1        0.1553
     29 C         -28.6290   51.4069  -11.8651 C.3     1  UNL1        0.0345
     30 C         -28.3154   50.8266  -10.5190 C.ar    1  UNL1        0.0202
     31 C         -29.1787   50.2109   -9.6005 C.ar    1  UNL1        0.1946
     32 O         -28.5181   49.9148   -8.4946 O.2     1  UNL1       -0.4492
     33 C         -27.2740   50.2948   -8.6509 C.ar    1  UNL1        0.1452
     34 C         -26.2396   50.2014   -7.7270 C.ar    1  UNL1        0.0375
     35 C         -24.9833   50.7186   -8.0878 C.ar    1  UNL1        0.0031
     36 C         -24.7732   51.3026   -9.3676 C.ar    1  UNL1        0.0002
     37 C         -25.8520   51.3588  -10.2849 C.ar    1  UNL1        0.0028
     38 C         -27.0891   50.8531   -9.8848 C.ar    1  UNL1        0.0337
     39 C         -23.4400   51.8515   -9.7381 C.ar    1  UNL1        0.0000
     40 C         -22.3749   51.8343   -8.8156 C.ar    1  UNL1        0.0000
     41 C         -21.1308   52.3731   -9.1566 C.ar    1  UNL1        0.0000
     42 C         -20.9313   52.9318  -10.4201 C.ar    1  UNL1        0.0000
     43 C         -21.9744   52.9494  -11.3475 C.ar    1  UNL1        0.0000
     44 C         -23.2205   52.4113  -11.0130 C.ar    1  UNL1        0.0000
@<TRIPOS>BOND
     1    29    30    1
     2    30    31   ar
     3    31    25    1
     4    25    26    2
     5    25    27   am
     6    27     1    1
     7     1     2   ar
     8     2     3   ar
     9     3     4   ar
    10     4     7    1
    11     7     8    1
    12     8     9    1
    13     9    10    1
    14    10    13    1
    15    13    14    1
    16    14    15    1
    17    15    16   ar
    18    16    17   ar
    19    17    18   ar
    20    18    19   ar
    21    19    21    1
    22    21    22    2
    23    21    23    1
    24    19    20   ar
    25    10    11    1
    26    11    12    1
    27     4     5   ar
    28     5     6   ar
    29    31    32   ar
    30    32    33   ar
    31    33    34   ar
    32    34    35   ar
    33    35    36   ar
    34    36    39    1
    35    39    40   ar
    36    40    41   ar
    37    41    42   ar
    38    42    43   ar
    39    43    44   ar
    40    36    37   ar
    41    37    38   ar
    42    38    30   ar
    43     6     1   ar
    44    38    33   ar
    45    12     7    1
    46    44    39   ar
    47    20    15   ar
    48    27    28    1
    49    23    24    1
@<TRIPOS>MOLECULE
*****
 44 49 0 0 0
SMALL
GASTEIGER

@<TRIPOS>ATOM
      1 C         -25.0537   50.9299   -9.3958 C.ar    1  UNL1        0.0702
      2 C         -24.6477   50.3468   -8.1852 C.ar    1  UNL1        0.0191
      3 C         -25.3962   50.5525   -7.0255 C.ar    1  UNL1        0.0356
      4 C         -26.5524   51.3465   -7.0800 C.ar    1  UNL1        0.1318
      5 N         -26.9221   51.9076   -8.2634 N.ar    1  UNL1       -0.2279
      6 C         -26.2004   51.7339   -9.4013 C.ar    1  UNL1        0.1149
      7 N         -27.3922   51.5140   -5.9245 N.pl3   1  UNL1       -0.2932
      8 C         -26.9532   51.0953   -4.5881 C.3     1  UNL1        0.0923
      9 C         -27.7197   49.8351   -4.1370 C.3     1  UNL1        0.0252
     10 C         -28.9828   49.5743   -4.9908 C.3     1  UNL1        0.0472
     11 C         -29.7122   50.8999   -5.2931 C.3     1  UNL1        0.0252
     12 C         -28.8111   51.8522   -6.1073 C.3     1  UNL1        0.0923
     13 C         -29.9145   48.5572   -4.3054 C.3     1  UNL1        0.2054
     14 O         -29.2270   47.8599   -3.2644 O.3     1  UNL1       -0.4755
     15 C         -28.5213   46.6544   -3.4262 C.ar    1  UNL1        0.1388
     16 C         -28.9423   45.7708   -4.4256 C.ar    1  UNL1        0.0369
     17 C         -28.2747   44.5617   -4.6301 C.ar    1  UNL1        0.0033
     18 C         -27.1772   44.2227   -3.8366 C.ar    1  UNL1        0.0066
     19 C         -26.7319   45.0939   -2.8293 C.ar    1  UNL1        0.0785
     20 C         -27.4149   46.3061   -2.6236 C.ar    1  UNL1        0.0433
     21 C         -25.5616   44.7390   -1.9958 C.2     1  UNL1        0.3381
     22 O         -24.4117   44.6638   -2.5074 O.2     1  UNL1       -0.2451
     23 O         -25.7186   44.4864   -0.6365 O.3     1  UNL1       -0.4771
     24 H         -24.9249   44.2386   -0.0579 H       1  UNL1        0.2954
     25 C         -23.4819   51.7231  -11.2242 C.2     1  UNL1        0.2839
     26 O         -23.5619   51.9061  -12.4677 O.2     1  UNL1       -0.2665
     27 N         -24.3216   50.7326  -10.6166 N.am    1  UNL1       -0.2766
     28 H         -24.4809   49.8469  -11.1481 H       1  UNL1        0.1553
     29 C         -23.0690   54.9582  -11.2161 C.3     1  UNL1        0.0345
     30 C         -22.3121   53.9072  -10.4614 C.ar    1  UNL1        0.0202
     31 C         -22.4997   52.5169  -10.4563 C.ar    1  UNL1        0.1946
     32 O         -21.6752   51.9572   -9.5880 O.2     1  UNL1       -0.4492
     33 C         -20.9577   52.9065   -9.0395 C.ar    1  UNL1        0.1452
     34 C         -19.9878   52.7698   -8.0533 C.ar    1  UNL1        0.0375
     35 C         -19.3689   53.9356   -7.5696 C.ar    1  UNL1        0.0031
     36 C         -19.7125   55.2147   -8.0883 C.ar    1  UNL1        0.0002
     37 C         -20.6934   55.3044   -9.1071 C.ar    1  UNL1        0.0028
     38 C         -21.2998   54.1281   -9.5486 C.ar    1  UNL1        0.0337
     39 C         -19.0544   56.4435   -7.5658 C.ar    1  UNL1        0.0000
     40 C         -18.0931   56.3618   -6.5387 C.ar    1  UNL1        0.0000
     41 C         -17.4947   57.5192   -6.0319 C.ar    1  UNL1        0.0000
     42 C         -17.8432   58.7702   -6.5435 C.ar    1  UNL1        0.0000
     43 C         -18.7881   58.8669   -7.5663 C.ar    1  UNL1        0.0000
     44 C         -19.3894   57.7132   -8.0781 C.ar    1  UNL1        0.0000
@<TRIPOS>BOND
     1    29    30    1
     2    30    31   ar
     3    31    25    1
     4    25    26    2
     5    25    27   am
     6    27     1    1
     7     1     2   ar
     8     2     3   ar
     9     3     4   ar
    10     4     7    1
    11     7     8    1
    12     8     9    1
    13     9    10    1
    14    10    13    1
    15    13    14    1
    16    14    15    1
    17    15    16   ar
    18    16    17   ar
    19    17    18   ar
    20    18    19   ar
    21    19    21    1
    22    21    22    2
    23    21    23    1
    24    19    20   ar
    25    10    11    1
    26    11    12    1
    27     4     5   ar
    28     5     6   ar
    29    31    32   ar
    30    32    33   ar
    31    33    34   ar
    32    34    35   ar
    33    35    36   ar
    34    36    39    1
    35    39    40   ar
    36    40    41   ar
    37    41    42   ar
    38    42    43   ar
    39    43    44   ar
    40    36    37   ar
    41    37    38   ar
    42    38    30   ar
    43     6     1   ar
    44    38    33   ar
    45    12     7    1
    46    44    39   ar
    47    20    15   ar
    48    27    28    1
    49    23    24    1
@<TRIPOS>MOLECULE
*****
 44 49 0 0 0
SMALL
GASTEIGER

@<TRIPOS>ATOM
      1 C         -24.9180   52.2622   -9.7803 C.ar    1  UNL1        0.0702
      2 C         -24.2691   51.3675   -8.9150 C.ar    1  UNL1        0.0191
      3 C         -22.8959   51.4815   -8.6940 C.ar    1  UNL1        0.0356
      4 C         -22.1722   52.4932   -9.3443 C.ar    1  UNL1        0.1318
      5 N         -22.8216   53.3442  -10.1846 N.ar    1  UNL1       -0.2279
      6 C         -24.1545   53.2423  -10.4268 C.ar    1  UNL1        0.1149
      7 N         -20.7728   52.6917   -9.0788 N.pl3   1  UNL1       -0.2932
      8 C         -20.1527   52.2231   -7.8338 C.3     1  UNL1        0.0923
      9 C         -19.8144   53.4155   -6.9157 C.3     1  UNL1        0.0252
     10 C         -19.8415   54.7668   -7.6676 C.3     1  UNL1        0.0472
     11 C         -19.2082   54.6179   -9.0667 C.3     1  UNL1        0.0252
     12 C         -20.0012   53.6117   -9.9271 C.3     1  UNL1        0.0923
     13 C         -19.1509   55.8718   -6.8464 C.3     1  UNL1        0.2054
     14 O         -18.8080   56.9829   -7.6773 O.3     1  UNL1       -0.4755
     15 C         -18.9898   58.3351   -7.3369 C.ar    1  UNL1        0.1388
     16 C         -18.5728   59.3087   -8.2508 C.ar    1  UNL1        0.0369
     17 C         -18.7328   60.6656   -7.9632 C.ar    1  UNL1        0.0033
     18 C         -19.3127   61.0643   -6.7575 C.ar    1  UNL1        0.0066
     19 C         -19.7433   60.1069   -5.8248 C.ar    1  UNL1        0.0785
     20 C         -19.5709   58.7421   -6.1177 C.ar    1  UNL1        0.0433
     21 C         -20.3681   60.5298   -4.5516 C.2     1  UNL1        0.3381
     22 O         -21.0914   59.7303   -3.8980 O.2     1  UNL1       -0.2451
     23 O         -20.1614   61.8155   -4.0613 O.3     1  UNL1       -0.4771
     24 H         -20.5877   62.1165   -3.1931 H       1  UNL1        0.2954
     25 C         -27.1534   51.0628   -9.6950 C.2     1  UNL1        0.2839
     26 O         -27.9926   50.6550  -10.5409 O.2     1  UNL1       -0.2665
     27 N         -26.3322   52.1906  -10.0254 N.am    1  UNL1       -0.2766
     28 H         -26.7784   52.9682  -10.5625 H       1  UNL1        0.1553
     29 C         -26.8425   47.8702   -9.1060 C.3     1  UNL1        0.0345
     30 C         -26.9596   49.0037   -8.1320 C.ar    1  UNL1        0.0202
     31 C         -27.0802   50.3778   -8.3874 C.ar    1  UNL1        0.1946
     32 O         -27.0699   51.0474   -7.2478 O.2     1  UNL1       -0.4492
     33 C         -26.9603   50.1824   -6.2698 C.ar    1  UNL1        0.1452
     34 C         -26.8820   50.4518   -4.9084 C.ar    1  UNL1        0.0375
     35 C         -26.7182   49.3674   -4.0290 C.ar    1  UNL1        0.0031
     36 C         -26.6538   48.0332   -4.5177 C.ar    1  UNL1        0.0002
     37 C         -26.7574   47.8043   -5.9123 C.ar    1  UNL1        0.0028
     38 C         -26.8999   48.9063   -6.7559 C.ar    1  UNL1        0.0337
     39 C         -26.4755   46.8922   -3.5782 C.ar    1  UNL1        0.0000
     40 C         -25.2303   46.2420   -3.4663 C.ar    1  UNL1        0.0000
     41 C         -25.0717   45.1547   -2.6021 C.ar    1  UNL1        0.0000
     42 C         -26.1487   44.7043   -1.8370 C.ar    1  UNL1        0.0000
     43 C         -27.3864   45.3428   -1.9311 C.ar    1  UNL1        0.0000
     44 C         -27.5513   46.4313   -2.7926 C.ar    1  UNL1        0.0000
@<TRIPOS>BOND
     1    29    30    1
     2    30    31   ar
     3    31    25    1
     4    25    26    2
     5    25    27   am
     6    27     1    1
     7     1     2   ar
     8     2     3   ar
     9     3     4   ar
    10     4     7    1
    11     7     8    1
    12     8     9    1
    13     9    10    1
    14    10    13    1
    15    13    14    1
    16    14    15    1
    17    15    16   ar
    18    16    17   ar
    19    17    18   ar
    20    18    19   ar
    21    19    21    1
    22    21    22    2
    23    21    23    1
    24    19    20   ar
    25    10    11    1
    26    11    12    1
    27     4     5   ar
    28     5     6   ar
    29    31    32   ar
    30    32    33   ar
    31    33    34   ar
    32    34    35   ar
    33    35    36   ar
    34    36    39    1
    35    39    40   ar
    36    40    41   ar
    37    41    42   ar
    38    42    43   ar
    39    43    44   ar
    40    36    37   ar
    41    37    38   ar
    42    38    30   ar
    43     6     1   ar
    44    38    33   ar
    45    12     7    1
    46    44    39   ar
    47    20    15   ar
    48    27    28    1
    49    23    24    1
@<TRIPOS>MOLECULE
*****
 44 49 0 0 0
SMALL
GASTEIGER

@<TRIPOS>ATOM
      1 C         -22.8064   51.1642  -10.1962 C.ar    1  UNL1        0.0702
      2 C         -23.0269   51.2046   -8.8105 C.ar    1  UNL1        0.0191
      3 C         -24.2946   51.5102   -8.3137 C.ar    1  UNL1        0.0356
      4 C         -25.3423   51.7781   -9.2086 C.ar    1  UNL1        0.1318
      5 N         -25.1028   51.7404  -10.5478 N.ar    1  UNL1       -0.2279
      6 C         -23.8732   51.4607  -11.0536 C.ar    1  UNL1        0.1149
      7 N         -26.6792   52.0168   -8.7354 N.pl3   1  UNL1       -0.2932
      8 C         -26.9510   52.3367   -7.3290 C.3     1  UNL1        0.0923
      9 C         -27.6278   51.1435   -6.6238 C.3     1  UNL1        0.0252
     10 C         -28.1900   50.1068   -7.6245 C.3     1  UNL1        0.0472
     11 C         -28.8504   50.8185   -8.8237 C.3     1  UNL1        0.0252
     12 C         -27.8208   51.6711   -9.5947 C.3     1  UNL1        0.0923
     13 C         -29.1669   49.1396   -6.9300 C.3     1  UNL1        0.2054
     14 O         -28.4852   47.9684   -6.4761 O.3     1  UNL1       -0.4755
     15 C         -28.0053   47.7657   -5.1699 C.ar    1  UNL1        0.1388
     16 C         -28.5308   48.5562   -4.1424 C.ar    1  UNL1        0.0369
     17 C         -28.0910   48.3936   -2.8273 C.ar    1  UNL1        0.0033
     18 C         -27.1199   47.4373   -2.5249 C.ar    1  UNL1        0.0066
     19 C         -26.5792   46.6282   -3.5373 C.ar    1  UNL1        0.0785
     20 C         -27.0209   46.8039   -4.8610 C.ar    1  UNL1        0.0433
     21 C         -25.5578   45.6070   -3.2144 C.2     1  UNL1        0.3381
     22 O         -25.2452   44.7259   -4.0603 O.2     1  UNL1       -0.2451
     23 O         -24.9298   45.6103   -1.9728 O.3     1  UNL1       -0.4771
     24 H         -24.2325   44.9134   -1.7400 H       1  UNL1        0.2954
     25 C         -20.5473   51.8107  -11.1560 C.2     1  UNL1        0.2839
     26 O         -19.9546   51.6535  -12.2560 O.2     1  UNL1       -0.2665
     27 N         -21.5211   50.8396  -10.7512 N.am    1  UNL1       -0.2766
     28 H         -21.3154   49.8369  -10.9621 H       1  UNL1        0.1553
     29 C         -21.4197   54.9286  -11.5488 C.3     1  UNL1        0.0345
     30 C         -20.5475   54.3172  -10.4939 C.ar    1  UNL1        0.0202
     31 C         -20.1840   52.9736  -10.3191 C.ar    1  UNL1        0.1946
     32 O         -19.4698   52.8433   -9.2146 O.2     1  UNL1       -0.4492
     33 C         -19.3422   54.0288   -8.6715 C.ar    1  UNL1        0.1452
     34 C         -18.6920   54.3493   -7.4855 C.ar    1  UNL1        0.0375
     35 C         -18.7173   55.6887   -7.0596 C.ar    1  UNL1        0.0031
     36 C         -19.3729   56.6886   -7.8301 C.ar    1  UNL1        0.0002
     37 C         -20.0063   56.3191   -9.0428 C.ar    1  UNL1        0.0028
     38 C         -19.9770   54.9773   -9.4237 C.ar    1  UNL1        0.0337
     39 C         -19.3978   58.1034   -7.3678 C.ar    1  UNL1        0.0000
     40 C         -18.9064   59.1364   -8.1906 C.ar    1  UNL1        0.0000
     41 C         -18.9074   60.4613   -7.7445 C.ar    1  UNL1        0.0000
     42 C         -19.4005   60.7739   -6.4767 C.ar    1  UNL1        0.0000
     43 C         -19.8978   59.7626   -5.6530 C.ar    1  UNL1        0.0000
     44 C         -19.9005   58.4359   -6.0936 C.ar    1  UNL1        0.0000
@<TRIPOS>BOND
     1    29    30    1
     2    30    31   ar
     3    31    25    1
     4    25    26    2
     5    25    27   am
     6    27     1    1
     7     1     2   ar
     8     2     3   ar
     9     3     4   ar
    10     4     7    1
    11     7     8    1
    12     8     9    1
    13     9    10    1
    14    10    13    1
    15    13    14    1
    16    14    15    1
    17    15    16   ar
    18    16    17   ar
    19    17    18   ar
    20    18    19   ar
    21    19    21    1
    22    21    22    2
    23    21    23    1
    24    19    20   ar
    25    10    11    1
    26    11    12    1
    27     4     5   ar
    28     5     6   ar
    29    31    32   ar
    30    32    33   ar
    31    33    34   ar
    32    34    35   ar
    33    35    36   ar
    34    36    39    1
    35    39    40   ar
    36    40    41   ar
    37    41    42   ar
    38    42    43   ar
    39    43    44   ar
    40    36    37   ar
    41    37    38   ar
    42    38    30   ar
    43     6     1   ar
    44    38    33   ar
    45    12     7    1
    46    44    39   ar
    47    20    15   ar
    48    27    28    1
    49    23    24    1
@<TRIPOS>MOLECULE
*****
 44 49 0 0 0
SMALL
GASTEIGER

@<TRIPOS>ATOM
      1 C         -22.8148   51.1731  -10.2103 C.ar    1  UNL1        0.0702
      2 C         -23.0604   51.1786   -8.8283 C.ar    1  UNL1        0.0191
      3 C         -24.3305   51.4973   -8.3460 C.ar    1  UNL1        0.0356
      4 C         -25.3552   51.8135   -9.2516 C.ar    1  UNL1        0.1318
      5 N         -25.0914   51.8090  -10.5867 N.ar    1  UNL1       -0.2279
      6 C         -23.8589   51.5171  -11.0781 C.ar    1  UNL1        0.1149
      7 N         -26.6954   52.0676   -8.7960 N.pl3   1  UNL1       -0.2932
      8 C         -27.0093   52.2024   -7.3686 C.3     1  UNL1        0.0923
      9 C         -27.7843   50.9671   -6.8660 C.3     1  UNL1        0.0252
     10 C         -28.3615   50.1199   -8.0242 C.3     1  UNL1        0.0472
     11 C         -28.9266   51.0342   -9.1311 C.3     1  UNL1        0.0252
     12 C         -27.8166   51.9199   -9.7354 C.3     1  UNL1        0.0923
     13 C         -29.4222   49.1284   -7.5102 C.3     1  UNL1        0.2054
     14 O         -30.1616   48.5673   -8.5968 O.3     1  UNL1       -0.4755
     15 C         -29.6863   47.5754   -9.4731 C.ar    1  UNL1        0.1388
     16 C         -28.7142   46.6870   -9.0012 C.ar    1  UNL1        0.0369
     17 C         -28.2106   45.6821   -9.8294 C.ar    1  UNL1        0.0033
     18 C         -28.6744   45.5540  -11.1399 C.ar    1  UNL1        0.0066
     19 C         -29.6527   46.4304  -11.6367 C.ar    1  UNL1        0.0785
     20 C         -30.1489   47.4457  -10.7993 C.ar    1  UNL1        0.0433
     21 C         -30.1521   46.2873  -13.0225 C.2     1  UNL1        0.3381
     22 O         -31.2967   46.7127  -13.3365 O.2     1  UNL1       -0.2451
     23 O         -29.3614   45.6827  -13.9947 O.3     1  UNL1       -0.4771
     24 H         -29.6952   45.5760  -14.9451 H       1  UNL1        0.2954
     25 C         -20.5382   51.7987  -11.1423 C.2     1  UNL1        0.2839
     26 O         -19.9344   51.6379  -12.2357 O.2     1  UNL1       -0.2665
     27 N         -21.5266   50.8367  -10.7512 N.am    1  UNL1       -0.2766
     28 H         -21.3285   49.8324  -10.9619 H       1  UNL1        0.1553
     29 C         -21.3436   54.9316  -11.5587 C.3     1  UNL1        0.0345
     30 C         -20.5075   54.3058  -10.4833 C.ar    1  UNL1        0.0202
     31 C         -20.1729   52.9560  -10.2986 C.ar    1  UNL1        0.1946
     32 O         -19.4869   52.8143   -9.1777 O.2     1  UNL1       -0.4492
     33 C         -19.3501   53.9981   -8.6331 C.ar    1  UNL1        0.1452
     34 C         -18.7216   54.3084   -7.4328 C.ar    1  UNL1        0.0375
     35 C         -18.7320   55.6487   -7.0091 C.ar    1  UNL1        0.0031
     36 C         -19.3510   56.6593   -7.7957 C.ar    1  UNL1        0.0002
     37 C         -19.9630   56.2996   -9.0223 C.ar    1  UNL1        0.0028
     38 C         -19.9497   54.9570   -9.4009 C.ar    1  UNL1        0.0337
     39 C         -19.3605   58.0750   -7.3357 C.ar    1  UNL1        0.0000
     40 C         -19.9005   58.4184   -6.0802 C.ar    1  UNL1        0.0000
     41 C         -19.9314   59.7517   -5.6608 C.ar    1  UNL1        0.0000
     42 C         -19.4223   60.7576   -6.4837 C.ar    1  UNL1        0.0000
     43 C         -18.8771   60.4323   -7.7269 C.ar    1  UNL1        0.0000
     44 C         -18.8424   59.1009   -8.1517 C.ar    1  UNL1        0.0000
@<TRIPOS>BOND
     1    29    30    1
     2    30    31   ar
     3    31    25    1
     4    25    26    2
     5    25    27   am
     6    27     1    1
     7     1     2   ar
     8     2     3   ar
     9     3     4   ar
    10     4     7    1
    11     7     8    1
    12     8     9    1
    13     9    10    1
    14    10    13    1
    15    13    14    1
    16    14    15    1
    17    15    16   ar
    18    16    17   ar
    19    17    18   ar
    20    18    19   ar
    21    19    21    1
    22    21    22    2
    23    21    23    1
    24    19    20   ar
    25    10    11    1
    26    11    12    1
    27     4     5   ar
    28     5     6   ar
    29    31    32   ar
    30    32    33   ar
    31    33    34   ar
    32    34    35   ar
    33    35    36   ar
    34    36    39    1
    35    39    40   ar
    36    40    41   ar
    37    41    42   ar
    38    42    43   ar
    39    43    44   ar
    40    36    37   ar
    41    37    38   ar
    42    38    30   ar
    43     6     1   ar
    44    38    33   ar
    45    12     7    1
    46    44    39   ar
    47    20    15   ar
    48    27    28    1
    49    23    24    1
@<TRIPOS>MOLECULE
*****
 44 49 0 0 0
SMALL
GASTEIGER

@<TRIPOS>ATOM
      1 C         -25.0232   50.9337   -9.4766 C.ar    1  UNL1        0.0702
      2 C         -24.8034   50.0679   -8.3938 C.ar    1  UNL1        0.0191
      3 C         -25.5005   50.2529   -7.1991 C.ar    1  UNL1        0.0356
      4 C         -26.4177   51.3097   -7.0897 C.ar    1  UNL1        0.1318
      5 N         -26.6086   52.1408   -8.1504 N.ar    1  UNL1       -0.2279
      6 C         -25.9298   51.9893   -9.3175 C.ar    1  UNL1        0.1149
      7 N         -27.2127   51.4821   -5.9037 N.pl3   1  UNL1       -0.2932
      8 C         -26.6699   51.2076   -4.5681 C.3     1  UNL1        0.0923
      9 C         -27.2852   49.9172   -3.9887 C.3     1  UNL1        0.0252
     10 C         -28.5564   49.4747   -4.7507 C.3     1  UNL1        0.0472
     11 C         -29.4271   50.6988   -5.1030 C.3     1  UNL1        0.0252
     12 C         -28.6654   51.6692   -6.0302 C.3     1  UNL1        0.0923
     13 C         -29.3484   48.4273   -3.9456 C.3     1  UNL1        0.2054
     14 O         -29.2534   47.1390   -4.5568 O.3     1  UNL1       -0.4755
     15 C         -29.3846   46.8841   -5.9335 C.ar    1  UNL1        0.1388
     16 C         -30.6574   46.5884   -6.4328 C.ar    1  UNL1        0.0369
     17 C         -30.8431   46.3302   -7.7923 C.ar    1  UNL1        0.0033
     18 C         -29.7569   46.3656   -8.6686 C.ar    1  UNL1        0.0066
     19 C         -28.4696   46.6639   -8.1935 C.ar    1  UNL1        0.0785
     20 C         -28.2889   46.9142   -6.8213 C.ar    1  UNL1        0.0433
     21 C         -27.3202   46.7121   -9.1246 C.2     1  UNL1        0.3381
     22 O         -26.9343   47.8111   -9.6073 O.2     1  UNL1       -0.2451
     23 O         -26.6517   45.5434   -9.4757 O.3     1  UNL1       -0.4771
     24 H         -25.8666   45.5646  -10.1154 H       1  UNL1        0.2954
     25 C         -23.5255   51.7806  -11.3427 C.2     1  UNL1        0.2839
     26 O         -23.6541   51.9961  -12.5768 O.2     1  UNL1       -0.2665
     27 N         -24.3385   50.7714  -10.7296 N.am    1  UNL1       -0.2766
     28 H         -24.5161   49.8995  -11.2778 H       1  UNL1        0.1553
     29 C         -23.3412   55.0150  -10.9671 C.3     1  UNL1        0.0345
     30 C         -22.4280   53.9491  -10.4408 C.ar    1  UNL1        0.0202
     31 C         -22.5163   52.5573  -10.5926 C.ar    1  UNL1        0.1946
     32 O         -21.5568   51.9697   -9.8989 O.2     1  UNL1       -0.4492
     33 C         -20.8468   52.9040   -9.3161 C.ar    1  UNL1        0.1452
     34 C         -19.7587   52.7331   -8.4682 C.ar    1  UNL1        0.0375
     35 C         -19.1692   53.8810   -7.9107 C.ar    1  UNL1        0.0031
     36 C         -19.6607   55.1793   -8.2209 C.ar    1  UNL1        0.0002
     37 C         -20.7604   55.3066   -9.1057 C.ar    1  UNL1        0.0028
     38 C         -21.3317   54.1443   -9.6243 C.ar    1  UNL1        0.0337
     39 C         -19.0322   56.3883   -7.6214 C.ar    1  UNL1        0.0000
     40 C         -18.0881   56.2664   -6.5824 C.ar    1  UNL1        0.0000
     41 C         -17.5178   57.4040   -6.0036 C.ar    1  UNL1        0.0000
     42 C         -17.8774   58.6752   -6.4542 C.ar    1  UNL1        0.0000
     43 C         -18.8055   58.8120   -7.4878 C.ar    1  UNL1        0.0000
     44 C         -19.3787   57.6784   -8.0715 C.ar    1  UNL1        0.0000
@<TRIPOS>BOND
     1    29    30    1
     2    30    31   ar
     3    31    25    1
     4    25    26    2
     5    25    27   am
     6    27     1    1
     7     1     2   ar
     8     2     3   ar
     9     3     4   ar
    10     4     7    1
    11     7     8    1
    12     8     9    1
    13     9    10    1
    14    10    13    1
    15    13    14    1
    16    14    15    1
    17    15    16   ar
    18    16    17   ar
    19    17    18   ar
    20    18    19   ar
    21    19    21    1
    22    21    22    2
    23    21    23    1
    24    19    20   ar
    25    10    11    1
    26    11    12    1
    27     4     5   ar
    28     5     6   ar
    29    31    32   ar
    30    32    33   ar
    31    33    34   ar
    32    34    35   ar
    33    35    36   ar
    34    36    39    1
    35    39    40   ar
    36    40    41   ar
    37    41    42   ar
    38    42    43   ar
    39    43    44   ar
    40    36    37   ar
    41    37    38   ar
    42    38    30   ar
    43     6     1   ar
    44    38    33   ar
    45    12     7    1
    46    44    39   ar
    47    20    15   ar
    48    27    28    1
    49    23    24    1
