@<TRIPOS>MOLECULE
*****
 49 56 0 0 0
SMALL
GASTEIGER

@<TRIPOS>ATOM
      1 N          59.4568   81.7450    8.6691 N.am    1  UNL1       -0.0905
      2 C          59.1657   81.5052    7.3442 C.2     1  UNL1        0.4229
      3 O          59.5206   82.3187    6.4460 O.2     1  UNL1       -0.2135
      4 C          58.4374   80.3805    6.9644 C.2     1  UNL1        0.1157
      5 C          57.9341   79.5289    7.9329 C.2     1  UNL1        0.0173
      6 C          58.2295   79.7533    9.2773 C.ar    1  UNL1        0.0828
      7 C          57.6458   78.9455   10.2579 C.ar    1  UNL1        0.1047
      8 N          57.9034   79.1669   11.5672 N.ar    1  UNL1       -0.2434
      9 C          58.7900   80.1070   11.9762 C.ar    1  UNL1        0.0870
     10 C          59.0326   80.2584   13.3453 C.ar    1  UNL1        0.0193
     11 C          59.9996   81.1553   13.7947 C.ar    1  UNL1        0.0016
     12 C          60.7972   81.8498   12.8762 C.ar    1  UNL1        0.0018
     13 C          60.5774   81.6656   11.5009 C.ar    1  UNL1        0.0075
     14 C          59.4879   80.8981   11.0265 C.ar    1  UNL1        0.0810
     15 C          59.0931   80.8202    9.6455 C.ar    1  UNL1        0.2297
     16 C          61.8384   82.7952   13.3481 C.ar    1  UNL1        0.0192
     17 C          63.1962   82.5466   13.0844 C.ar    1  UNL1        0.0988
     18 N          64.1557   83.3865   13.5557 N.ar    1  UNL1       -0.2438
     19 C          63.8467   84.4910   14.2843 C.ar    1  UNL1        0.0813
     20 C          64.8636   85.3278   14.7595 C.ar    1  UNL1        0.0191
     21 C          64.5410   86.4608   15.5129 C.ar    1  UNL1        0.0015
     22 C          63.2048   86.7600   15.7965 C.ar    1  UNL1        0.0001
     23 C          62.1822   85.9302   15.3257 C.ar    1  UNL1        0.0015
     24 C          62.4966   84.7916   14.5682 C.ar    1  UNL1        0.0177
     25 C          61.4958   83.9320   14.0983 C.ar    1  UNL1        0.0030
     26 C          59.2546   85.7363   11.6085 C.3     1  UNL1        0.0312
     27 C          59.9126   85.0155   10.4603 C.ar    1  UNL1       -0.0159
     28 C          59.3234   83.8346    9.9797 C.ar    1  UNL1        0.0648
     29 C          59.9657   83.0564    9.0042 C.ar    1  UNL1        0.2268
     30 C          61.1521   83.5259    8.4226 C.ar    1  UNL1        0.0691
     31 C          61.7232   84.7212    8.8569 C.ar    1  UNL1        0.0058
     32 C          61.1261   85.4703    9.8844 C.ar    1  UNL1       -0.0036
     33 C          61.8418   86.6606   10.3988 C.ar    1  UNL1       -0.0003
     34 C          62.1595   87.7083    9.5237 C.ar    1  UNL1        0.0001
     35 C          62.8884   88.8105    9.9719 C.ar    1  UNL1        0.0045
     36 C          63.2987   88.8964   11.3139 C.ar    1  UNL1        0.0534
     37 C          62.9541   87.8571   12.1971 C.ar    1  UNL1        0.0045
     38 C          62.2249   86.7527   11.7451 C.ar    1  UNL1        0.0001
     39 C          64.1244   90.0345   11.7833 C.2     1  UNL1        0.2458
     40 O          64.2361   90.2533   13.0208 O.2     1  UNL1       -0.2701
     41 N          64.8119   90.8829   10.8503 N.am    1  UNL1       -0.3024
     42 H          64.4593   90.9408    9.8685 H       1  UNL1        0.1497
     43 C          66.0074   91.6430   11.2333 C.3     1  UNL1        0.0746
     44 C          67.2281   90.6930   11.2874 C.3     1  UNL1        0.0369
     45 C          68.5310   91.4241   10.9344 C.3     1  UNL1        0.0738
     46 N          68.5012   92.0170    9.5721 N.3     1  UNL1       -0.2714
     47 C          69.1557   91.1366    8.5916 C.3     1  UNL1        0.0896
     48 C          67.1476   92.4019    9.1010 C.3     1  UNL1        0.0738
     49 C          66.2403   92.8243   10.2618 C.3     1  UNL1        0.0369
@<TRIPOS>BOND
     1    26    27    1
     2    27    28   ar
     3    28    29   ar
     4    29     1    1
     5     1     2    1
     6     2     3    2
     7     2     4    1
     8     4     5    2
     9     5     6    1
    10     6     7   ar
    11     7     8   ar
    12     8     9   ar
    13     9    10   ar
    14    10    11   ar
    15    11    12   ar
    16    12    16    1
    17    16    17   ar
    18    17    18   ar
    19    18    19   ar
    20    19    20   ar
    21    20    21   ar
    22    21    22   ar
    23    22    23   ar
    24    23    24   ar
    25    24    25   ar
    26    12    13   ar
    27    13    14   ar
    28    14    15   ar
    29    29    30   ar
    30    30    31   ar
    31    31    32   ar
    32    32    33    1
    33    33    34   ar
    34    34    35   ar
    35    35    36   ar
    36    36    39    1
    37    39    40    2
    38    39    41   am
    39    41    43    1
    40    43    44    1
    41    44    45    1
    42    45    46    1
    43    46    47    1
    44    46    48    1
    45    48    49    1
    46    36    37   ar
    47    37    38   ar
    48    32    27   ar
    49    38    33   ar
    50    15     1    1
    51    49    43    1
    52    15     6   ar
    53    14     9   ar
    54    25    16   ar
    55    24    19   ar
    56    41    42    1
@<TRIPOS>MOLECULE
*****
 49 56 0 0 0
SMALL
GASTEIGER

@<TRIPOS>ATOM
      1 N          61.1588   81.5822   10.7002 N.am    1  UNL1       -0.0905
      2 C          60.9998   80.4932    9.8716 C.2     1  UNL1        0.4229
      3 O          60.8807   80.6416    8.6233 O.2     1  UNL1       -0.2135
      4 C          60.9254   79.2036   10.3921 C.2     1  UNL1        0.1157
      5 C          60.9367   79.0148   11.7636 C.2     1  UNL1        0.0173
      6 C          61.1075   80.1067   12.6141 C.ar    1  UNL1        0.0828
      7 C          61.0274   79.9245   13.9981 C.ar    1  UNL1        0.1047
      8 N          61.1663   80.9784   14.8347 N.ar    1  UNL1       -0.2434
      9 C          61.4707   82.2194   14.3828 C.ar    1  UNL1        0.0870
     10 C          61.6329   83.2557   15.3079 C.ar    1  UNL1        0.0193
     11 C          62.0293   84.5227   14.8846 C.ar    1  UNL1        0.0016
     12 C          62.3525   84.7470   13.5403 C.ar    1  UNL1        0.0018
     13 C          62.2263   83.6930   12.6200 C.ar    1  UNL1        0.0075
     14 C          61.6586   82.4530   12.9953 C.ar    1  UNL1        0.0810
     15 C          61.3276   81.4015   12.0713 C.ar    1  UNL1        0.2297
     16 C          62.7894   86.0898   13.0857 C.ar    1  UNL1        0.0192
     17 C          63.4569   86.9565   13.9678 C.ar    1  UNL1        0.0988
     18 N          63.8169   88.2049   13.5681 N.ar    1  UNL1       -0.2438
     19 C          63.5579   88.6587   12.3137 C.ar    1  UNL1        0.0813
     20 C          63.9370   89.9540   11.9416 C.ar    1  UNL1        0.0191
     21 C          63.6641   90.4182   10.6511 C.ar    1  UNL1        0.0015
     22 C          63.0103   89.5934    9.7304 C.ar    1  UNL1        0.0001
     23 C          62.6282   88.2978   10.0930 C.ar    1  UNL1        0.0015
     24 C          62.8987   87.8234   11.3855 C.ar    1  UNL1        0.0177
     25 C          62.5124   86.5374   11.7836 C.ar    1  UNL1        0.0030
     26 C          62.9686   85.3834    8.0758 C.3     1  UNL1        0.0312
     27 C          61.8030   84.7555    8.7956 C.ar    1  UNL1       -0.0159
     28 C          62.0221   83.5847    9.5399 C.ar    1  UNL1        0.0648
     29 C          60.9489   82.8889   10.1174 C.ar    1  UNL1        0.2268
     30 C          59.6589   83.4339   10.0460 C.ar    1  UNL1        0.0691
     31 C          59.4344   84.6211    9.3505 C.ar    1  UNL1        0.0058
     32 C          60.4910   85.2864    8.7068 C.ar    1  UNL1       -0.0036
     33 C          60.1774   86.4691    7.8721 C.ar    1  UNL1       -0.0003
     34 C          59.8311   86.2930    6.5254 C.ar    1  UNL1        0.0001
     35 C          59.5932   87.3956    5.7041 C.ar    1  UNL1        0.0045
     36 C          59.6781   88.7008    6.2200 C.ar    1  UNL1        0.0534
     37 C          59.9980   88.8742    7.5789 C.ar    1  UNL1        0.0045
     38 C          60.2375   87.7675    8.3997 C.ar    1  UNL1        0.0001
     39 C          59.4861   89.8782    5.3402 C.2     1  UNL1        0.2458
     40 O          58.7309   90.8173    5.7137 O.2     1  UNL1       -0.2701
     41 N          60.1594   89.9729    4.0750 N.am    1  UNL1       -0.3024
     42 H          60.4813   89.0947    3.6094 H       1  UNL1        0.1497
     43 C          60.4299   91.2675    3.4390 C.3     1  UNL1        0.0746
     44 C          61.9068   91.3181    2.9787 C.3     1  UNL1        0.0369
     45 C          62.0819   92.1973    1.7324 C.3     1  UNL1        0.0738
     46 N          61.2824   91.7140    0.5767 N.3     1  UNL1       -0.2714
     47 C          62.0986   90.8941   -0.3324 C.3     1  UNL1        0.0896
     48 C          60.0397   90.9935    0.9499 C.3     1  UNL1        0.0738
     49 C          59.4528   91.5164    2.2656 C.3     1  UNL1        0.0369
@<TRIPOS>BOND
     1    26    27    1
     2    27    28   ar
     3    28    29   ar
     4    29     1    1
     5     1     2    1
     6     2     3    2
     7     2     4    1
     8     4     5    2
     9     5     6    1
    10     6     7   ar
    11     7     8   ar
    12     8     9   ar
    13     9    10   ar
    14    10    11   ar
    15    11    12   ar
    16    12    16    1
    17    16    17   ar
    18    17    18   ar
    19    18    19   ar
    20    19    20   ar
    21    20    21   ar
    22    21    22   ar
    23    22    23   ar
    24    23    24   ar
    25    24    25   ar
    26    12    13   ar
    27    13    14   ar
    28    14    15   ar
    29    29    30   ar
    30    30    31   ar
    31    31    32   ar
    32    32    33    1
    33    33    34   ar
    34    34    35   ar
    35    35    36   ar
    36    36    39    1
    37    39    40    2
    38    39    41   am
    39    41    43    1
    40    43    44    1
    41    44    45    1
    42    45    46    1
    43    46    47    1
    44    46    48    1
    45    48    49    1
    46    36    37   ar
    47    37    38   ar
    48    32    27   ar
    49    38    33   ar
    50    15     1    1
    51    49    43    1
    52    15     6   ar
    53    14     9   ar
    54    25    16   ar
    55    24    19   ar
    56    41    42    1
@<TRIPOS>MOLECULE
*****
 49 56 0 0 0
SMALL
GASTEIGER

@<TRIPOS>ATOM
      1 N          59.0632   82.4279    9.3687 N.am    1  UNL1       -0.0905
      2 C          58.7615   81.4379    8.4596 C.2     1  UNL1        0.4229
      3 O          58.7601   81.6764    7.2196 O.2     1  UNL1       -0.2135
      4 C          58.4107   80.1591    8.8852 C.2     1  UNL1        0.1157
      5 C          58.2903   79.8947   10.2389 C.2     1  UNL1        0.0173
      6 C          58.6024   80.8842   11.1707 C.ar    1  UNL1        0.0828
      7 C          58.3929   80.6431   12.5320 C.ar    1  UNL1        0.1047
      8 N          58.6677   81.6021   13.4455 N.ar    1  UNL1       -0.2434
      9 C          59.2301   82.7854   13.0982 C.ar    1  UNL1        0.0870
     10 C          59.5182   83.7178   14.1000 C.ar    1  UNL1        0.0193
     11 C          60.1735   84.9073   13.7884 C.ar    1  UNL1        0.0016
     12 C          60.6264   85.1409   12.4836 C.ar    1  UNL1        0.0018
     13 C          60.3699   84.1841   11.4875 C.ar    1  UNL1        0.0075
     14 C          59.5551   83.0564   11.7433 C.ar    1  UNL1        0.0810
     15 C          59.0987   82.1414   10.7316 C.ar    1  UNL1        0.2297
     16 C          61.3378   86.3988   12.1483 C.ar    1  UNL1        0.0192
     17 C          61.0369   87.0912   10.9630 C.ar    1  UNL1        0.0988
     18 N          61.7197   88.2187   10.6303 N.ar    1  UNL1       -0.2438
     19 C          62.7023   88.7219   11.4225 C.ar    1  UNL1        0.0813
     20 C          63.3888   89.8811   11.0418 C.ar    1  UNL1        0.0191
     21 C          64.4026   90.3925   11.8580 C.ar    1  UNL1        0.0015
     22 C          64.7359   89.7478   13.0532 C.ar    1  UNL1        0.0001
     23 C          64.0553   88.5894   13.4419 C.ar    1  UNL1        0.0015
     24 C          63.0361   88.0697   12.6295 C.ar    1  UNL1        0.0177
     25 C          62.3491   86.9016   12.9831 C.ar    1  UNL1        0.0030
     26 C          61.8634   86.1362    7.6310 C.3     1  UNL1        0.0312
     27 C          60.4937   85.6082    7.9716 C.ar    1  UNL1       -0.0159
     28 C          60.3932   84.3793    8.6441 C.ar    1  UNL1        0.0648
     29 C          59.1430   83.7813    8.8656 C.ar    1  UNL1        0.2268
     30 C          57.9772   84.4760    8.5131 C.ar    1  UNL1        0.0691
     31 C          58.0612   85.7192    7.8875 C.ar    1  UNL1        0.0058
     32 C          59.3099   86.2926    7.5954 C.ar    1  UNL1       -0.0036
     33 C          59.3447   87.5495    6.8126 C.ar    1  UNL1       -0.0003
     34 C          58.1551   88.2544    6.5831 C.ar    1  UNL1        0.0001
     35 C          58.1539   89.4064    5.7958 C.ar    1  UNL1        0.0045
     36 C          59.3500   89.8892    5.2363 C.ar    1  UNL1        0.0534
     37 C          60.5472   89.1960    5.4914 C.ar    1  UNL1        0.0045
     38 C          60.5456   88.0408    6.2796 C.ar    1  UNL1        0.0001
     39 C          59.3474   91.0773    4.3499 C.2     1  UNL1        0.2458
     40 O          58.9781   92.1937    4.8071 O.2     1  UNL1       -0.2701
     41 N          59.7740   90.9795    2.9819 N.am    1  UNL1       -0.3024
     42 H          59.7368   90.0488    2.5086 H       1  UNL1        0.1497
     43 C          60.2848   92.1426    2.2470 C.3     1  UNL1        0.0746
     44 C          61.8296   92.0737    2.1805 C.3     1  UNL1        0.0369
     45 C          62.3713   92.7291    0.9023 C.3     1  UNL1        0.0738
     46 N          61.8535   92.0844   -0.3326 N.3     1  UNL1       -0.2714
     47 C          62.8111   91.1022   -0.8646 C.3     1  UNL1        0.0896
     48 C          60.5097   91.4718   -0.1865 C.3     1  UNL1        0.0738
     49 C          59.6512   92.2219    0.8379 C.3     1  UNL1        0.0369
@<TRIPOS>BOND
     1    26    27    1
     2    27    28   ar
     3    28    29   ar
     4    29     1    1
     5     1     2    1
     6     2     3    2
     7     2     4    1
     8     4     5    2
     9     5     6    1
    10     6     7   ar
    11     7     8   ar
    12     8     9   ar
    13     9    10   ar
    14    10    11   ar
    15    11    12   ar
    16    12    16    1
    17    16    17   ar
    18    17    18   ar
    19    18    19   ar
    20    19    20   ar
    21    20    21   ar
    22    21    22   ar
    23    22    23   ar
    24    23    24   ar
    25    24    25   ar
    26    12    13   ar
    27    13    14   ar
    28    14    15   ar
    29    29    30   ar
    30    30    31   ar
    31    31    32   ar
    32    32    33    1
    33    33    34   ar
    34    34    35   ar
    35    35    36   ar
    36    36    39    1
    37    39    40    2
    38    39    41   am
    39    41    43    1
    40    43    44    1
    41    44    45    1
    42    45    46    1
    43    46    47    1
    44    46    48    1
    45    48    49    1
    46    36    37   ar
    47    37    38   ar
    48    32    27   ar
    49    38    33   ar
    50    15     1    1
    51    49    43    1
    52    15     6   ar
    53    14     9   ar
    54    25    16   ar
    55    24    19   ar
    56    41    42    1
@<TRIPOS>MOLECULE
*****
 49 56 0 0 0
SMALL
GASTEIGER

@<TRIPOS>ATOM
      1 N          59.6182   81.8569    8.4168 N.am    1  UNL1       -0.0905
      2 C          59.4022   81.6099    7.0789 C.2     1  UNL1        0.4229
      3 O          59.8315   82.4045    6.1964 O.2     1  UNL1       -0.2135
      4 C          58.6701   80.4994    6.6659 C.2     1  UNL1        0.1157
      5 C          58.0875   79.6711    7.6099 C.2     1  UNL1        0.0173
      6 C          58.3061   79.9030    8.9676 C.ar    1  UNL1        0.0828
      7 C          57.6436   79.1206    9.9184 C.ar    1  UNL1        0.1047
      8 N          57.8266   79.3499   11.2388 N.ar    1  UNL1       -0.2434
      9 C          58.7102   80.2722   11.6923 C.ar    1  UNL1        0.0870
     10 C          58.8729   80.4326   13.0721 C.ar    1  UNL1        0.0193
     11 C          59.8331   81.3103   13.5713 C.ar    1  UNL1        0.0016
     12 C          60.7024   81.9747   12.6967 C.ar    1  UNL1        0.0018
     13 C          60.5620   81.7809   11.3124 C.ar    1  UNL1        0.0075
     14 C          59.4844   81.0354   10.7796 C.ar    1  UNL1        0.0810
     15 C          59.1725   80.9521    9.3779 C.ar    1  UNL1        0.2297
     16 C          61.7366   82.8992   13.2224 C.ar    1  UNL1        0.0192
     17 C          63.1012   82.6089   13.0537 C.ar    1  UNL1        0.0988
     18 N          64.0509   83.4303   13.5749 N.ar    1  UNL1       -0.2438
     19 C          63.7260   84.5553   14.2642 C.ar    1  UNL1        0.0813
     20 C          64.7326   85.3719   14.7932 C.ar    1  UNL1        0.0191
     21 C          64.3933   86.5262   15.5059 C.ar    1  UNL1        0.0015
     22 C          63.0502   86.8668   15.6951 C.ar    1  UNL1        0.0001
     23 C          62.0379   86.0573   15.1699 C.ar    1  UNL1        0.0015
     24 C          62.3692   84.8977   14.4527 C.ar    1  UNL1        0.0177
     25 C          61.3776   84.0577   13.9305 C.ar    1  UNL1        0.0030
     26 C          59.2727   85.9302   11.2276 C.3     1  UNL1        0.0312
     27 C          60.0138   85.1571   10.1675 C.ar    1  UNL1       -0.0159
     28 C          59.4324   83.9842    9.6585 C.ar    1  UNL1        0.0648
     29 C          60.1388   83.1590    8.7700 C.ar    1  UNL1        0.2268
     30 C          61.3928   83.5724    8.2980 C.ar    1  UNL1        0.0691
     31 C          61.9614   84.7591    8.7587 C.ar    1  UNL1        0.0058
     32 C          61.2936   85.5551    9.7042 C.ar    1  UNL1       -0.0036
     33 C          61.9979   86.7340   10.2591 C.ar    1  UNL1       -0.0003
     34 C          62.3263   87.8038    9.4153 C.ar    1  UNL1        0.0001
     35 C          63.0450   88.8964    9.9019 C.ar    1  UNL1        0.0045
     36 C          63.4342   88.9499   11.2519 C.ar    1  UNL1        0.0534
     37 C          63.0788   87.8881   12.1036 C.ar    1  UNL1        0.0045
     38 C          62.3597   86.7936   11.6130 C.ar    1  UNL1        0.0001
     39 C          64.2493   90.0780   11.7622 C.2     1  UNL1        0.2458
     40 O          64.2903   91.1593   11.1135 O.2     1  UNL1       -0.2701
     41 N          64.9811   89.9635   12.9928 N.am    1  UNL1       -0.3024
     42 H          65.2408   89.0118   13.3370 H       1  UNL1        0.1497
     43 C          65.3451   91.1422   13.7876 C.3     1  UNL1        0.0746
     44 C          65.6175   90.7149   15.2501 C.3     1  UNL1        0.0369
     45 C          66.6620   91.6194   15.9193 C.3     1  UNL1        0.0738
     46 N          67.9682   91.6032   15.2108 N.3     1  UNL1       -0.2714
     47 C          68.9078   90.6641   15.8433 C.3     1  UNL1        0.0896
     48 C          67.8716   91.3377   13.7538 C.3     1  UNL1        0.0738
     49 C          66.5603   91.8693   13.1647 C.3     1  UNL1        0.0369
@<TRIPOS>BOND
     1    26    27    1
     2    27    28   ar
     3    28    29   ar
     4    29     1    1
     5     1     2    1
     6     2     3    2
     7     2     4    1
     8     4     5    2
     9     5     6    1
    10     6     7   ar
    11     7     8   ar
    12     8     9   ar
    13     9    10   ar
    14    10    11   ar
    15    11    12   ar
    16    12    16    1
    17    16    17   ar
    18    17    18   ar
    19    18    19   ar
    20    19    20   ar
    21    20    21   ar
    22    21    22   ar
    23    22    23   ar
    24    23    24   ar
    25    24    25   ar
    26    12    13   ar
    27    13    14   ar
    28    14    15   ar
    29    29    30   ar
    30    30    31   ar
    31    31    32   ar
    32    32    33    1
    33    33    34   ar
    34    34    35   ar
    35    35    36   ar
    36    36    39    1
    37    39    40    2
    38    39    41   am
    39    41    43    1
    40    43    44    1
    41    44    45    1
    42    45    46    1
    43    46    47    1
    44    46    48    1
    45    48    49    1
    46    36    37   ar
    47    37    38   ar
    48    32    27   ar
    49    38    33   ar
    50    15     1    1
    51    49    43    1
    52    15     6   ar
    53    14     9   ar
    54    25    16   ar
    55    24    19   ar
    56    41    42    1
@<TRIPOS>MOLECULE
*****
 49 56 0 0 0
SMALL
GASTEIGER

@<TRIPOS>ATOM
      1 N          59.1714   81.2556   11.6039 N.am    1  UNL1       -0.0905
      2 C          58.5165   80.2779   12.3200 C.2     1  UNL1        0.4229
      3 O          58.3632   80.3835   13.5690 O.2     1  UNL1       -0.2135
      4 C          58.0422   79.1287   11.6925 C.2     1  UNL1        0.1157
      5 C          58.2944   78.9274   10.3462 C.2     1  UNL1        0.0173
      6 C          58.9470   79.9131    9.6064 C.ar    1  UNL1        0.0828
      7 C          59.2802   79.6685    8.2706 C.ar    1  UNL1        0.1047
      8 N          59.9353   80.6055    7.5477 N.ar    1  UNL1       -0.2434
      9 C          60.2153   81.8335    8.0484 C.ar    1  UNL1        0.0870
     10 C          60.8655   82.7650    7.2326 C.ar    1  UNL1        0.0193
     11 C          61.0919   84.0627    7.6865 C.ar    1  UNL1        0.0016
     12 C          60.5935   84.4707    8.9304 C.ar    1  UNL1        0.0018
     13 C          59.9061   83.5433    9.7309 C.ar    1  UNL1        0.0075
     14 C          59.8204   82.1789    9.3673 C.ar    1  UNL1        0.0810
     15 C          59.2997   81.1449   10.2210 C.ar    1  UNL1        0.2297
     16 C          60.8182   85.8553    9.4132 C.ar    1  UNL1        0.0192
     17 C          59.9300   86.8848    9.0580 C.ar    1  UNL1        0.0988
     18 N          60.1590   88.1630    9.4604 N.ar    1  UNL1       -0.2438
     19 C          61.2365   88.4936   10.2193 C.ar    1  UNL1        0.0813
     20 C          61.4429   89.8229   10.6073 C.ar    1  UNL1        0.0191
     21 C          62.5559   90.1591   11.3843 C.ar    1  UNL1        0.0015
     22 C          63.4664   89.1717   11.7734 C.ar    1  UNL1        0.0001
     23 C          63.2682   87.8411   11.3909 C.ar    1  UNL1        0.0015
     24 C          62.1538   87.4945   10.6120 C.ar    1  UNL1        0.0177
     25 C          61.9382   86.1739   10.1984 C.ar    1  UNL1        0.0030
     26 C          63.4596   83.4554   12.7803 C.3     1  UNL1        0.0312
     27 C          61.9611   83.3951   12.9278 C.ar    1  UNL1       -0.0159
     28 C          61.2722   82.3067   12.3680 C.ar    1  UNL1        0.0648
     29 C          59.8693   82.2705   12.3616 C.ar    1  UNL1        0.2268
     30 C          59.1532   83.2775   13.0245 C.ar    1  UNL1        0.0691
     31 C          59.8266   84.3396   13.6262 C.ar    1  UNL1        0.0058
     32 C          61.2280   84.4226   13.5742 C.ar    1  UNL1       -0.0036
     33 C          61.8845   85.6363   14.1122 C.ar    1  UNL1       -0.0003
     34 C          61.1207   86.7865   14.3534 C.ar    1  UNL1        0.0001
     35 C          61.7281   87.9606   14.8001 C.ar    1  UNL1        0.0045
     36 C          63.1139   88.0024   15.0339 C.ar    1  UNL1        0.0534
     37 C          63.8742   86.8385   14.8183 C.ar    1  UNL1        0.0045
     38 C          63.2632   85.6635   14.3692 C.ar    1  UNL1        0.0001
     39 C          63.7753   89.2619   15.4505 C.2     1  UNL1        0.2458
     40 O          63.6781   89.6493   16.6472 O.2     1  UNL1       -0.2701
     41 N          64.5383   90.0402   14.5151 N.am    1  UNL1       -0.3024
     42 H          64.3390   89.9375   13.4945 H       1  UNL1        0.1497
     43 C          65.6038   90.9487   14.9541 C.3     1  UNL1        0.0746
     44 C          66.8731   90.1304   15.2932 C.3     1  UNL1        0.0369
     45 C          68.1534   90.9346   15.0273 C.3     1  UNL1        0.0738
     46 N          68.2758   91.3592   13.6084 N.3     1  UNL1       -0.2714
     47 C          69.1309   90.4360   12.8460 C.3     1  UNL1        0.0896
     48 C          66.9791   91.5576   12.9144 C.3     1  UNL1        0.0738
     49 C          65.8837   92.0253   13.8789 C.3     1  UNL1        0.0369
@<TRIPOS>BOND
     1    26    27    1
     2    27    28   ar
     3    28    29   ar
     4    29     1    1
     5     1     2    1
     6     2     3    2
     7     2     4    1
     8     4     5    2
     9     5     6    1
    10     6     7   ar
    11     7     8   ar
    12     8     9   ar
    13     9    10   ar
    14    10    11   ar
    15    11    12   ar
    16    12    16    1
    17    16    17   ar
    18    17    18   ar
    19    18    19   ar
    20    19    20   ar
    21    20    21   ar
    22    21    22   ar
    23    22    23   ar
    24    23    24   ar
    25    24    25   ar
    26    12    13   ar
    27    13    14   ar
    28    14    15   ar
    29    29    30   ar
    30    30    31   ar
    31    31    32   ar
    32    32    33    1
    33    33    34   ar
    34    34    35   ar
    35    35    36   ar
    36    36    39    1
    37    39    40    2
    38    39    41   am
    39    41    43    1
    40    43    44    1
    41    44    45    1
    42    45    46    1
    43    46    47    1
    44    46    48    1
    45    48    49    1
    46    36    37   ar
    47    37    38   ar
    48    32    27   ar
    49    38    33   ar
    50    15     1    1
    51    49    43    1
    52    15     6   ar
    53    14     9   ar
    54    25    16   ar
    55    24    19   ar
    56    41    42    1
@<TRIPOS>MOLECULE
*****
 49 56 0 0 0
SMALL
GASTEIGER

@<TRIPOS>ATOM
      1 N          59.8516   82.0599    8.2856 N.am    1  UNL1       -0.0905
      2 C          59.7997   81.7980    6.9342 C.2     1  UNL1        0.4229
      3 O          60.3587   82.5678    6.1038 O.2     1  UNL1       -0.2135
      4 C          59.0956   80.7005    6.4451 C.2     1  UNL1        0.1157
      5 C          58.3760   79.9019    7.3175 C.2     1  UNL1        0.0173
      6 C          58.4276   80.1489    8.6891 C.ar    1  UNL1        0.0828
      7 C          57.6290   79.3984    9.5575 C.ar    1  UNL1        0.1047
      8 N          57.6499   79.6432   10.8876 N.ar    1  UNL1       -0.2434
      9 C          58.4940   80.5494   11.4384 C.ar    1  UNL1        0.0870
     10 C          58.4853   80.7268   12.8257 C.ar    1  UNL1        0.0193
     11 C          59.3983   81.5871   13.4320 C.ar    1  UNL1        0.0016
     12 C          60.3890   82.2156   12.6667 C.ar    1  UNL1        0.0018
     13 C          60.4195   82.0042   11.2782 C.ar    1  UNL1        0.0075
     14 C          59.3978   81.2785   10.6221 C.ar    1  UNL1        0.0810
     15 C          59.2634   81.1817    9.1932 C.ar    1  UNL1        0.2297
     16 C          61.3734   83.1213   13.3081 C.ar    1  UNL1        0.0192
     17 C          60.9819   84.3951   13.7541 C.ar    1  UNL1        0.0988
     18 N          61.8919   85.2450   14.2998 N.ar    1  UNL1       -0.2438
     19 C          63.1985   84.9008   14.4430 C.ar    1  UNL1        0.0813
     20 C          64.1077   85.8067   15.0022 C.ar    1  UNL1        0.0191
     21 C          65.4524   85.4497   15.1432 C.ar    1  UNL1        0.0015
     22 C          65.8937   84.1906   14.7242 C.ar    1  UNL1        0.0001
     23 C          64.9926   83.2790   14.1648 C.ar    1  UNL1        0.0015
     24 C          63.6413   83.6283   14.0203 C.ar    1  UNL1        0.0177
     25 C          62.7190   82.7438   13.4473 C.ar    1  UNL1        0.0030
     26 C          59.2583   86.1892   10.9705 C.3     1  UNL1        0.0312
     27 C          60.1093   85.3783   10.0277 C.ar    1  UNL1       -0.0159
     28 C          59.5661   84.2127    9.4628 C.ar    1  UNL1        0.0648
     29 C          60.3588   83.3535    8.6863 C.ar    1  UNL1        0.2268
     30 C          61.6752   83.7250    8.3777 C.ar    1  UNL1        0.0691
     31 C          62.2125   84.9038    8.8929 C.ar    1  UNL1        0.0058
     32 C          61.4498   85.7337    9.7314 C.ar    1  UNL1       -0.0036
     33 C          62.1090   86.9028   10.3579 C.ar    1  UNL1       -0.0003
     34 C          62.4495   88.0099    9.5686 C.ar    1  UNL1        0.0001
     35 C          63.1274   89.0956   10.1243 C.ar    1  UNL1        0.0045
     36 C          63.4624   89.1042   11.4898 C.ar    1  UNL1        0.0534
     37 C          63.0945   88.0043   12.2861 C.ar    1  UNL1        0.0045
     38 C          62.4164   86.9168   11.7264 C.ar    1  UNL1        0.0001
     39 C          64.2350   90.2261   12.0743 C.2     1  UNL1        0.2458
     40 O          64.1436   91.3765   11.5645 O.2     1  UNL1       -0.2701
     41 N          65.0746   90.0261   13.2223 N.am    1  UNL1       -0.3024
     42 H          65.4299   89.0645   13.4244 H       1  UNL1        0.1497
     43 C          65.4194   91.1277   14.1285 C.3     1  UNL1        0.0746
     44 C          65.9213   90.5514   15.4744 C.3     1  UNL1        0.0369
     45 C          66.9483   91.4784   16.1398 C.3     1  UNL1        0.0738
     46 N          68.1462   91.7056   15.2901 N.3     1  UNL1       -0.2714
     47 C          69.2492   90.8093   15.6706 C.3     1  UNL1        0.0896
     48 C          67.8877   91.6193   13.8313 C.3     1  UNL1        0.0738
     49 C          66.4644   92.0653   13.4787 C.3     1  UNL1        0.0369
@<TRIPOS>BOND
     1    26    27    1
     2    27    28   ar
     3    28    29   ar
     4    29     1    1
     5     1     2    1
     6     2     3    2
     7     2     4    1
     8     4     5    2
     9     5     6    1
    10     6     7   ar
    11     7     8   ar
    12     8     9   ar
    13     9    10   ar
    14    10    11   ar
    15    11    12   ar
    16    12    16    1
    17    16    17   ar
    18    17    18   ar
    19    18    19   ar
    20    19    20   ar
    21    20    21   ar
    22    21    22   ar
    23    22    23   ar
    24    23    24   ar
    25    24    25   ar
    26    12    13   ar
    27    13    14   ar
    28    14    15   ar
    29    29    30   ar
    30    30    31   ar
    31    31    32   ar
    32    32    33    1
    33    33    34   ar
    34    34    35   ar
    35    35    36   ar
    36    36    39    1
    37    39    40    2
    38    39    41   am
    39    41    43    1
    40    43    44    1
    41    44    45    1
    42    45    46    1
    43    46    47    1
    44    46    48    1
    45    48    49    1
    46    36    37   ar
    47    37    38   ar
    48    32    27   ar
    49    38    33   ar
    50    15     1    1
    51    49    43    1
    52    15     6   ar
    53    14     9   ar
    54    25    16   ar
    55    24    19   ar
    56    41    42    1
