@<TRIPOS>MOLECULE
*****
 40 44 0 0 0
SMALL
GASTEIGER

@<TRIPOS>ATOM
      1 C         -22.7655   -8.1883   -8.7897 C.2     1  UNL1        0.2506
      2 O         -23.8341   -8.7986   -8.5136 O.2     1  UNL1       -0.2699
      3 N         -22.7658   -7.1736   -9.8142 N.am    1  UNL1       -0.2680
      4 C         -21.9619   -5.9549   -9.6631 C.3     1  UNL1        0.1412
      5 C         -21.4309   -5.4616  -11.0110 C.3     1  UNL1        0.2268
      6 O         -20.8290   -6.5203  -11.7521 O.3     1  UNL1       -0.4739
      7 C         -21.4974   -7.5664  -12.4179 C.ar    1  UNL1        0.1363
      8 C         -20.7793   -8.2010  -13.4325 C.ar    1  UNL1        0.0366
      9 C         -21.3389   -9.2362  -14.1697 C.ar    1  UNL1        0.0032
     10 C         -22.6317   -9.6862  -13.8942 C.ar    1  UNL1        0.0027
     11 C         -23.3812   -9.0813  -12.8569 C.ar    1  UNL1        0.0353
     12 C         -22.8163   -8.0110  -12.1039 C.ar    1  UNL1        0.0344
     13 C         -23.6094   -7.3368  -11.0009 C.3     1  UNL1        0.1237
     14 C         -23.1705  -10.8037  -14.7006 C.ar    1  UNL1        0.0016
     15 C         -23.5371  -10.5965  -16.0564 C.ar    1  UNL1        0.0016
     16 C         -24.0553  -11.6530  -16.8286 C.ar    1  UNL1        0.0206
     17 C         -24.2014  -12.8930  -16.2135 C.ar    1  UNL1        0.0985
     18 N         -24.6741  -14.0302  -16.7542 N.ar    1  UNL1       -0.2241
     19 C         -24.6003  -14.9097  -15.7204 C.ar    1  UNL1        0.1750
     20 N         -24.1088  -14.3655  -14.5811 N.ar    1  UNL1       -0.3349
     21 C         -23.8625  -13.0924  -14.9103 C.ar    1  UNL1        0.0757
     22 C         -23.3463  -12.0756  -14.1114 C.ar    1  UNL1        0.0185
     23 H         -23.9584  -14.8345  -13.6603 H       1  UNL1        0.1675
     24 C         -20.3860   -9.0615   -8.7979 C.ar    1  UNL1        0.0503
     25 C         -19.2055   -9.3373   -8.0782 C.ar    1  UNL1        0.0328
     26 C         -19.1463   -9.1449   -6.6930 C.ar    1  UNL1        0.1069
     27 C         -20.2745   -8.6866   -6.0085 C.ar    1  UNL1        0.0186
     28 C         -21.4475   -8.3993   -6.7042 C.ar    1  UNL1        0.0071
     29 C         -21.5178   -8.5757   -8.0955 C.ar    1  UNL1        0.0667
     30 S         -17.6690   -9.5218   -5.8122 S.O2    1  UNL1        0.0105
     31 C         -18.0828  -10.0429   -4.1634 C.3     1  UNL1        0.1816
     32 O         -16.7869   -8.3064   -5.7477 O.2     1  UNL1       -0.1686
     33 O         -16.9241  -10.6211   -6.5165 O.2     1  UNL1       -0.1686
     34 N         -20.4559   -9.3243  -10.2158 N.pl3   1  UNL1       -0.3325
     35 H         -20.9333   -8.6317  -10.8357 H       1  UNL1        0.1468
     36 C         -20.9587  -11.5321  -11.1915 C.3     1  UNL1        0.0229
     37 C         -19.8756  -10.5188  -10.8344 C.3     1  UNL1        0.0871
     38 C         -24.7613   -9.5523  -12.6025 C.2     1  UNL1        0.1733
     39 C         -25.9253   -8.9547  -13.3290 C.3     1  UNL1        0.0773
     40 O         -24.9638  -10.4349  -11.7269 O.2     1  UNL1       -0.2913
@<TRIPOS>BOND
     1    36    37    1
     2    37    34    1
     3    34    24    1
     4    24    25   ar
     5    25    26   ar
     6    26    30    1
     7    30    31    1
     8    30    32    2
     9    30    33    2
    10    26    27   ar
    11    27    28   ar
    12    28    29   ar
    13    29     1    1
    14     1     2    2
    15     1     3   am
    16     3     4    1
    17     4     5    1
    18     5     6    1
    19     6     7    1
    20     7     8   ar
    21     8     9   ar
    22     9    10   ar
    23    10    14    1
    24    14    15   ar
    25    15    16   ar
    26    16    17   ar
    27    17    18   ar
    28    18    19   ar
    29    19    20   ar
    30    20    21   ar
    31    21    22   ar
    32    10    11   ar
    33    11    38    1
    34    38    39    1
    35    38    40    2
    36    11    12   ar
    37    12    13    1
    38    29    24   ar
    39    13     3    1
    40    12     7   ar
    41    22    14   ar
    42    21    17   ar
    43    34    35    1
    44    20    23    1
@<TRIPOS>MOLECULE
*****
 40 44 0 0 0
SMALL
GASTEIGER

@<TRIPOS>ATOM
      1 C         -22.6431   -8.4865   -8.6001 C.2     1  UNL1        0.2506
      2 O         -23.5541   -9.3561   -8.5329 O.2     1  UNL1       -0.2699
      3 N         -22.8242   -7.3242   -9.4339 N.am    1  UNL1       -0.2680
      4 C         -22.3342   -6.0090   -9.0043 C.3     1  UNL1        0.1412
      5 C         -21.8611   -5.1699  -10.1934 C.3     1  UNL1        0.2268
      6 O         -20.9914   -5.9147  -11.0426 O.3     1  UNL1       -0.4739
      7 C         -21.3623   -6.9393  -11.9354 C.ar    1  UNL1        0.1363
      8 C         -20.4636   -7.2016  -12.9704 C.ar    1  UNL1        0.0366
      9 C         -20.7275   -8.1786  -13.9212 C.ar    1  UNL1        0.0032
     10 C         -21.8935   -8.9436  -13.8486 C.ar    1  UNL1        0.0027
     11 C         -22.8171   -8.7208  -12.7993 C.ar    1  UNL1        0.0353
     12 C         -22.5569   -7.7118  -11.8266 C.ar    1  UNL1        0.0344
     13 C         -23.5424   -7.4444  -10.7053 C.3     1  UNL1        0.1237
     14 C         -22.1146   -9.9820  -14.8792 C.ar    1  UNL1        0.0016
     15 C         -21.7030  -11.3207  -14.6465 C.ar    1  UNL1        0.0016
     16 C         -21.9049  -12.3131  -15.6239 C.ar    1  UNL1        0.0206
     17 C         -22.5089  -11.9315  -16.8184 C.ar    1  UNL1        0.0985
     18 N         -22.7939  -12.7050  -17.8813 N.ar    1  UNL1       -0.2241
     19 C         -23.3630  -11.8274  -18.7495 C.ar    1  UNL1        0.1750
     20 N         -23.4374  -10.5626  -18.2695 N.ar    1  UNL1       -0.3349
     21 C         -22.8938  -10.6465  -17.0499 C.ar    1  UNL1        0.0757
     22 C         -22.7133   -9.6347  -16.1107 C.ar    1  UNL1        0.0185
     23 H         -23.8290   -9.7193  -18.7447 H       1  UNL1        0.1675
     24 C         -20.1499   -8.9393   -8.5381 C.ar    1  UNL1        0.0503
     25 C         -18.9718   -9.0706   -7.7749 C.ar    1  UNL1        0.0328
     26 C         -19.0072   -8.9889   -6.3779 C.ar    1  UNL1        0.1069
     27 C         -20.2265   -8.7883   -5.7265 C.ar    1  UNL1        0.0186
     28 C         -21.4003   -8.6464   -6.4645 C.ar    1  UNL1        0.0071
     29 C         -21.3783   -8.7139   -7.8669 C.ar    1  UNL1        0.0667
     30 S         -17.5266   -9.1827   -5.4450 S.O2    1  UNL1        0.0105
     31 C         -17.9371   -9.4318   -3.7331 C.3     1  UNL1        0.1816
     32 O         -16.6704   -7.9548   -5.5821 O.2     1  UNL1       -0.1686
     33 O         -16.7555  -10.3674   -5.9562 O.2     1  UNL1       -0.1686
     34 N         -20.1115   -9.0892   -9.9735 N.pl3   1  UNL1       -0.3325
     35 H         -20.4270   -8.2943  -10.5737 H       1  UNL1        0.1468
     36 C         -20.8020  -11.2247  -10.9944 C.3     1  UNL1        0.0229
     37 C         -19.6373  -10.3073  -10.6350 C.3     1  UNL1        0.0871
     38 C         -24.0618   -9.5210  -12.7593 C.2     1  UNL1        0.1733
     39 C         -25.3166   -9.0264  -13.4079 C.3     1  UNL1        0.0773
     40 O         -24.0780  -10.6112  -12.1286 O.2     1  UNL1       -0.2913
@<TRIPOS>BOND
     1    36    37    1
     2    37    34    1
     3    34    24    1
     4    24    25   ar
     5    25    26   ar
     6    26    30    1
     7    30    31    1
     8    30    32    2
     9    30    33    2
    10    26    27   ar
    11    27    28   ar
    12    28    29   ar
    13    29     1    1
    14     1     2    2
    15     1     3   am
    16     3     4    1
    17     4     5    1
    18     5     6    1
    19     6     7    1
    20     7     8   ar
    21     8     9   ar
    22     9    10   ar
    23    10    14    1
    24    14    15   ar
    25    15    16   ar
    26    16    17   ar
    27    17    18   ar
    28    18    19   ar
    29    19    20   ar
    30    20    21   ar
    31    21    22   ar
    32    10    11   ar
    33    11    38    1
    34    38    39    1
    35    38    40    2
    36    11    12   ar
    37    12    13    1
    38    29    24   ar
    39    13     3    1
    40    12     7   ar
    41    22    14   ar
    42    21    17   ar
    43    34    35    1
    44    20    23    1
@<TRIPOS>MOLECULE
*****
 40 44 0 0 0
SMALL
GASTEIGER

@<TRIPOS>ATOM
      1 C         -26.2663   -8.4483  -12.3413 C.2     1  UNL1        0.2506
      2 O         -26.7731   -8.4013  -11.1873 O.2     1  UNL1       -0.2699
      3 N         -25.5115   -9.6090  -12.7441 N.am    1  UNL1       -0.2680
      4 C         -25.6019  -10.1237  -14.1157 C.3     1  UNL1        0.1412
      5 C         -24.2704  -10.7169  -14.5819 C.3     1  UNL1        0.2268
      6 O         -23.1850   -9.8318  -14.3161 O.3     1  UNL1       -0.4739
      7 C         -22.6062   -9.5646  -13.0599 C.ar    1  UNL1        0.1363
      8 C         -21.3079   -9.0531  -13.0826 C.ar    1  UNL1        0.0366
      9 C         -20.6281   -8.7650  -11.9066 C.ar    1  UNL1        0.0032
     10 C         -21.2410   -8.9575  -10.6667 C.ar    1  UNL1        0.0027
     11 C         -22.5654   -9.4533  -10.6058 C.ar    1  UNL1        0.0353
     12 C         -23.2644   -9.7612  -11.8093 C.ar    1  UNL1        0.0344
     13 C         -24.6771  -10.3111  -11.7655 C.3     1  UNL1        0.1237
     14 C         -20.4751   -8.6177   -9.4472 C.ar    1  UNL1        0.0016
     15 C         -20.4906   -7.2924   -8.9381 C.ar    1  UNL1        0.0016
     16 C         -19.7604   -6.9599   -7.7817 C.ar    1  UNL1        0.0206
     17 C         -19.0231   -7.9693   -7.1695 C.ar    1  UNL1        0.0985
     18 N         -18.2572   -7.8774   -6.0675 N.ar    1  UNL1       -0.2241
     19 C         -17.7774   -9.1415   -5.9269 C.ar    1  UNL1        0.1750
     20 N         -18.2112   -9.9947   -6.8859 N.ar    1  UNL1       -0.3349
     21 C         -18.9960   -9.2382   -7.6616 C.ar    1  UNL1        0.0757
     22 C         -19.7035   -9.6096   -8.8018 C.ar    1  UNL1        0.0185
     23 H         -17.9832  -11.0081   -6.9922 H       1  UNL1        0.1675
     24 C         -25.3141   -6.4240  -13.5330 C.ar    1  UNL1        0.0503
     25 C         -25.5034   -5.3734  -14.4540 C.ar    1  UNL1        0.0328
     26 C         -26.7470   -5.1654  -15.0619 C.ar    1  UNL1        0.1069
     27 C         -27.8215   -5.9994  -14.7439 C.ar    1  UNL1        0.0186
     28 C         -27.6512   -7.0492  -13.8431 C.ar    1  UNL1        0.0071
     29 C         -26.4063   -7.2775  -13.2349 C.ar    1  UNL1        0.0667
     30 S         -26.9659   -3.8303  -16.1887 S.O2    1  UNL1        0.0105
     31 C         -28.7003   -3.4738  -16.3499 C.3     1  UNL1        0.1816
     32 O         -26.4019   -4.1969  -17.5330 O.2     1  UNL1       -0.1686
     33 O         -26.2460   -2.6129  -15.6798 O.2     1  UNL1       -0.1686
     34 N         -24.0455   -6.5899  -12.8640 N.pl3   1  UNL1       -0.3325
     35 H         -23.3180   -7.1981  -13.3029 H       1  UNL1        0.1468
     36 C         -22.2886   -5.4103  -11.5987 C.3     1  UNL1        0.0229
     37 C         -23.7219   -5.9329  -11.5953 C.3     1  UNL1        0.0871
     38 C         -23.1847   -9.6800   -9.2806 C.2     1  UNL1        0.1733
     39 C         -23.9061   -8.5786   -8.5690 C.3     1  UNL1        0.0773
     40 O         -23.0609  -10.8023   -8.7221 O.2     1  UNL1       -0.2913
@<TRIPOS>BOND
     1    36    37    1
     2    37    34    1
     3    34    24    1
     4    24    25   ar
     5    25    26   ar
     6    26    30    1
     7    30    31    1
     8    30    32    2
     9    30    33    2
    10    26    27   ar
    11    27    28   ar
    12    28    29   ar
    13    29     1    1
    14     1     2    2
    15     1     3   am
    16     3     4    1
    17     4     5    1
    18     5     6    1
    19     6     7    1
    20     7     8   ar
    21     8     9   ar
    22     9    10   ar
    23    10    14    1
    24    14    15   ar
    25    15    16   ar
    26    16    17   ar
    27    17    18   ar
    28    18    19   ar
    29    19    20   ar
    30    20    21   ar
    31    21    22   ar
    32    10    11   ar
    33    11    38    1
    34    38    39    1
    35    38    40    2
    36    11    12   ar
    37    12    13    1
    38    29    24   ar
    39    13     3    1
    40    12     7   ar
    41    22    14   ar
    42    21    17   ar
    43    34    35    1
    44    20    23    1
@<TRIPOS>MOLECULE
*****
 40 44 0 0 0
SMALL
GASTEIGER

@<TRIPOS>ATOM
      1 C         -22.6042   -7.7053  -13.5108 C.2     1  UNL1        0.2506
      2 O         -21.6051   -6.9357  -13.5238 O.2     1  UNL1       -0.2699
      3 N         -23.7432   -7.3845  -12.6868 N.am    1  UNL1       -0.2680
      4 C         -25.1080   -7.6493  -13.1576 C.3     1  UNL1        0.1412
      5 C         -26.0346   -8.0389  -12.0036 C.3     1  UNL1        0.2268
      6 O         -25.4488   -9.0474  -11.1838 O.3     1  UNL1       -0.4739
      7 C         -24.3993   -8.8754  -10.2601 C.ar    1  UNL1        0.1363
      8 C         -24.2987   -9.8468   -9.2630 C.ar    1  UNL1        0.0366
      9 C         -23.3136   -9.7756   -8.2869 C.ar    1  UNL1        0.0032
     10 C         -22.3791   -8.7381   -8.2954 C.ar    1  UNL1        0.0027
     11 C         -22.4365   -7.7476   -9.3050 C.ar    1  UNL1        0.0353
     12 C         -23.4522   -7.8092  -10.3032 C.ar    1  UNL1        0.0344
     13 C         -23.5427   -6.7477  -11.3827 C.3     1  UNL1        0.1237
     14 C         -21.3416   -8.7220   -7.2407 C.ar    1  UNL1        0.0016
     15 C         -19.9709   -8.5907   -7.5866 C.ar    1  UNL1        0.0016
     16 C         -18.9775   -8.5800   -6.5896 C.ar    1  UNL1        0.0206
     17 C         -19.3877   -8.7115   -5.2660 C.ar    1  UNL1        0.0985
     18 N         -18.6181   -8.7302   -4.1631 N.ar    1  UNL1       -0.2241
     19 C         -19.5264   -8.8838   -3.1635 C.ar    1  UNL1        0.1750
     20 N         -20.8061   -8.9603   -3.6022 N.ar    1  UNL1       -0.3349
     21 C         -20.6999   -8.8499   -4.9313 C.ar    1  UNL1        0.0757
     22 C         -21.7138   -8.8650   -5.8854 C.ar    1  UNL1        0.0185
     23 H         -21.6727   -9.0783   -3.0318 H       1  UNL1        0.1675
     24 C         -22.4319  -10.2284  -13.6805 C.ar    1  UNL1        0.0503
     25 C         -22.4709  -11.3832  -14.4884 C.ar    1  UNL1        0.0328
     26 C         -22.6212  -11.2848  -15.8766 C.ar    1  UNL1        0.1069
     27 C         -22.7204  -10.0265  -16.4751 C.ar    1  UNL1        0.0186
     28 C         -22.6937   -8.8739  -15.6919 C.ar    1  UNL1        0.0071
     29 C         -22.5558   -8.9577  -14.2970 C.ar    1  UNL1        0.0667
     30 S         -22.6403  -12.7402  -16.8674 S.O2    1  UNL1        0.0105
     31 C         -22.1052  -14.1255  -15.8898 C.3     1  UNL1        0.1816
     32 O         -21.7200  -12.5710  -18.0438 O.2     1  UNL1       -0.1686
     33 O         -24.0323  -12.9898  -17.3765 O.2     1  UNL1       -0.1686
     34 N         -22.2123  -10.3388  -12.2578 N.pl3   1  UNL1       -0.3325
     35 H         -22.7644   -9.7305  -11.6121 H       1  UNL1        0.1468
     36 C         -20.2307  -10.5469  -10.8055 C.3     1  UNL1        0.0229
     37 C         -21.2534  -11.2776  -11.6701 C.3     1  UNL1        0.0871
     38 C         -21.4560   -6.6390   -9.2769 C.2     1  UNL1        0.1733
     39 C         -20.2668   -6.6393  -10.1856 C.3     1  UNL1        0.0773
     40 O         -21.5984   -5.7063   -8.4424 O.2     1  UNL1       -0.2913
@<TRIPOS>BOND
     1    36    37    1
     2    37    34    1
     3    34    24    1
     4    24    25   ar
     5    25    26   ar
     6    26    30    1
     7    30    31    1
     8    30    32    2
     9    30    33    2
    10    26    27   ar
    11    27    28   ar
    12    28    29   ar
    13    29     1    1
    14     1     2    2
    15     1     3   am
    16     3     4    1
    17     4     5    1
    18     5     6    1
    19     6     7    1
    20     7     8   ar
    21     8     9   ar
    22     9    10   ar
    23    10    14    1
    24    14    15   ar
    25    15    16   ar
    26    16    17   ar
    27    17    18   ar
    28    18    19   ar
    29    19    20   ar
    30    20    21   ar
    31    21    22   ar
    32    10    11   ar
    33    11    38    1
    34    38    39    1
    35    38    40    2
    36    11    12   ar
    37    12    13    1
    38    29    24   ar
    39    13     3    1
    40    12     7   ar
    41    22    14   ar
    42    21    17   ar
    43    34    35    1
    44    20    23    1
@<TRIPOS>MOLECULE
*****
 40 44 0 0 0
SMALL
GASTEIGER

@<TRIPOS>ATOM
      1 C         -23.2294   -8.7257  -13.6891 C.2     1  UNL1        0.2506
      2 O         -22.1493   -8.1433  -13.9805 O.2     1  UNL1       -0.2699
      3 N         -24.1814   -8.0752  -12.8233 N.am    1  UNL1       -0.2680
      4 C         -25.6237   -8.2018  -13.0647 C.3     1  UNL1        0.1412
      5 C         -26.4139   -8.2108  -11.7541 C.3     1  UNL1        0.2268
      6 O         -25.8541   -9.1258  -10.8152 O.3     1  UNL1       -0.4739
      7 C         -24.6665   -8.9523  -10.0777 C.ar    1  UNL1        0.1363
      8 C         -24.5510   -9.7197   -8.9177 C.ar    1  UNL1        0.0366
      9 C         -23.4324   -9.6235   -8.1007 C.ar    1  UNL1        0.0032
     10 C         -22.3790   -8.7705   -8.4363 C.ar    1  UNL1        0.0027
     11 C         -22.4514   -7.9939   -9.6175 C.ar    1  UNL1        0.0353
     12 C         -23.6020   -8.0802  -10.4545 C.ar    1  UNL1        0.0344
     13 C         -23.7077   -7.2427  -11.7146 C.3     1  UNL1        0.1237
     14 C         -21.2047   -8.7212   -7.5374 C.ar    1  UNL1        0.0016
     15 C         -19.8911   -8.7070   -8.0758 C.ar    1  UNL1        0.0016
     16 C         -18.7689   -8.6656   -7.2274 C.ar    1  UNL1        0.0206
     17 C         -18.9960   -8.6490   -5.8543 C.ar    1  UNL1        0.0985
     18 N         -18.0817   -8.6133   -4.8684 N.ar    1  UNL1       -0.2241
     19 C         -18.8478   -8.6179   -3.7456 C.ar    1  UNL1        0.1750
     20 N         -20.1784   -8.6555   -3.9985 N.ar    1  UNL1       -0.3349
     21 C         -20.2537   -8.6749   -5.3342 C.ar    1  UNL1        0.0757
     22 C         -21.3905   -8.7154   -6.1370 C.ar    1  UNL1        0.0185
     23 H         -20.9615   -8.6669   -3.3080 H       1  UNL1        0.1675
     24 C         -23.1911  -11.2447  -13.4106 C.ar    1  UNL1        0.0503
     25 C         -23.5138  -12.5154  -13.9293 C.ar    1  UNL1        0.0328
     26 C         -24.0881  -12.6492  -15.1988 C.ar    1  UNL1        0.1069
     27 C         -24.3336  -11.5115  -15.9713 C.ar    1  UNL1        0.0186
     28 C         -24.0303  -10.2463  -15.4717 C.ar    1  UNL1        0.0071
     29 C         -23.4653  -10.0959  -14.1950 C.ar    1  UNL1        0.0667
     30 S         -24.4578  -14.2484  -15.8358 S.O2    1  UNL1        0.0105
     31 C         -23.0992  -15.3450  -15.4999 C.3     1  UNL1        0.1816
     32 O         -24.6834  -14.1690  -17.3199 O.2     1  UNL1       -0.1686
     33 O         -25.7056  -14.7779  -15.1863 O.2     1  UNL1       -0.1686
     34 N         -22.5405  -11.1227  -12.1275 N.pl3   1  UNL1       -0.3325
     35 H         -23.0142  -10.5812  -11.3698 H       1  UNL1        0.1468
     36 C         -20.4083  -10.8374  -10.9227 C.3     1  UNL1        0.0229
     37 C         -21.2434  -11.7353  -11.8303 C.3     1  UNL1        0.0871
     38 C         -21.3381   -7.0725   -9.9379 C.2     1  UNL1        0.1733
     39 C         -21.3392   -5.6609   -9.4408 C.3     1  UNL1        0.0773
     40 O         -20.4001   -7.4678  -10.6800 O.2     1  UNL1       -0.2913
@<TRIPOS>BOND
     1    36    37    1
     2    37    34    1
     3    34    24    1
     4    24    25   ar
     5    25    26   ar
     6    26    30    1
     7    30    31    1
     8    30    32    2
     9    30    33    2
    10    26    27   ar
    11    27    28   ar
    12    28    29   ar
    13    29     1    1
    14     1     2    2
    15     1     3   am
    16     3     4    1
    17     4     5    1
    18     5     6    1
    19     6     7    1
    20     7     8   ar
    21     8     9   ar
    22     9    10   ar
    23    10    14    1
    24    14    15   ar
    25    15    16   ar
    26    16    17   ar
    27    17    18   ar
    28    18    19   ar
    29    19    20   ar
    30    20    21   ar
    31    21    22   ar
    32    10    11   ar
    33    11    38    1
    34    38    39    1
    35    38    40    2
    36    11    12   ar
    37    12    13    1
    38    29    24   ar
    39    13     3    1
    40    12     7   ar
    41    22    14   ar
    42    21    17   ar
    43    34    35    1
    44    20    23    1
@<TRIPOS>MOLECULE
*****
 40 44 0 0 0
SMALL
GASTEIGER

@<TRIPOS>ATOM
      1 C         -20.0763   -8.7350  -11.3852 C.2     1  UNL1        0.2506
      2 O         -19.6962   -7.8139  -12.1584 O.2     1  UNL1       -0.2699
      3 N         -20.7356   -9.8970  -11.9274 N.am    1  UNL1       -0.2680
      4 C         -20.4801  -11.2317  -11.3726 C.3     1  UNL1        0.1412
      5 C         -21.7294  -12.1136  -11.4329 C.3     1  UNL1        0.2268
      6 O         -22.8725  -11.4321  -10.9221 O.3     1  UNL1       -0.4739
      7 C         -23.5909  -10.4011  -11.5587 C.ar    1  UNL1        0.1363
      8 C         -24.8997  -10.2055  -11.1154 C.ar    1  UNL1        0.0366
      9 C         -25.7109   -9.2290  -11.6779 C.ar    1  UNL1        0.0032
     10 C         -25.2245   -8.3976  -12.6890 C.ar    1  UNL1        0.0027
     11 C         -23.8944   -8.5521  -13.1480 C.ar    1  UNL1        0.0353
     12 C         -23.0605   -9.5600  -12.5819 C.ar    1  UNL1        0.0344
     13 C         -21.6386   -9.7544  -13.0725 C.3     1  UNL1        0.1237
     14 C         -26.1279   -7.3634  -13.2398 C.ar    1  UNL1        0.0016
     15 C         -25.7166   -6.0053  -13.2875 C.ar    1  UNL1        0.0016
     16 C         -26.5722   -5.0148  -13.8051 C.ar    1  UNL1        0.0206
     17 C         -27.8275   -5.4143  -14.2543 C.ar    1  UNL1        0.0985
     18 N         -28.7980   -4.6449  -14.7790 N.ar    1  UNL1       -0.2241
     19 C         -29.7892   -5.5399  -15.0325 C.ar    1  UNL1        0.1750
     20 N         -29.4713   -6.8112  -14.6883 N.ar    1  UNL1       -0.3349
     21 C         -28.2300   -6.7135  -14.1988 C.ar    1  UNL1        0.0757
     22 C         -27.4155   -7.7243  -13.6954 C.ar    1  UNL1        0.0185
     23 H         -30.0615   -7.6673  -14.7842 H       1  UNL1        0.1675
     24 C         -20.7093   -7.7025   -9.1586 C.ar    1  UNL1        0.0503
     25 C         -20.5260   -7.6548   -7.7615 C.ar    1  UNL1        0.0328
     26 C         -19.5506   -8.4410   -7.1370 C.ar    1  UNL1        0.1069
     27 C         -18.7364   -9.2753   -7.9066 C.ar    1  UNL1        0.0186
     28 C         -18.9092   -9.3432   -9.2879 C.ar    1  UNL1        0.0071
     29 C         -19.8917   -8.5696   -9.9266 C.ar    1  UNL1        0.0667
     30 S         -19.3226   -8.3443   -5.3938 S.O2    1  UNL1        0.0105
     31 C         -18.1858   -9.6101   -4.8772 C.3     1  UNL1        0.1816
     32 O         -20.6388   -8.5360   -4.6936 O.2     1  UNL1       -0.1686
     33 O         -18.7740   -6.9937   -5.0274 O.2     1  UNL1       -0.1686
     34 N         -21.6742   -6.8404   -9.7990 N.pl3   1  UNL1       -0.3325
     35 H         -22.5051   -7.2694  -10.2649 H       1  UNL1        0.1468
     36 C         -21.5208   -4.8517  -11.2485 C.3     1  UNL1        0.0229
     37 C         -21.5497   -5.3808   -9.8179 C.3     1  UNL1        0.0871
     38 C         -23.4091   -7.6816  -14.2425 C.2     1  UNL1        0.1733
     39 C         -23.6477   -8.0409  -15.6756 C.3     1  UNL1        0.0773
     40 O         -22.7437   -6.6488  -13.9647 O.2     1  UNL1       -0.2913
@<TRIPOS>BOND
     1    36    37    1
     2    37    34    1
     3    34    24    1
     4    24    25   ar
     5    25    26   ar
     6    26    30    1
     7    30    31    1
     8    30    32    2
     9    30    33    2
    10    26    27   ar
    11    27    28   ar
    12    28    29   ar
    13    29     1    1
    14     1     2    2
    15     1     3   am
    16     3     4    1
    17     4     5    1
    18     5     6    1
    19     6     7    1
    20     7     8   ar
    21     8     9   ar
    22     9    10   ar
    23    10    14    1
    24    14    15   ar
    25    15    16   ar
    26    16    17   ar
    27    17    18   ar
    28    18    19   ar
    29    19    20   ar
    30    20    21   ar
    31    21    22   ar
    32    10    11   ar
    33    11    38    1
    34    38    39    1
    35    38    40    2
    36    11    12   ar
    37    12    13    1
    38    29    24   ar
    39    13     3    1
    40    12     7   ar
    41    22    14   ar
    42    21    17   ar
    43    34    35    1
    44    20    23    1
@<TRIPOS>MOLECULE
*****
 40 44 0 0 0
SMALL
GASTEIGER

@<TRIPOS>ATOM
      1 C         -23.6765   -8.4239  -13.5372 C.2     1  UNL1        0.2506
      2 O         -22.6617   -7.7960  -13.9452 O.2     1  UNL1       -0.2699
      3 N         -24.4943   -7.8595  -12.4923 N.am    1  UNL1       -0.2680
      4 C         -25.9546   -8.0047  -12.5215 C.3     1  UNL1        0.1412
      5 C         -26.5354   -8.1249  -11.1108 C.3     1  UNL1        0.2268
      6 O         -25.8262   -9.0892  -10.3365 O.3     1  UNL1       -0.4739
      7 C         -24.5426   -8.9383   -9.7763 C.ar    1  UNL1        0.1363
      8 C         -24.2408   -9.7819   -8.7062 C.ar    1  UNL1        0.0366
      9 C         -23.0121   -9.7154   -8.0628 C.ar    1  UNL1        0.0032
     10 C         -22.0342   -8.8151   -8.4907 C.ar    1  UNL1        0.0027
     11 C         -22.2968   -7.9598   -9.5876 C.ar    1  UNL1        0.0353
     12 C         -23.5603   -8.0158  -10.2451 C.ar    1  UNL1        0.0344
     13 C         -23.8686   -7.0951  -11.4102 C.3     1  UNL1        0.1237
     14 C         -20.7374   -8.7997   -7.7785 C.ar    1  UNL1        0.0016
     15 C         -19.6074   -9.4551   -8.3345 C.ar    1  UNL1        0.0016
     16 C         -18.3717   -9.4495   -7.6607 C.ar    1  UNL1        0.0206
     17 C         -18.3053   -8.7911   -6.4362 C.ar    1  UNL1        0.0985
     18 N         -17.2390   -8.6632   -5.6264 N.ar    1  UNL1       -0.2241
     19 C         -17.7350   -7.9435   -4.5853 C.ar    1  UNL1        0.1750
     20 N         -19.0460   -7.6292   -4.7206 N.ar    1  UNL1       -0.3349
     21 C         -19.3897   -8.1720   -5.8941 C.ar    1  UNL1        0.0757
     22 C         -20.6297   -8.1531   -6.5270 C.ar    1  UNL1        0.0185
     23 H         -19.6463   -7.0882   -4.0594 H       1  UNL1        0.1675
     24 C         -23.4220  -10.1917  -15.3358 C.ar    1  UNL1        0.0503
     25 C         -23.6806  -11.5073  -15.7718 C.ar    1  UNL1        0.0328
     26 C         -24.4679  -12.3764  -15.0075 C.ar    1  UNL1        0.1069
     27 C         -25.0182  -11.9337  -13.8023 C.ar    1  UNL1        0.0186
     28 C         -24.7657  -10.6397  -13.3501 C.ar    1  UNL1        0.0071
     29 C         -23.9677   -9.7608  -14.1002 C.ar    1  UNL1        0.0667
     30 S         -24.7988  -14.0062  -15.5859 S.O2    1  UNL1        0.0105
     31 C         -23.4688  -15.0835  -15.1046 C.3     1  UNL1        0.1816
     32 O         -24.9245  -14.0025  -17.0838 O.2     1  UNL1       -0.1686
     33 O         -26.0888  -14.5026  -14.9952 O.2     1  UNL1       -0.1686
     34 N         -22.6624   -9.2837  -16.1623 N.pl3   1  UNL1       -0.3325
     35 H         -23.1508   -8.4720  -16.6030 H       1  UNL1        0.1468
     36 C         -20.5446   -8.0834  -16.5538 C.3     1  UNL1        0.0229
     37 C         -21.2263   -9.4401  -16.4061 C.3     1  UNL1        0.0871
     38 C         -21.2583   -6.9909  -10.0045 C.2     1  UNL1        0.1733
     39 C         -20.4624   -7.2048  -11.2538 C.3     1  UNL1        0.0773
     40 O         -21.0072   -5.9974   -9.2719 O.2     1  UNL1       -0.2913
@<TRIPOS>BOND
     1    36    37    1
     2    37    34    1
     3    34    24    1
     4    24    25   ar
     5    25    26   ar
     6    26    30    1
     7    30    31    1
     8    30    32    2
     9    30    33    2
    10    26    27   ar
    11    27    28   ar
    12    28    29   ar
    13    29     1    1
    14     1     2    2
    15     1     3   am
    16     3     4    1
    17     4     5    1
    18     5     6    1
    19     6     7    1
    20     7     8   ar
    21     8     9   ar
    22     9    10   ar
    23    10    14    1
    24    14    15   ar
    25    15    16   ar
    26    16    17   ar
    27    17    18   ar
    28    18    19   ar
    29    19    20   ar
    30    20    21   ar
    31    21    22   ar
    32    10    11   ar
    33    11    38    1
    34    38    39    1
    35    38    40    2
    36    11    12   ar
    37    12    13    1
    38    29    24   ar
    39    13     3    1
    40    12     7   ar
    41    22    14   ar
    42    21    17   ar
    43    34    35    1
    44    20    23    1
@<TRIPOS>MOLECULE
*****
 40 44 0 0 0
SMALL
GASTEIGER

@<TRIPOS>ATOM
      1 C         -22.3951   -8.8132  -13.6036 C.2     1  UNL1        0.2506
      2 O         -21.2964   -8.2032  -13.7101 O.2     1  UNL1       -0.2699
      3 N         -23.4989   -8.1844  -12.9212 N.am    1  UNL1       -0.2680
      4 C         -24.8740   -8.3515  -13.4064 C.3     1  UNL1        0.1412
      5 C         -25.8781   -8.3751  -12.2517 C.3     1  UNL1        0.2268
      6 O         -25.4651   -9.2696  -11.2214 O.3     1  UNL1       -0.4739
      7 C         -24.4276   -9.0601  -10.2919 C.ar    1  UNL1        0.1363
      8 C         -24.4942   -9.8179   -9.1218 C.ar    1  UNL1        0.0366
      9 C         -23.5362   -9.6871   -8.1252 C.ar    1  UNL1        0.0032
     10 C         -22.4632   -8.8074   -8.2826 C.ar    1  UNL1        0.0027
     11 C         -22.3508   -8.0392   -9.4662 C.ar    1  UNL1        0.0353
     12 C         -23.3370   -8.1612  -10.4881 C.ar    1  UNL1        0.0344
     13 C         -23.2454   -7.3335  -11.7557 C.3     1  UNL1        0.1237
     14 C         -21.4634   -8.7215   -7.1953 C.ar    1  UNL1        0.0016
     15 C         -21.8497   -8.9474   -5.8479 C.ar    1  UNL1        0.0016
     16 C         -20.9057   -8.8622   -4.8074 C.ar    1  UNL1        0.0206
     17 C         -19.5947   -8.5417   -5.1477 C.ar    1  UNL1        0.0985
     18 N         -18.5398   -8.4052   -4.3245 N.ar    1  UNL1       -0.2241
     19 C         -17.5302   -8.0874   -5.1774 C.ar    1  UNL1        0.1750
     20 N         -17.9174   -8.0231   -6.4742 N.ar    1  UNL1       -0.3349
     21 C         -19.2232   -8.3124   -6.4371 C.ar    1  UNL1        0.0757
     22 C         -20.1242   -8.3867   -7.4958 C.ar    1  UNL1        0.0185
     23 H         -17.3297   -7.7990   -7.3077 H       1  UNL1        0.1675
     24 C         -22.2178  -10.5063  -15.4815 C.ar    1  UNL1        0.0503
     25 C         -22.2683  -11.8542  -15.8920 C.ar    1  UNL1        0.0328
     26 C         -22.6025  -12.8692  -14.9878 C.ar    1  UNL1        0.1069
     27 C         -22.9042  -12.5449  -13.6630 C.ar    1  UNL1        0.0186
     28 C         -22.8501  -11.2192  -13.2363 C.ar    1  UNL1        0.0071
     29 C         -22.5045  -10.1919  -14.1290 C.ar    1  UNL1        0.0667
     30 S         -22.6849  -14.5421  -15.5305 S.O2    1  UNL1        0.0105
     31 C         -24.3528  -14.9230  -16.0145 C.3     1  UNL1        0.1816
     32 O         -22.2623  -15.4624  -14.4196 O.2     1  UNL1       -0.1686
     33 O         -21.7622  -14.7429  -16.6999 O.2     1  UNL1       -0.1686
     34 N         -21.9349   -9.4614  -16.4367 N.pl3   1  UNL1       -0.3325
     35 H         -20.9454   -9.1548  -16.5728 H       1  UNL1        0.1468
     36 C         -22.9757   -7.3031  -17.0180 C.3     1  UNL1        0.0229
     37 C         -22.9748   -8.8126  -17.2392 C.3     1  UNL1        0.0871
     38 C         -21.2232   -7.0896   -9.5989 C.2     1  UNL1        0.1733
     39 C         -21.3914   -5.6418   -9.2593 C.3     1  UNL1        0.0773
     40 O         -20.1198   -7.4964  -10.0503 O.2     1  UNL1       -0.2913
@<TRIPOS>BOND
     1    36    37    1
     2    37    34    1
     3    34    24    1
     4    24    25   ar
     5    25    26   ar
     6    26    30    1
     7    30    31    1
     8    30    32    2
     9    30    33    2
    10    26    27   ar
    11    27    28   ar
    12    28    29   ar
    13    29     1    1
    14     1     2    2
    15     1     3   am
    16     3     4    1
    17     4     5    1
    18     5     6    1
    19     6     7    1
    20     7     8   ar
    21     8     9   ar
    22     9    10   ar
    23    10    14    1
    24    14    15   ar
    25    15    16   ar
    26    16    17   ar
    27    17    18   ar
    28    18    19   ar
    29    19    20   ar
    30    20    21   ar
    31    21    22   ar
    32    10    11   ar
    33    11    38    1
    34    38    39    1
    35    38    40    2
    36    11    12   ar
    37    12    13    1
    38    29    24   ar
    39    13     3    1
    40    12     7   ar
    41    22    14   ar
    42    21    17   ar
    43    34    35    1
    44    20    23    1
@<TRIPOS>MOLECULE
*****
 40 44 0 0 0
SMALL
GASTEIGER

@<TRIPOS>ATOM
      1 C         -23.9375   -9.8878  -12.0339 C.2     1  UNL1        0.2506
      2 O         -24.8396   -9.9391  -11.1540 O.2     1  UNL1       -0.2699
      3 N         -23.2055   -8.6621  -12.2368 N.am    1  UNL1       -0.2680
      4 C         -21.7697   -8.6875  -12.5406 C.3     1  UNL1        0.1412
      5 C         -21.3737   -7.5442  -13.4777 C.3     1  UNL1        0.2268
      6 O         -22.2492   -7.4642  -14.5998 O.3     1  UNL1       -0.4739
      7 C         -23.5732   -6.9830  -14.6006 C.ar    1  UNL1        0.1363
      8 C         -24.0707   -6.5678  -15.8367 C.ar    1  UNL1        0.0366
      9 C         -25.3574   -6.0604  -15.9599 C.ar    1  UNL1        0.0032
     10 C         -26.1975   -5.9771  -14.8476 C.ar    1  UNL1        0.0027
     11 C         -25.7344   -6.4102  -13.5820 C.ar    1  UNL1        0.0353
     12 C         -24.4108   -6.9218  -13.4473 C.ar    1  UNL1        0.0344
     13 C         -23.8889   -7.3737  -12.0969 C.3     1  UNL1        0.1237
     14 C         -27.5640   -5.4438  -15.0410 C.ar    1  UNL1        0.0016
     15 C         -28.6911   -6.1848  -14.5978 C.ar    1  UNL1        0.0016
     16 C         -29.9945   -5.6869  -14.7829 C.ar    1  UNL1        0.0206
     17 C         -30.1330   -4.4570  -15.4195 C.ar    1  UNL1        0.0985
     18 N         -31.2717   -3.7988  -15.7013 N.ar    1  UNL1       -0.2241
     19 C         -30.8253   -2.6744  -16.3211 C.ar    1  UNL1        0.1750
     20 N         -29.4760   -2.6164  -16.4308 N.ar    1  UNL1       -0.3349
     21 C         -29.0554   -3.7494  -15.8568 C.ar    1  UNL1        0.0757
     22 C         -27.7499   -4.2047  -15.6936 C.ar    1  UNL1        0.0185
     23 H         -28.9007   -1.8605  -16.8642 H       1  UNL1        0.1675
     24 C         -22.6039  -11.9508  -12.6585 C.ar    1  UNL1        0.0503
     25 C         -22.4809  -13.1041  -13.4600 C.ar    1  UNL1        0.0328
     26 C         -23.4118  -13.3821  -14.4677 C.ar    1  UNL1        0.1069
     27 C         -24.4709  -12.5000  -14.6948 C.ar    1  UNL1        0.0186
     28 C         -24.6146  -11.3597  -13.9063 C.ar    1  UNL1        0.0071
     29 C         -23.6955  -11.0744  -12.8838 C.ar    1  UNL1        0.0667
     30 S         -23.2221  -14.8149  -15.4733 S.O2    1  UNL1        0.0105
     31 C         -24.7462  -15.1399  -16.3293 C.3     1  UNL1        0.1816
     32 O         -22.8654  -15.9979  -14.6173 O.2     1  UNL1       -0.1686
     33 O         -22.1206  -14.5926  -16.4715 O.2     1  UNL1       -0.1686
     34 N         -21.6030  -11.6407  -11.6653 N.pl3   1  UNL1       -0.3325
     35 H         -21.7703  -10.8442  -11.0102 H       1  UNL1        0.1468
     36 C         -19.4333  -11.7518  -10.4994 C.3     1  UNL1        0.0229
     37 C         -20.3593  -12.4017  -11.5228 C.3     1  UNL1        0.0871
     38 C         -26.6300   -6.2835  -12.4103 C.2     1  UNL1        0.1733
     39 C         -27.3401   -7.4764  -11.8511 C.3     1  UNL1        0.0773
     40 O         -26.8353   -5.1473  -11.9067 O.2     1  UNL1       -0.2913
@<TRIPOS>BOND
     1    36    37    1
     2    37    34    1
     3    34    24    1
     4    24    25   ar
     5    25    26   ar
     6    26    30    1
     7    30    31    1
     8    30    32    2
     9    30    33    2
    10    26    27   ar
    11    27    28   ar
    12    28    29   ar
    13    29     1    1
    14     1     2    2
    15     1     3   am
    16     3     4    1
    17     4     5    1
    18     5     6    1
    19     6     7    1
    20     7     8   ar
    21     8     9   ar
    22     9    10   ar
    23    10    14    1
    24    14    15   ar
    25    15    16   ar
    26    16    17   ar
    27    17    18   ar
    28    18    19   ar
    29    19    20   ar
    30    20    21   ar
    31    21    22   ar
    32    10    11   ar
    33    11    38    1
    34    38    39    1
    35    38    40    2
    36    11    12   ar
    37    12    13    1
    38    29    24   ar
    39    13     3    1
    40    12     7   ar
    41    22    14   ar
    42    21    17   ar
    43    34    35    1
    44    20    23    1
