@<TRIPOS>MOLECULE
*****
 51 57 0 0 0
SMALL
GASTEIGER

@<TRIPOS>ATOM
      1 C          62.0785   80.3560   11.7989 C.ar    1  UNL1        0.1388
      2 C          62.4922   81.2378   10.7955 C.ar    1  UNL1        0.0382
      3 C          61.6350   81.5676    9.7413 C.ar    1  UNL1        0.0176
      4 C          60.3372   81.0303    9.6805 C.ar    1  UNL1        0.0481
      5 C          59.9474   80.0995   10.6612 C.ar    1  UNL1        0.0176
      6 C          60.8196   79.7458   11.6919 C.ar    1  UNL1        0.0382
      7 N          59.4116   81.4736    8.6604 N.pl3   1  UNL1       -0.3041
      8 C          59.8884   81.6579    7.2872 C.3     1  UNL1        0.1122
      9 C          60.3897   83.0989    7.1246 C.3     1  UNL1        0.1122
     10 N          59.7780   83.9990    8.1210 N.pl3   1  UNL1       -0.3041
     11 C          58.4032   83.7364    8.5900 C.3     1  UNL1        0.1122
     12 C          58.2143   82.2564    8.9955 C.3     1  UNL1        0.1122
     13 C          60.4817   85.1974    8.5134 C.ar    1  UNL1        0.0480
     14 C          59.7815   86.3197    8.9857 C.ar    1  UNL1        0.0160
     15 C          60.4698   87.4430    9.4546 C.ar    1  UNL1        0.0190
     16 C          61.8762   87.4640    9.4739 C.ar    1  UNL1        0.0699
     17 C          62.5740   86.3533    8.9694 C.ar    1  UNL1        0.0190
     18 C          61.8858   85.2337    8.4983 C.ar    1  UNL1        0.0160
     19 N          62.6000   88.5806   10.0338 N.ar    1  UNL1       -0.2398
     20 C          62.9941   89.7108    9.4008 C.ar    1  UNL1        0.2073
     21 N          63.7392   90.5009   10.2034 N.ar    1  UNL1       -0.1442
     22 N          63.8373   89.8665   11.3623 N.ar    1  UNL1       -0.2024
     23 C          63.1437   88.7203   11.2603 C.ar    1  UNL1        0.3522
     24 O          63.0465   87.8752   12.1885 O.2     1  UNL1       -0.2444
     25 C          64.5486   90.3661   12.5453 C.3     1  UNL1        0.1099
     26 C          64.6610   89.2811   13.6250 C.3     1  UNL1        0.0265
     27 C          65.9165   90.9656   12.1573 C.3     1  UNL1        0.0245
     28 C          66.8976   91.0950   13.3246 C.3     1  UNL1        0.0021
     29 O          62.9410   80.1220   12.8813 O.3     1  UNL1       -0.4727
     30 C          63.9339   81.0295   13.3682 C.3     1  UNL1        0.2374
     31 C          61.9484   83.9575   13.5769 C.3     1  UNL1        0.2296
     32 O          61.1583   83.1046   14.3824 O.3     1  UNL1       -0.3267
     33 C          61.8953   81.9369   14.5697 C.3     1  UNL1        0.1783
     34 C          63.2864   82.2314   14.0826 C.3     1  UNL1        0.1909
     35 O          63.1491   83.3073   13.2101 O.3     1  UNL1       -0.3255
     36 C          62.2635   85.2491   14.3397 C.ar    1  UNL1        0.0409
     37 C          61.2177   86.1477   14.6512 C.ar    1  UNL1        0.0022
     38 C          61.4603   87.3022   15.3957 C.ar    1  UNL1        0.0113
     39 C          62.7402   87.5702   15.8770 C.ar    1  UNL1        0.0585
     40 CL         63.0288   88.9965   16.8554 Cl      1  UNL1       -0.0822
     41 C          63.7855   86.6884   15.6017 C.ar    1  UNL1        0.0226
     42 C          63.5622   85.5323   14.8432 C.ar    1  UNL1        0.0591
     43 CL         64.9391   84.4598   14.6003 Cl      1  UNL1       -0.0824
     44 C          61.1661   84.3173   12.2942 C.3     1  UNL1        0.1679
     45 C          58.6755   84.7618   12.4824 C.ar    1  UNL1        0.1205
     46 N          57.5188   84.0738   12.6089 N.ar    1  UNL1       -0.2293
     47 C          57.8937   82.7791   12.5840 C.ar    1  UNL1        0.1188
     48 C          59.2616   82.6967   12.4634 C.ar    1  UNL1        0.0979
     49 N          59.7517   83.9458   12.3969 N.ar    1  UNL1       -0.3084
     50 C          57.7289   86.8669   13.5083 C.3     1  UNL1        0.0084
     51 C          58.7597   86.2646   12.5563 C.3     1  UNL1        0.0640
@<TRIPOS>BOND
     1    50    51    1
     2    51    45    1
     3    45    46   ar
     4    46    47   ar
     5    47    48   ar
     6    48    49   ar
     7    49    44    1
     8    31    44    1
     9    31    36    1
    10    36    37   ar
    11    37    38   ar
    12    38    39   ar
    13    39    40    1
    14    39    41   ar
    15    41    42   ar
    16    42    43    1
    17    31    32    1
    18    32    33    1
    19    33    34    1
    20    34    30    1
    21    30    29    1
    22    29     1    1
    23     1     2   ar
    24     2     3   ar
    25     3     4   ar
    26     4     7    1
    27     7     8    1
    28     8     9    1
    29     9    10    1
    30    10    13    1
    31    13    14   ar
    32    14    15   ar
    33    15    16   ar
    34    16    19    1
    35    19    20   ar
    36    20    21   ar
    37    21    22   ar
    38    22    25    1
    39    25    26    1
    40    25    27    1
    41    27    28    1
    42    22    23   ar
    43    23    24    2
    44    16    17   ar
    45    17    18   ar
    46    10    11    1
    47    11    12    1
    48     4     5   ar
    49     5     6   ar
    50    34    35    1
    51    49    45   ar
    52    35    31    1
    53    42    36   ar
    54     6     1   ar
    55    12     7    1
    56    18    13   ar
    57    23    19   ar
@<TRIPOS>MOLECULE
*****
 51 57 0 0 0
SMALL
GASTEIGER

@<TRIPOS>ATOM
      1 C          58.6194   85.0273   10.1802 C.ar    1  UNL1        0.1388
      2 C          59.4176   86.0453   10.7114 C.ar    1  UNL1        0.0382
      3 C          59.7000   86.0861   12.0801 C.ar    1  UNL1        0.0176
      4 C          59.1991   85.0957   12.9431 C.ar    1  UNL1        0.0481
      5 C          58.3497   84.1073   12.4124 C.ar    1  UNL1        0.0176
      6 C          58.0414   84.0914   11.0511 C.ar    1  UNL1        0.0382
      7 N          59.5990   85.0700   14.3335 N.pl3   1  UNL1       -0.3041
      8 C          59.1368   86.1286   15.2349 C.3     1  UNL1        0.1122
      9 C          60.1504   87.2803   15.2096 C.3     1  UNL1        0.1122
     10 N          61.4838   86.8165   14.7806 N.pl3   1  UNL1       -0.3041
     11 C          61.9197   85.4469   15.1173 C.3     1  UNL1        0.1122
     12 C          60.8344   84.4031   14.7666 C.3     1  UNL1        0.1122
     13 C          62.3909   87.7551   14.1628 C.ar    1  UNL1        0.0480
     14 C          63.2286   88.5663   14.9457 C.ar    1  UNL1        0.0160
     15 C          64.1727   89.4045   14.3445 C.ar    1  UNL1        0.0190
     16 C          64.3093   89.4406   12.9449 C.ar    1  UNL1        0.0699
     17 C          63.4469   88.6533   12.1629 C.ar    1  UNL1        0.0190
     18 C          62.5024   87.8193   12.7641 C.ar    1  UNL1        0.0160
     19 N          65.3359   90.2354   12.3138 N.ar    1  UNL1       -0.2398
     20 C          66.4684   90.7198   12.8761 C.ar    1  UNL1        0.2073
     21 N          67.1547   91.5086   12.0214 N.ar    1  UNL1       -0.1442
     22 N          66.4496   91.5435   10.9003 N.ar    1  UNL1       -0.2024
     23 C          65.3652   90.7700   11.0757 C.ar    1  UNL1        0.3522
     24 O          64.4779   90.5982   10.1991 O.2     1  UNL1       -0.2444
     25 C          66.8274   92.2720    9.6831 C.3     1  UNL1        0.1099
     26 C          66.4063   93.7457    9.7646 C.3     1  UNL1        0.0265
     27 C          68.3294   92.0970    9.3761 C.3     1  UNL1        0.0245
     28 C          68.6719   90.7983    8.6426 C.3     1  UNL1        0.0021
     29 O          58.4343   84.9789    8.7896 O.3     1  UNL1       -0.4727
     30 C          59.4716   84.8415    7.8141 C.3     1  UNL1        0.2374
     31 C          61.6360   82.4603    9.2990 C.3     1  UNL1        0.2296
     32 O          62.3579   82.6913    8.1047 O.3     1  UNL1       -0.3267
     33 C          61.7378   83.7622    7.4643 C.3     1  UNL1        0.1783
     34 C          60.7833   84.3569    8.4615 C.3     1  UNL1        0.1909
     35 O          60.5332   83.3413    9.3800 O.3     1  UNL1       -0.3255
     36 C          62.5554   82.6584   10.5093 C.ar    1  UNL1        0.0409
     37 C          62.3624   83.7735   11.3563 C.ar    1  UNL1        0.0022
     38 C          63.1424   83.9513   12.4991 C.ar    1  UNL1        0.0113
     39 C          64.1067   83.0063   12.8439 C.ar    1  UNL1        0.0585
     40 CL         65.0491   83.2087   14.3088 Cl      1  UNL1       -0.0822
     41 C          64.3024   81.8858   12.0363 C.ar    1  UNL1        0.0226
     42 C          63.5380   81.6996   10.8776 C.ar    1  UNL1        0.0591
     43 CL         63.8284   80.2240    9.9592 Cl      1  UNL1       -0.0824
     44 C          61.1126   81.0069    9.3062 C.3     1  UNL1        0.1679
     45 C          58.6029   80.6724    9.4663 C.ar    1  UNL1        0.1205
     46 N          57.5230   80.6171    8.6552 N.ar    1  UNL1       -0.2293
     47 C          58.0160   80.8543    7.4231 C.ar    1  UNL1        0.1188
     48 C          59.3784   81.0299    7.4967 C.ar    1  UNL1        0.0979
     49 N          59.7457   80.9178    8.7842 N.ar    1  UNL1       -0.3084
     50 C          58.3685   78.8812   11.2316 C.3     1  UNL1        0.0084
     51 C          58.5493   80.3694   10.9415 C.3     1  UNL1        0.0640
@<TRIPOS>BOND
     1    50    51    1
     2    51    45    1
     3    45    46   ar
     4    46    47   ar
     5    47    48   ar
     6    48    49   ar
     7    49    44    1
     8    31    44    1
     9    31    36    1
    10    36    37   ar
    11    37    38   ar
    12    38    39   ar
    13    39    40    1
    14    39    41   ar
    15    41    42   ar
    16    42    43    1
    17    31    32    1
    18    32    33    1
    19    33    34    1
    20    34    30    1
    21    30    29    1
    22    29     1    1
    23     1     2   ar
    24     2     3   ar
    25     3     4   ar
    26     4     7    1
    27     7     8    1
    28     8     9    1
    29     9    10    1
    30    10    13    1
    31    13    14   ar
    32    14    15   ar
    33    15    16   ar
    34    16    19    1
    35    19    20   ar
    36    20    21   ar
    37    21    22   ar
    38    22    25    1
    39    25    26    1
    40    25    27    1
    41    27    28    1
    42    22    23   ar
    43    23    24    2
    44    16    17   ar
    45    17    18   ar
    46    10    11    1
    47    11    12    1
    48     4     5   ar
    49     5     6   ar
    50    34    35    1
    51    49    45   ar
    52    35    31    1
    53    42    36   ar
    54     6     1   ar
    55    12     7    1
    56    18    13   ar
    57    23    19   ar
@<TRIPOS>MOLECULE
*****
 51 57 0 0 0
SMALL
GASTEIGER

@<TRIPOS>ATOM
      1 C          63.5601   82.1093   13.2796 C.ar    1  UNL1        0.1388
      2 C          62.3380   81.6310   13.7625 C.ar    1  UNL1        0.0382
      3 C          61.4860   82.4659   14.4918 C.ar    1  UNL1        0.0176
      4 C          61.8365   83.8048   14.7387 C.ar    1  UNL1        0.0481
      5 C          63.0924   84.2637   14.3002 C.ar    1  UNL1        0.0176
      6 C          63.9552   83.4160   13.6036 C.ar    1  UNL1        0.0382
      7 N          60.8967   84.6981   15.3809 N.pl3   1  UNL1       -0.3041
      8 C          59.8098   85.2861   14.5936 C.3     1  UNL1        0.1122
      9 C          60.2941   86.6110   13.9899 C.3     1  UNL1        0.1122
     10 N          61.4158   87.1783   14.7627 N.pl3   1  UNL1       -0.3041
     11 C          61.4795   86.9559   16.2206 C.3     1  UNL1        0.1122
     12 C          61.2614   85.4676   16.5783 C.3     1  UNL1        0.1122
     13 C          62.3531   88.0564   14.1024 C.ar    1  UNL1        0.0480
     14 C          63.2169   88.8760   14.8473 C.ar    1  UNL1        0.0160
     15 C          64.1879   89.6535   14.2086 C.ar    1  UNL1        0.0190
     16 C          64.3256   89.6187   12.8091 C.ar    1  UNL1        0.0699
     17 C          63.4379   88.8237   12.0639 C.ar    1  UNL1        0.0190
     18 C          62.4666   88.0505   12.7024 C.ar    1  UNL1        0.0160
     19 N          65.3777   90.3488   12.1426 N.ar    1  UNL1       -0.2398
     20 C          66.5843   90.7024   12.6450 C.ar    1  UNL1        0.2073
     21 N          67.2830   91.4677   11.7791 N.ar    1  UNL1       -0.1442
     22 N          66.5124   91.6198   10.7121 N.ar    1  UNL1       -0.2024
     23 C          65.3751   90.9383   10.9294 C.ar    1  UNL1        0.3522
     24 O          64.4204   90.8891   10.1100 O.2     1  UNL1       -0.2444
     25 C          66.8754   92.3702    9.5038 C.3     1  UNL1        0.1099
     26 C          66.4703   93.8457    9.6238 C.3     1  UNL1        0.0265
     27 C          68.3699   92.1875    9.1660 C.3     1  UNL1        0.0245
     28 C          68.7207   90.8093    8.6011 C.3     1  UNL1        0.0021
     29 O          64.3419   81.2608   12.4803 O.3     1  UNL1       -0.4727
     30 C          64.9082   81.5983   11.2107 C.3     1  UNL1        0.2374
     31 C          61.8544   82.8989    9.9690 C.3     1  UNL1        0.2296
     32 O          62.7464   83.6098    9.1326 O.3     1  UNL1       -0.3267
     33 C          64.0142   83.0769    9.3567 C.3     1  UNL1        0.1783
     34 C          63.8099   81.8183   10.1526 C.3     1  UNL1        0.1909
     35 O          62.5652   81.9656   10.7581 O.3     1  UNL1       -0.3255
     36 C          60.8069   82.1743    9.1162 C.ar    1  UNL1        0.0409
     37 C          60.5996   82.5756    7.7768 C.ar    1  UNL1        0.0022
     38 C          59.6973   81.8993    6.9556 C.ar    1  UNL1        0.0113
     39 C          59.0082   80.7879    7.4368 C.ar    1  UNL1        0.0585
     40 CL         57.9136   79.9108    6.3844 Cl      1  UNL1       -0.0822
     41 C          59.2107   80.3584    8.7485 C.ar    1  UNL1        0.0226
     42 C          60.1020   81.0349    9.5909 C.ar    1  UNL1        0.0591
     43 CL         60.3238   80.3770   11.2105 Cl      1  UNL1       -0.0824
     44 C          61.1310   83.8924   10.9051 C.3     1  UNL1        0.1679
     45 C          59.0241   85.0447   10.0870 C.ar    1  UNL1        0.1205
     46 N          58.6618   86.0488    9.2576 N.ar    1  UNL1       -0.2293
     47 C          59.8293   86.5479    8.8047 C.ar    1  UNL1        0.1188
     48 C          60.8759   85.8361    9.3435 C.ar    1  UNL1        0.0979
     49 N          60.3671   84.8920   10.1526 N.ar    1  UNL1       -0.3084
     50 C          57.3021   83.2246    9.7680 C.3     1  UNL1        0.0084
     51 C          58.0365   84.1255   10.7583 C.3     1  UNL1        0.0640
@<TRIPOS>BOND
     1    50    51    1
     2    51    45    1
     3    45    46   ar
     4    46    47   ar
     5    47    48   ar
     6    48    49   ar
     7    49    44    1
     8    31    44    1
     9    31    36    1
    10    36    37   ar
    11    37    38   ar
    12    38    39   ar
    13    39    40    1
    14    39    41   ar
    15    41    42   ar
    16    42    43    1
    17    31    32    1
    18    32    33    1
    19    33    34    1
    20    34    30    1
    21    30    29    1
    22    29     1    1
    23     1     2   ar
    24     2     3   ar
    25     3     4   ar
    26     4     7    1
    27     7     8    1
    28     8     9    1
    29     9    10    1
    30    10    13    1
    31    13    14   ar
    32    14    15   ar
    33    15    16   ar
    34    16    19    1
    35    19    20   ar
    36    20    21   ar
    37    21    22   ar
    38    22    25    1
    39    25    26    1
    40    25    27    1
    41    27    28    1
    42    22    23   ar
    43    23    24    2
    44    16    17   ar
    45    17    18   ar
    46    10    11    1
    47    11    12    1
    48     4     5   ar
    49     5     6   ar
    50    34    35    1
    51    49    45   ar
    52    35    31    1
    53    42    36   ar
    54     6     1   ar
    55    12     7    1
    56    18    13   ar
    57    23    19   ar
@<TRIPOS>MOLECULE
*****
 51 57 0 0 0
SMALL
GASTEIGER

@<TRIPOS>ATOM
      1 C          62.9162   82.7298    9.3754 C.ar    1  UNL1        0.1388
      2 C          63.2218   84.0826    9.1965 C.ar    1  UNL1        0.0382
      3 C          62.2042   85.0213    9.0011 C.ar    1  UNL1        0.0176
      4 C          60.8558   84.6234    8.9965 C.ar    1  UNL1        0.0481
      5 C          60.5578   83.2536    9.1194 C.ar    1  UNL1        0.0176
      6 C          61.5792   82.3156    9.2784 C.ar    1  UNL1        0.0382
      7 N          59.8035   85.6138    8.9229 N.pl3   1  UNL1       -0.3041
      8 C          59.8135   86.5947    7.8344 C.3     1  UNL1        0.1122
      9 C          60.6157   87.8241    8.2808 C.3     1  UNL1        0.1122
     10 N          60.6636   87.9326    9.7515 N.pl3   1  UNL1       -0.3041
     11 C          59.5177   87.4590   10.5526 C.3     1  UNL1        0.1122
     12 C          59.0673   86.0449   10.1191 C.3     1  UNL1        0.1122
     13 C          61.7681   88.6266   10.3709 C.ar    1  UNL1        0.0480
     14 C          62.1073   88.3846   11.7123 C.ar    1  UNL1        0.0160
     15 C          63.2344   88.9855   12.2814 C.ar    1  UNL1        0.0190
     16 C          64.0563   89.8331   11.5167 C.ar    1  UNL1        0.0699
     17 C          63.6957   90.1001   10.1849 C.ar    1  UNL1        0.0190
     18 C          62.5683   89.5024    9.6187 C.ar    1  UNL1        0.0160
     19 N          65.2694   90.3922   12.0644 N.ar    1  UNL1       -0.2398
     20 C          66.1589   91.2032   11.4442 C.ar    1  UNL1        0.2073
     21 N          67.2336   91.4560   12.2219 N.ar    1  UNL1       -0.1442
     22 N          67.0406   90.7896   13.3506 N.ar    1  UNL1       -0.2024
     23 C          65.8565   90.1617   13.2567 C.ar    1  UNL1        0.3522
     24 O          65.3793   89.4273   14.1612 O.2     1  UNL1       -0.2444
     25 C          67.9534   90.7863   14.5003 C.3     1  UNL1        0.1099
     26 C          69.4182   90.8491   14.0466 C.3     1  UNL1        0.0265
     27 C          67.5900   91.9045   15.4996 C.3     1  UNL1        0.0245
     28 C          68.7780   92.7640   15.9374 C.3     1  UNL1        0.0021
     29 O          63.9641   81.8383    9.6537 O.3     1  UNL1       -0.4727
     30 C          64.1577   81.1365   10.8852 C.3     1  UNL1        0.2374
     31 C          62.7697   82.6206   13.7887 C.3     1  UNL1        0.2296
     32 O          63.8739   81.9699   14.3871 O.3     1  UNL1       -0.3267
     33 C          64.6575   81.4752   13.3466 C.3     1  UNL1        0.1783
     34 C          64.1322   82.1022   12.0856 C.3     1  UNL1        0.1909
     35 O          62.8270   82.4843   12.3826 O.3     1  UNL1       -0.3255
     36 C          62.7699   84.1046   14.1721 C.ar    1  UNL1        0.0409
     37 C          61.5517   84.8215   14.1850 C.ar    1  UNL1        0.0022
     38 C          61.5080   86.1568   14.5865 C.ar    1  UNL1        0.0113
     39 C          62.6678   86.7978   15.0175 C.ar    1  UNL1        0.0585
     40 CL         62.5977   88.4607   15.5694 Cl      1  UNL1       -0.0822
     41 C          63.8792   86.1062   15.0346 C.ar    1  UNL1        0.0226
     42 C          63.9433   84.7696   14.6209 C.ar    1  UNL1        0.0591
     43 CL         65.5117   83.9744   14.7334 Cl      1  UNL1       -0.0824
     44 C          61.4607   81.9769   14.2976 C.3     1  UNL1        0.1679
     45 C          59.8668   81.2468   12.4639 C.ar    1  UNL1        0.1205
     46 N          59.5845   80.1474   11.7297 N.ar    1  UNL1       -0.2293
     47 C          60.4873   79.2320   12.1351 C.ar    1  UNL1        0.1188
     48 C          61.2868   79.7742   13.1146 C.ar    1  UNL1        0.0979
     49 N          60.8965   81.0435   13.3182 N.ar    1  UNL1       -0.3084
     50 C          57.9535   82.4639   11.3513 C.3     1  UNL1        0.0084
     51 C          59.0437   82.5084   12.4195 C.3     1  UNL1        0.0640
@<TRIPOS>BOND
     1    50    51    1
     2    51    45    1
     3    45    46   ar
     4    46    47   ar
     5    47    48   ar
     6    48    49   ar
     7    49    44    1
     8    31    44    1
     9    31    36    1
    10    36    37   ar
    11    37    38   ar
    12    38    39   ar
    13    39    40    1
    14    39    41   ar
    15    41    42   ar
    16    42    43    1
    17    31    32    1
    18    32    33    1
    19    33    34    1
    20    34    30    1
    21    30    29    1
    22    29     1    1
    23     1     2   ar
    24     2     3   ar
    25     3     4   ar
    26     4     7    1
    27     7     8    1
    28     8     9    1
    29     9    10    1
    30    10    13    1
    31    13    14   ar
    32    14    15   ar
    33    15    16   ar
    34    16    19    1
    35    19    20   ar
    36    20    21   ar
    37    21    22   ar
    38    22    25    1
    39    25    26    1
    40    25    27    1
    41    27    28    1
    42    22    23   ar
    43    23    24    2
    44    16    17   ar
    45    17    18   ar
    46    10    11    1
    47    11    12    1
    48     4     5   ar
    49     5     6   ar
    50    34    35    1
    51    49    45   ar
    52    35    31    1
    53    42    36   ar
    54     6     1   ar
    55    12     7    1
    56    18    13   ar
    57    23    19   ar
@<TRIPOS>MOLECULE
*****
 51 57 0 0 0
SMALL
GASTEIGER

@<TRIPOS>ATOM
      1 C          59.0365   81.3647    7.9549 C.ar    1  UNL1        0.1388
      2 C          57.9217   80.7639    8.5480 C.ar    1  UNL1        0.0382
      3 C          58.0797   79.8434    9.5885 C.ar    1  UNL1        0.0176
      4 C          59.3612   79.5178   10.0663 C.ar    1  UNL1        0.0481
      5 C          60.4811   80.0815    9.4275 C.ar    1  UNL1        0.0176
      6 C          60.3197   80.9727    8.3653 C.ar    1  UNL1        0.0382
      7 N          59.5123   78.6649   11.2254 N.pl3   1  UNL1       -0.3041
      8 C          58.5555   78.7755   12.3297 C.3     1  UNL1        0.1122
      9 C          59.0673   79.8228   13.3274 C.3     1  UNL1        0.1122
     10 N          60.5285   79.9995   13.2227 N.pl3   1  UNL1       -0.3041
     11 C          61.3745   78.8486   12.8504 C.3     1  UNL1        0.1122
     12 C          60.8185   78.1127   11.6095 C.3     1  UNL1        0.1122
     13 C          61.1163   81.2566   13.6220 C.ar    1  UNL1        0.0480
     14 C          62.4154   81.3055   14.1539 C.ar    1  UNL1        0.0160
     15 C          63.0178   82.5321   14.4504 C.ar    1  UNL1        0.0190
     16 C          62.3383   83.7399   14.2089 C.ar    1  UNL1        0.0699
     17 C          61.0261   83.6868   13.7084 C.ar    1  UNL1        0.0190
     18 C          60.4244   82.4615   13.4160 C.ar    1  UNL1        0.0160
     19 N          62.9782   85.0151   14.4290 N.ar    1  UNL1       -0.2398
     20 C          64.1862   85.2466   14.9952 C.ar    1  UNL1        0.2073
     21 N          64.4295   86.5675   15.1348 N.ar    1  UNL1       -0.1442
     22 N          63.3607   87.1939   14.6653 N.ar    1  UNL1       -0.2024
     23 C          62.4971   86.2599   14.2330 C.ar    1  UNL1        0.3522
     24 O          61.3698   86.5235   13.7379 O.2     1  UNL1       -0.2444
     25 C          63.1908   88.6507   14.6022 C.3     1  UNL1        0.1099
     26 C          63.1552   89.2670   16.0074 C.3     1  UNL1        0.0265
     27 C          64.2604   89.2946   13.6954 C.3     1  UNL1        0.0245
     28 C          63.9277   89.2462   12.2024 C.3     1  UNL1        0.0021
     29 O          58.8250   82.3457    6.9735 O.3     1  UNL1       -0.4727
     30 C          59.4741   83.6191    6.9131 C.3     1  UNL1        0.2374
     31 C          60.0140   85.3876    9.9364 C.3     1  UNL1        0.2296
     32 O          59.7710   86.4895    9.0835 O.3     1  UNL1       -0.3267
     33 C          59.3474   85.9647    7.8642 C.3     1  UNL1        0.1783
     34 C          59.0676   84.5076    8.1045 C.3     1  UNL1        0.1909
     35 O          59.8021   84.1758    9.2394 O.3     1  UNL1       -0.3255
     36 C          59.0885   85.4596   11.1561 C.ar    1  UNL1        0.0409
     37 C          58.9364   86.6848   11.8445 C.ar    1  UNL1        0.0022
     38 C          58.0569   86.7996   12.9212 C.ar    1  UNL1        0.0113
     39 C          57.2836   85.7091   13.3143 C.ar    1  UNL1        0.0585
     40 CL         56.1425   85.8735   14.6357 Cl      1  UNL1       -0.0822
     41 C          57.3991   84.4946   12.6379 C.ar    1  UNL1        0.0226
     42 C          58.2880   84.3581   11.5641 C.ar    1  UNL1        0.0591
     43 CL         58.3162   82.7979   10.7456 Cl      1  UNL1       -0.0824
     44 C          61.4797   85.4317   10.4225 C.3     1  UNL1        0.1679
     45 C          62.9882   83.5976    9.5301 C.ar    1  UNL1        0.1205
     46 N          63.8060   83.3644    8.4792 N.ar    1  UNL1       -0.2293
     47 C          63.6983   84.4718    7.7179 C.ar    1  UNL1        0.1188
     48 C          62.8403   85.3636    8.3186 C.ar    1  UNL1        0.0979
     49 N          62.3921   84.8104    9.4580 N.ar    1  UNL1       -0.3084
     50 C          63.8232   81.4809   10.6266 C.3     1  UNL1        0.0084
     51 C          62.8590   82.6623   10.7047 C.3     1  UNL1        0.0640
@<TRIPOS>BOND
     1    50    51    1
     2    51    45    1
     3    45    46   ar
     4    46    47   ar
     5    47    48   ar
     6    48    49   ar
     7    49    44    1
     8    31    44    1
     9    31    36    1
    10    36    37   ar
    11    37    38   ar
    12    38    39   ar
    13    39    40    1
    14    39    41   ar
    15    41    42   ar
    16    42    43    1
    17    31    32    1
    18    32    33    1
    19    33    34    1
    20    34    30    1
    21    30    29    1
    22    29     1    1
    23     1     2   ar
    24     2     3   ar
    25     3     4   ar
    26     4     7    1
    27     7     8    1
    28     8     9    1
    29     9    10    1
    30    10    13    1
    31    13    14   ar
    32    14    15   ar
    33    15    16   ar
    34    16    19    1
    35    19    20   ar
    36    20    21   ar
    37    21    22   ar
    38    22    25    1
    39    25    26    1
    40    25    27    1
    41    27    28    1
    42    22    23   ar
    43    23    24    2
    44    16    17   ar
    45    17    18   ar
    46    10    11    1
    47    11    12    1
    48     4     5   ar
    49     5     6   ar
    50    34    35    1
    51    49    45   ar
    52    35    31    1
    53    42    36   ar
    54     6     1   ar
    55    12     7    1
    56    18    13   ar
    57    23    19   ar
@<TRIPOS>MOLECULE
*****
 51 57 0 0 0
SMALL
GASTEIGER

@<TRIPOS>ATOM
      1 C          58.3363   79.9547   12.1519 C.ar    1  UNL1        0.1388
      2 C          58.3133   81.3529   12.1400 C.ar    1  UNL1        0.0382
      3 C          58.2209   82.0521   10.9327 C.ar    1  UNL1        0.0176
      4 C          58.1340   81.3611    9.7115 C.ar    1  UNL1        0.0481
      5 C          58.2156   79.9563    9.7255 C.ar    1  UNL1        0.0176
      6 C          58.3440   79.2640   10.9307 C.ar    1  UNL1        0.0382
      7 N          57.9095   82.0847    8.4787 N.pl3   1  UNL1       -0.3041
      8 C          58.8870   81.9762    7.3924 C.3     1  UNL1        0.1122
      9 C          59.9467   83.0721    7.5665 C.3     1  UNL1        0.1122
     10 N          59.4302   84.2007    8.3645 N.pl3   1  UNL1       -0.3041
     11 C          57.9993   84.5536    8.2825 C.3     1  UNL1        0.1122
     12 C          57.0970   83.3082    8.4416 C.3     1  UNL1        0.1122
     13 C          60.3588   85.0252    9.1016 C.ar    1  UNL1        0.0480
     14 C          61.2677   85.8598    8.4306 C.ar    1  UNL1        0.0160
     15 C          62.0993   86.7273    9.1456 C.ar    1  UNL1        0.0190
     16 C          62.0313   86.7891   10.5492 C.ar    1  UNL1        0.0699
     17 C          61.1451   85.9288   11.2198 C.ar    1  UNL1        0.0190
     18 C          60.3177   85.0607   10.5052 C.ar    1  UNL1        0.0160
     19 N          62.8213   87.7397   11.2953 N.ar    1  UNL1       -0.2398
     20 C          63.0410   87.7635   12.6312 C.ar    1  UNL1        0.2073
     21 N          63.7467   88.8529   13.0037 N.ar    1  UNL1       -0.1442
     22 N          63.9728   89.5456   11.8972 N.ar    1  UNL1       -0.2024
     23 C          63.4257   88.8693   10.8732 C.ar    1  UNL1        0.3522
     24 O          63.4522   89.2651    9.6782 O.2     1  UNL1       -0.2444
     25 C          64.7246   90.8042   11.8231 C.3     1  UNL1        0.1099
     26 C          65.7433   90.9106   12.9661 C.3     1  UNL1        0.0265
     27 C          65.3677   90.9845   10.4321 C.3     1  UNL1        0.0245
     28 C          66.8681   91.2833   10.4694 C.3     1  UNL1        0.0021
     29 O          58.3431   79.2962   13.3915 O.3     1  UNL1       -0.4727
     30 C          59.4955   79.0643   14.2067 C.3     1  UNL1        0.2374
     31 C          62.1433   81.3764   13.7567 C.3     1  UNL1        0.2296
     32 O          62.9016   80.2627   14.1871 O.3     1  UNL1       -0.3267
     33 C          62.0270   79.1790   14.2356 C.3     1  UNL1        0.1783
     34 C          60.7692   79.6184   13.5399 C.3     1  UNL1        0.1909
     35 O          60.7878   81.0092   13.5931 O.3     1  UNL1       -0.3255
     36 C          62.7055   81.9089   12.4340 C.ar    1  UNL1        0.0409
     37 C          61.9392   81.7893   11.2522 C.ar    1  UNL1        0.0022
     38 C          62.3951   82.3164   10.0437 C.ar    1  UNL1        0.0113
     39 C          63.6057   83.0045    9.9911 C.ar    1  UNL1        0.0585
     40 CL         64.1494   83.7091    8.4802 Cl      1  UNL1       -0.0822
     41 C          64.3709   83.1550   11.1477 C.ar    1  UNL1        0.0226
     42 C          63.9348   82.6193   12.3662 C.ar    1  UNL1        0.0591
     43 CL         64.9506   82.9134   13.7757 Cl      1  UNL1       -0.0824
     44 C          62.2306   82.4947   14.8189 C.3     1  UNL1        0.1679
     45 C          61.5206   84.9275   14.7032 C.ar    1  UNL1        0.1205
     46 N          60.4418   85.6644   14.3562 N.ar    1  UNL1       -0.2293
     47 C          59.5410   84.7587   13.9254 C.ar    1  UNL1        0.1188
     48 C          60.0705   83.4936   14.0327 C.ar    1  UNL1        0.0979
     49 N          61.3178   83.6021   14.5200 N.ar    1  UNL1       -0.3084
     50 C          62.4490   86.7171   16.2248 C.3     1  UNL1        0.0084
     51 C          62.7558   85.5123   15.3383 C.3     1  UNL1        0.0640
@<TRIPOS>BOND
     1    50    51    1
     2    51    45    1
     3    45    46   ar
     4    46    47   ar
     5    47    48   ar
     6    48    49   ar
     7    49    44    1
     8    31    44    1
     9    31    36    1
    10    36    37   ar
    11    37    38   ar
    12    38    39   ar
    13    39    40    1
    14    39    41   ar
    15    41    42   ar
    16    42    43    1
    17    31    32    1
    18    32    33    1
    19    33    34    1
    20    34    30    1
    21    30    29    1
    22    29     1    1
    23     1     2   ar
    24     2     3   ar
    25     3     4   ar
    26     4     7    1
    27     7     8    1
    28     8     9    1
    29     9    10    1
    30    10    13    1
    31    13    14   ar
    32    14    15   ar
    33    15    16   ar
    34    16    19    1
    35    19    20   ar
    36    20    21   ar
    37    21    22   ar
    38    22    25    1
    39    25    26    1
    40    25    27    1
    41    27    28    1
    42    22    23   ar
    43    23    24    2
    44    16    17   ar
    45    17    18   ar
    46    10    11    1
    47    11    12    1
    48     4     5   ar
    49     5     6   ar
    50    34    35    1
    51    49    45   ar
    52    35    31    1
    53    42    36   ar
    54     6     1   ar
    55    12     7    1
    56    18    13   ar
    57    23    19   ar
@<TRIPOS>MOLECULE
*****
 51 57 0 0 0
SMALL
GASTEIGER

@<TRIPOS>ATOM
      1 C          59.4848   80.9508    7.8843 C.ar    1  UNL1        0.1388
      2 C          58.3559   80.8054    8.6968 C.ar    1  UNL1        0.0382
      3 C          58.3950   79.9839    9.8275 C.ar    1  UNL1        0.0176
      4 C          59.5744   79.3024   10.1754 C.ar    1  UNL1        0.0481
      5 C          60.6889   79.4071    9.3227 C.ar    1  UNL1        0.0176
      6 C          60.6338   80.2001    8.1753 C.ar    1  UNL1        0.0382
      7 N          59.6479   78.5577   11.4139 N.pl3   1  UNL1       -0.3041
      8 C          58.6242   78.7669   12.4411 C.3     1  UNL1        0.1122
      9 C          59.0774   79.9004   13.3707 C.3     1  UNL1        0.1122
     10 N          60.5432   80.0678   13.3429 N.pl3   1  UNL1       -0.3041
     11 C          61.4051   78.8886   13.1300 C.3     1  UNL1        0.1122
     12 C          60.9246   78.0433   11.9278 C.3     1  UNL1        0.1122
     13 C          61.1111   81.3562   13.6636 C.ar    1  UNL1        0.0480
     14 C          62.0470   81.4904   14.7022 C.ar    1  UNL1        0.0160
     15 C          62.6664   82.7197   14.9482 C.ar    1  UNL1        0.0190
     16 C          62.3729   83.8411   14.1513 C.ar    1  UNL1        0.0699
     17 C          61.4111   83.7124   13.1346 C.ar    1  UNL1        0.0190
     18 C          60.7909   82.4854   12.8921 C.ar    1  UNL1        0.0160
     19 N          63.0665   85.0934   14.3376 N.ar    1  UNL1       -0.2398
     20 C          64.3079   85.2830   14.8439 C.ar    1  UNL1        0.2073
     21 N          64.6032   86.5948   14.9689 N.ar    1  UNL1       -0.1442
     22 N          63.5350   87.2577   14.5509 N.ar    1  UNL1       -0.2024
     23 C          62.6196   86.3541   14.1628 C.ar    1  UNL1        0.3522
     24 O          61.4793   86.6564   13.7228 O.2     1  UNL1       -0.2444
     25 C          63.4127   88.7195   14.4934 C.3     1  UNL1        0.1099
     26 C          63.2533   89.3191   15.8972 C.3     1  UNL1        0.0265
     27 C          64.5854   89.3432   13.7080 C.3     1  UNL1        0.0245
     28 C          65.3666   90.4044   14.4862 C.3     1  UNL1        0.0021
     29 O          59.4243   81.8522    6.8100 O.3     1  UNL1       -0.4727
     30 C          60.4814   82.7181    6.3868 C.3     1  UNL1        0.2374
     31 C          59.9706   84.9734    9.0723 C.3     1  UNL1        0.2296
     32 O          60.5266   83.8955    9.8000 O.3     1  UNL1       -0.3267
     33 C          60.9710   82.9670    8.8609 C.3     1  UNL1        0.1783
     34 C          60.9212   83.6571    7.5266 C.3     1  UNL1        0.1909
     35 O          60.0107   84.6979    7.6862 O.3     1  UNL1       -0.3255
     36 C          60.7468   86.2602    9.3738 C.ar    1  UNL1        0.0409
     37 C          61.6950   86.2731   10.4220 C.ar    1  UNL1        0.0022
     38 C          62.4610   87.4092   10.6841 C.ar    1  UNL1        0.0113
     39 C          62.3264   88.5447    9.8877 C.ar    1  UNL1        0.0585
     40 CL         63.3282   89.9519   10.1898 Cl      1  UNL1       -0.0822
     41 C          61.4129   88.5505    8.8335 C.ar    1  UNL1        0.0226
     42 C          60.6256   87.4234    8.5658 C.ar    1  UNL1        0.0591
     43 CL         59.5435   87.5179    7.1784 Cl      1  UNL1       -0.0824
     44 C          58.4985   85.1709    9.4974 C.3     1  UNL1        0.1679
     45 C          58.1831   84.8744   11.9971 C.ar    1  UNL1        0.1205
     46 N          57.8800   83.8992   12.8829 N.ar    1  UNL1       -0.2293
     47 C          57.6648   82.8083   12.1207 C.ar    1  UNL1        0.1188
     48 C          57.8568   83.1254   10.7959 C.ar    1  UNL1        0.0979
     49 N          58.1803   84.4271   10.7199 N.ar    1  UNL1       -0.3084
     50 C          57.8793   86.7518   13.6593 C.3     1  UNL1        0.0084
     51 C          58.5984   86.2649   12.4034 C.3     1  UNL1        0.0640
@<TRIPOS>BOND
     1    50    51    1
     2    51    45    1
     3    45    46   ar
     4    46    47   ar
     5    47    48   ar
     6    48    49   ar
     7    49    44    1
     8    31    44    1
     9    31    36    1
    10    36    37   ar
    11    37    38   ar
    12    38    39   ar
    13    39    40    1
    14    39    41   ar
    15    41    42   ar
    16    42    43    1
    17    31    32    1
    18    32    33    1
    19    33    34    1
    20    34    30    1
    21    30    29    1
    22    29     1    1
    23     1     2   ar
    24     2     3   ar
    25     3     4   ar
    26     4     7    1
    27     7     8    1
    28     8     9    1
    29     9    10    1
    30    10    13    1
    31    13    14   ar
    32    14    15   ar
    33    15    16   ar
    34    16    19    1
    35    19    20   ar
    36    20    21   ar
    37    21    22   ar
    38    22    25    1
    39    25    26    1
    40    25    27    1
    41    27    28    1
    42    22    23   ar
    43    23    24    2
    44    16    17   ar
    45    17    18   ar
    46    10    11    1
    47    11    12    1
    48     4     5   ar
    49     5     6   ar
    50    34    35    1
    51    49    45   ar
    52    35    31    1
    53    42    36   ar
    54     6     1   ar
    55    12     7    1
    56    18    13   ar
    57    23    19   ar
@<TRIPOS>MOLECULE
*****
 51 57 0 0 0
SMALL
GASTEIGER

@<TRIPOS>ATOM
      1 C          58.6004   80.1245   12.3418 C.ar    1  UNL1        0.1388
      2 C          58.3066   81.4884   12.2461 C.ar    1  UNL1        0.0382
      3 C          58.1056   82.0864   10.9984 C.ar    1  UNL1        0.0176
      4 C          58.1800   81.3236    9.8198 C.ar    1  UNL1        0.0481
      5 C          58.5325   79.9648    9.9186 C.ar    1  UNL1        0.0176
      6 C          58.7676   79.3803   11.1642 C.ar    1  UNL1        0.0382
      7 N          57.8451   81.9183    8.5440 N.pl3   1  UNL1       -0.3041
      8 C          58.7853   81.8006    7.4263 C.3     1  UNL1        0.1122
      9 C          59.7508   82.9927    7.4616 C.3     1  UNL1        0.1122
     10 N          59.1688   84.1374    8.1882 N.pl3   1  UNL1       -0.3041
     11 C          57.7103   84.3604    8.1438 C.3     1  UNL1        0.1122
     12 C          56.9276   83.0616    8.4450 C.3     1  UNL1        0.1122
     13 C          60.0494   85.0968    8.8123 C.ar    1  UNL1        0.0480
     14 C          61.2837   85.4253    8.2280 C.ar    1  UNL1        0.0160
     15 C          62.0909   86.4235    8.7826 C.ar    1  UNL1        0.0190
     16 C          61.6750   87.1257    9.9283 C.ar    1  UNL1        0.0699
     17 C          60.4554   86.7717   10.5302 C.ar    1  UNL1        0.0190
     18 C          59.6519   85.7727    9.9777 C.ar    1  UNL1        0.0160
     19 N          62.4563   88.2160   10.4621 N.ar    1  UNL1       -0.2398
     20 C          63.0115   89.2458    9.7804 C.ar    1  UNL1        0.2073
     21 N          63.7615   90.0316   10.5828 N.ar    1  UNL1       -0.1442
     22 N          63.6995   89.4944   11.7923 N.ar    1  UNL1       -0.2024
     23 C          62.9071   88.4120   11.7182 C.ar    1  UNL1        0.3522
     24 O          62.6499   87.6636   12.6975 O.2     1  UNL1       -0.2444
     25 C          64.3556   90.0283   12.9921 C.3     1  UNL1        0.1099
     26 C          64.5722   88.9298   14.0418 C.3     1  UNL1        0.0265
     27 C          65.6585   90.7703   12.6275 C.3     1  UNL1        0.0245
     28 C          66.5805   91.0396   13.8188 C.3     1  UNL1        0.0021
     29 O          58.7090   79.5514   13.6185 O.3     1  UNL1       -0.4727
     30 C          59.9298   79.1815   14.2659 C.3     1  UNL1        0.2374
     31 C          62.3610   81.7152   13.7872 C.3     1  UNL1        0.2296
     32 O          63.2181   80.6722   14.2095 O.3     1  UNL1       -0.3267
     33 C          62.4419   79.5165   14.2674 C.3     1  UNL1        0.1783
     34 C          61.1432   79.8439   13.5853 C.3     1  UNL1        0.1909
     35 O          61.0410   81.2311   13.6383 O.3     1  UNL1       -0.3255
     36 C          62.8604   82.2934   12.4585 C.ar    1  UNL1        0.0409
     37 C          63.9334   81.6666   11.7847 C.ar    1  UNL1        0.0022
     38 C          64.3731   82.1314   10.5451 C.ar    1  UNL1        0.0113
     39 C          63.7330   83.2066    9.9321 C.ar    1  UNL1        0.0585
     40 CL         64.2571   83.7541    8.3508 Cl      1  UNL1       -0.0822
     41 C          62.6577   83.8293   10.5662 C.ar    1  UNL1        0.0226
     42 C          62.2130   83.3846   11.8177 C.ar    1  UNL1        0.0591
     43 CL         60.8138   84.2063   12.5049 Cl      1  UNL1       -0.0824
     44 C          62.3620   82.8378   14.8484 C.3     1  UNL1        0.1679
     45 C          63.7550   84.9531   14.9947 C.ar    1  UNL1        0.1205
     46 N          65.0399   85.3458   14.8462 N.ar    1  UNL1       -0.2293
     47 C          65.7098   84.2076   14.5760 C.ar    1  UNL1        0.1188
     48 C          64.8302   83.1503   14.5447 C.ar    1  UNL1        0.0979
     49 N          63.6005   83.6212   14.8112 N.ar    1  UNL1       -0.3084
     50 C          62.7569   86.7132   16.5065 C.3     1  UNL1        0.0084
     51 C          62.6139   85.9127   15.2142 C.3     1  UNL1        0.0640
@<TRIPOS>BOND
     1    50    51    1
     2    51    45    1
     3    45    46   ar
     4    46    47   ar
     5    47    48   ar
     6    48    49   ar
     7    49    44    1
     8    31    44    1
     9    31    36    1
    10    36    37   ar
    11    37    38   ar
    12    38    39   ar
    13    39    40    1
    14    39    41   ar
    15    41    42   ar
    16    42    43    1
    17    31    32    1
    18    32    33    1
    19    33    34    1
    20    34    30    1
    21    30    29    1
    22    29     1    1
    23     1     2   ar
    24     2     3   ar
    25     3     4   ar
    26     4     7    1
    27     7     8    1
    28     8     9    1
    29     9    10    1
    30    10    13    1
    31    13    14   ar
    32    14    15   ar
    33    15    16   ar
    34    16    19    1
    35    19    20   ar
    36    20    21   ar
    37    21    22   ar
    38    22    25    1
    39    25    26    1
    40    25    27    1
    41    27    28    1
    42    22    23   ar
    43    23    24    2
    44    16    17   ar
    45    17    18   ar
    46    10    11    1
    47    11    12    1
    48     4     5   ar
    49     5     6   ar
    50    34    35    1
    51    49    45   ar
    52    35    31    1
    53    42    36   ar
    54     6     1   ar
    55    12     7    1
    56    18    13   ar
    57    23    19   ar
@<TRIPOS>MOLECULE
*****
 51 57 0 0 0
SMALL
GASTEIGER

@<TRIPOS>ATOM
      1 C          57.6790   81.4009    9.2440 C.ar    1  UNL1        0.1388
      2 C          57.8810   81.8053   10.5674 C.ar    1  UNL1        0.0382
      3 C          58.3381   80.8964   11.5265 C.ar    1  UNL1        0.0176
      4 C          58.6172   79.5646   11.1733 C.ar    1  UNL1        0.0481
      5 C          58.3573   79.1494    9.8541 C.ar    1  UNL1        0.0176
      6 C          57.8668   80.0516    8.9087 C.ar    1  UNL1        0.0382
      7 N          59.2108   78.6636   12.1374 N.pl3   1  UNL1       -0.3041
      8 C          58.6953   78.6359   13.5088 C.3     1  UNL1        0.1122
      9 C          59.4640   79.6640   14.3494 C.3     1  UNL1        0.1122
     10 N          60.7844   79.9624   13.7622 N.pl3   1  UNL1       -0.3041
     11 C          61.5099   78.9053   13.0307 C.3     1  UNL1        0.1122
     12 C          60.5975   78.1972   12.0027 C.3     1  UNL1        0.1122
     13 C          61.4036   81.2385   14.0335 C.ar    1  UNL1        0.0480
     14 C          62.7948   81.3416   14.1971 C.ar    1  UNL1        0.0160
     15 C          63.4015   82.5904   14.3644 C.ar    1  UNL1        0.0190
     16 C          62.6306   83.7670   14.3587 C.ar    1  UNL1        0.0699
     17 C          61.2355   83.6582   14.2287 C.ar    1  UNL1        0.0190
     18 C          60.6305   82.4107   14.0652 C.ar    1  UNL1        0.0160
     19 N          63.2506   85.0679   14.4442 N.ar    1  UNL1       -0.2398
     20 C          64.4751   85.3688   14.9377 C.ar    1  UNL1        0.2073
     21 N          64.6946   86.7011   14.9558 N.ar    1  UNL1       -0.1442
     22 N          63.5941   87.2656   14.4810 N.ar    1  UNL1       -0.2024
     23 C          62.7345   86.2825   14.1651 C.ar    1  UNL1        0.3522
     24 O          61.5826   86.4823   13.6976 O.2     1  UNL1       -0.2444
     25 C          63.3897   88.7084   14.3034 C.3     1  UNL1        0.1099
     26 C          63.2394   89.4186   15.6557 C.3     1  UNL1        0.0265
     27 C          64.5022   89.3221   13.4277 C.3     1  UNL1        0.0245
     28 C          65.5313   90.1439   14.2070 C.3     1  UNL1        0.0021
     29 O          57.3020   82.3680    8.2991 O.3     1  UNL1       -0.4727
     30 C          57.1896   83.7732    8.5425 C.3     1  UNL1        0.2374
     31 C          60.4611   84.5065    9.6911 C.3     1  UNL1        0.2296
     32 O          60.7999   83.8245    8.4991 O.3     1  UNL1       -0.3267
     33 C          59.6093   83.6183    7.8051 C.3     1  UNL1        0.1783
     34 C          58.5686   84.4587    8.4903 C.3     1  UNL1        0.1909
     35 O          59.0598   84.6752    9.7747 O.3     1  UNL1       -0.3255
     36 C          61.1565   85.8720    9.7249 C.ar    1  UNL1        0.0409
     37 C          60.6755   86.8780   10.5936 C.ar    1  UNL1        0.0022
     38 C          61.3210   88.1107   10.6927 C.ar    1  UNL1        0.0113
     39 C          62.4787   88.3571    9.9573 C.ar    1  UNL1        0.0585
     40 CL         63.3147   89.8895   10.1244 Cl      1  UNL1       -0.0822
     41 C          62.9862   87.3731    9.1087 C.ar    1  UNL1        0.0226
     42 C          62.3421   86.1354    8.9864 C.ar    1  UNL1        0.0591
     43 CL         63.0968   84.9448    7.9290 Cl      1  UNL1       -0.0824
     44 C          60.9353   83.6780   10.9057 C.3     1  UNL1        0.1679
     45 C          62.5268   81.8776   10.0920 C.ar    1  UNL1        0.1205
     46 N          63.8521   81.6117   10.0784 N.ar    1  UNL1       -0.2293
     47 C          64.4169   82.6904   10.6571 C.ar    1  UNL1        0.1188
     48 C          63.4368   83.5811   11.0293 C.ar    1  UNL1        0.0979
     49 N          62.2478   83.0689   10.6703 N.ar    1  UNL1       -0.3084
     50 C          62.0278   79.4836    9.4599 C.3     1  UNL1        0.0084
     51 C          61.4791   80.8984    9.6289 C.3     1  UNL1        0.0640
@<TRIPOS>BOND
     1    50    51    1
     2    51    45    1
     3    45    46   ar
     4    46    47   ar
     5    47    48   ar
     6    48    49   ar
     7    49    44    1
     8    31    44    1
     9    31    36    1
    10    36    37   ar
    11    37    38   ar
    12    38    39   ar
    13    39    40    1
    14    39    41   ar
    15    41    42   ar
    16    42    43    1
    17    31    32    1
    18    32    33    1
    19    33    34    1
    20    34    30    1
    21    30    29    1
    22    29     1    1
    23     1     2   ar
    24     2     3   ar
    25     3     4   ar
    26     4     7    1
    27     7     8    1
    28     8     9    1
    29     9    10    1
    30    10    13    1
    31    13    14   ar
    32    14    15   ar
    33    15    16   ar
    34    16    19    1
    35    19    20   ar
    36    20    21   ar
    37    21    22   ar
    38    22    25    1
    39    25    26    1
    40    25    27    1
    41    27    28    1
    42    22    23   ar
    43    23    24    2
    44    16    17   ar
    45    17    18   ar
    46    10    11    1
    47    11    12    1
    48     4     5   ar
    49     5     6   ar
    50    34    35    1
    51    49    45   ar
    52    35    31    1
    53    42    36   ar
    54     6     1   ar
    55    12     7    1
    56    18    13   ar
    57    23    19   ar
