@<TRIPOS>MOLECULE
*****
 50 55 0 0 0
SMALL
GASTEIGER

@<TRIPOS>ATOM
      1 O          59.3381   88.1786   11.9941 O.2     1  UNL1       -0.2701
      2 C          59.9945   87.7188   11.0197 C.2     1  UNL1        0.2483
      3 N          60.7574   86.5114   11.1790 N.am    1  UNL1       -0.2945
      4 H          61.0812   86.0170   10.3173 H       1  UNL1        0.1501
      5 C          59.9385   88.4164    9.7152 C.ar    1  UNL1        0.0808
      6 C          59.4703   87.7311    8.5815 C.ar    1  UNL1        0.0080
      7 C          59.4115   88.3686    7.3397 C.ar    1  UNL1        0.0148
      8 C          59.8074   89.7086    7.2097 C.ar    1  UNL1        0.0502
      9 C          60.2606   90.4004    8.3427 C.ar    1  UNL1        0.0443
     10 C          60.3230   89.7656    9.5872 C.ar    1  UNL1        0.1457
     11 F          60.7152   90.4871   10.6677 F       1  UNL1       -0.2040
     12 N          59.7506   90.3708    5.9321 N.pl3   1  UNL1       -0.3040
     13 C          58.4560   90.7785    5.3733 C.3     1  UNL1        0.1122
     14 C          58.5928   92.1324    4.6796 C.3     1  UNL1        0.1122
     15 N          59.7441   92.1127    3.7693 N.pl3   1  UNL1       -0.3040
     16 C          61.0427   91.6996    4.3149 C.3     1  UNL1        0.1122
     17 C          60.9107   90.3542    5.0328 C.3     1  UNL1        0.1122
     18 C          59.6650   92.7767    2.4938 C.ar    1  UNL1        0.0488
     19 C          60.4081   93.9426    2.2456 C.ar    1  UNL1        0.0154
     20 C          60.3278   94.5798    1.0048 C.ar    1  UNL1        0.0135
     21 C          59.5085   94.0615   -0.0035 C.ar    1  UNL1        0.0683
     22 CL         59.4341   94.8916   -1.5520 Cl      1  UNL1       -0.0814
     23 C          58.7642   92.8939    0.2343 C.ar    1  UNL1        0.0694
     24 CL         57.7272   92.2051   -1.0077 Cl      1  UNL1       -0.0813
     25 C          58.8456   92.2576    1.4786 C.ar    1  UNL1        0.0268
     26 C          61.0289   85.9307   12.5006 C.3     1  UNL1        0.1535
     27 C          60.2188   84.6710   12.7171 C.2     1  UNL1        0.2443
     28 O          58.9601   84.7345   12.7625 O.2     1  UNL1       -0.2730
     29 N          60.8908   83.4046   12.8332 N.am    1  UNL1       -0.2825
     30 H          61.9169   83.4200   13.0317 H       1  UNL1        0.1549
     31 C          60.2526   82.1169   12.7450 C.ar    1  UNL1        0.0532
     32 C          60.3279   81.1738   13.7848 C.ar    1  UNL1        0.0353
     33 C          59.6576   79.9554   13.6619 C.ar    1  UNL1        0.0998
     34 N          58.9252   79.6877   12.5495 N.ar    1  UNL1       -0.2456
     35 CA         58.8072   80.5872   11.5359 C.ar    1  UNL1        0.0897
     36 C          59.4743   81.8174   11.6178 C.ar    1  UNL1        0.0319
     37 C          58.0086   80.2306   10.3177 C.3     1  UNL1        0.1829
     38 O          57.2863   79.0518   10.5446 O.3     1  UNL1       -0.3760
     39 H          57.9322   78.3021   10.4610 H       1  UNL1        0.2110
     40 C          62.5340   85.6410   12.6493 C.3     1  UNL1        0.0569
     41 C          63.1923   86.6182   13.5827 C.ar    1  UNL1       -0.0017
     42 C          63.8374   86.3081   14.7764 C.ar    1  UNL1        0.0681
     43 N          64.4316   87.4079   15.2923 N.ar    1  UNL1       -0.3523
     44 C          64.1773   88.4069   14.4295 C.ar    1  UNL1        0.0563
     45 C          64.6181   89.7270   14.5132 C.ar    1  UNL1        0.0170
     46 C          64.2628   90.6061   13.4742 C.ar    1  UNL1        0.0015
     47 C          63.4844   90.1514   12.3871 C.ar    1  UNL1        0.0001
     48 C          63.0549   88.8133   12.3284 C.ar    1  UNL1        0.0012
     49 C          63.4236   87.9643   13.3726 C.ar    1  UNL1        0.0131
     50 H          64.9956   87.4601   16.1695 H       1  UNL1        0.1660
@<TRIPOS>BOND
     1     1     2    2
     2     2     3   am
     3     3    26    1
     4    26    40    1
     5    40    41    1
     6    41    42   ar
     7    42    43   ar
     8    43    44   ar
     9    44    45   ar
    10    45    46   ar
    11    46    47   ar
    12    47    48   ar
    13    48    49   ar
    14    26    27    1
    15    27    28    2
    16    27    29   am
    17    29    31    1
    18    31    32   ar
    19    32    33   ar
    20    33    34   ar
    21    34    35   ar
    22    35    37    1
    23    37    38    1
    24    35    36   ar
    25     2     5    1
    26     5     6   ar
    27     6     7   ar
    28     7     8   ar
    29     8    12    1
    30    12    13    1
    31    13    14    1
    32    14    15    1
    33    15    18    1
    34    18    19   ar
    35    19    20   ar
    36    20    21   ar
    37    21    22    1
    38    21    23   ar
    39    23    24    1
    40    23    25   ar
    41    15    16    1
    42    16    17    1
    43     8     9   ar
    44     9    10   ar
    45    10    11    1
    46    49    41   ar
    47    36    31   ar
    48    10     5   ar
    49    49    44   ar
    50    17    12    1
    51    25    18   ar
    52     3     4    1
    53    43    50    1
    54    29    30    1
    55    38    39    1
@<TRIPOS>MOLECULE
*****
 50 55 0 0 0
SMALL
GASTEIGER

@<TRIPOS>ATOM
      1 O          58.9171   87.5979   11.7856 O.2     1  UNL1       -0.2701
      2 C          59.8744   87.4551   10.9762 C.2     1  UNL1        0.2483
      3 N          60.9582   86.5691   11.3015 N.am    1  UNL1       -0.2945
      4 H          61.5997   86.2735   10.5315 H       1  UNL1        0.1501
      5 C          59.8460   88.1801    9.6859 C.ar    1  UNL1        0.0808
      6 C          59.3683   87.5303    8.5354 C.ar    1  UNL1        0.0080
      7 C          59.3351   88.1940    7.3064 C.ar    1  UNL1        0.0148
      8 C          59.7666   89.5256    7.2064 C.ar    1  UNL1        0.0502
      9 C          60.2295   90.1823    8.3562 C.ar    1  UNL1        0.0443
     10 C          60.2664   89.5211    9.5880 C.ar    1  UNL1        0.1457
     11 F          60.6695   90.2101   10.6855 F       1  UNL1       -0.2040
     12 N          59.7363   90.2147    5.9423 N.pl3   1  UNL1       -0.3040
     13 C          58.4527   90.6236    5.3595 C.3     1  UNL1        0.1122
     14 C          58.5950   91.9932    4.6985 C.3     1  UNL1        0.1122
     15 N          59.7690   92.0028    3.8176 N.pl3   1  UNL1       -0.3040
     16 C          61.0570   91.5888    4.3872 C.3     1  UNL1        0.1122
     17 C          60.9188   90.2272    5.0726 C.3     1  UNL1        0.1122
     18 C          59.7163   92.6934    2.5550 C.ar    1  UNL1        0.0488
     19 C          60.5332   93.8105    2.3147 C.ar    1  UNL1        0.0154
     20 C          60.4781   94.4740    1.0863 C.ar    1  UNL1        0.0135
     21 C          59.6105   94.0306    0.0826 C.ar    1  UNL1        0.0683
     22 CL         59.5697   94.8916   -1.4501 Cl      1  UNL1       -0.0814
     23 C          58.7920   92.9121    0.3126 C.ar    1  UNL1        0.0694
     24 CL         57.6923   92.3176   -0.9241 Cl      1  UNL1       -0.0813
     25 C          58.8484   92.2495    1.5444 C.ar    1  UNL1        0.0268
     26 C          61.1403   86.0256   12.6539 C.3     1  UNL1        0.1535
     27 C          60.5656   84.6297   12.7601 C.2     1  UNL1        0.2443
     28 O          60.1965   84.1868   13.8818 O.2     1  UNL1       -0.2730
     29 N          60.4114   83.8321   11.5732 N.am    1  UNL1       -0.2825
     30 H          60.9399   84.1283   10.7215 H       1  UNL1        0.1549
     31 C          59.6237   82.6304   11.4791 C.ar    1  UNL1        0.0532
     32 C          58.7898   82.3688   10.3780 C.ar    1  UNL1        0.0353
     33 C          58.0776   81.1695   10.3206 C.ar    1  UNL1        0.0998
     34 N          58.2001   80.2538   11.3166 N.ar    1  UNL1       -0.2456
     35 CA         59.0185   80.4607   12.3833 C.ar    1  UNL1        0.0897
     36 C          59.7418   81.6575   12.4820 C.ar    1  UNL1        0.0319
     37 C          59.0962   79.4292   13.4690 C.3     1  UNL1        0.1829
     38 O          58.8137   80.0151   14.7099 O.3     1  UNL1       -0.3760
     39 H          59.6311   80.5078   14.9843 H       1  UNL1        0.2110
     40 C          62.6348   86.0275   13.0252 C.3     1  UNL1        0.0569
     41 C          63.1059   87.4045   13.4015 C.ar    1  UNL1       -0.0017
     42 C          63.4162   88.4366   12.5208 C.ar    1  UNL1        0.0681
     43 N          63.6745   89.5767   13.2006 N.ar    1  UNL1       -0.3523
     44 C          63.5190   89.2768   14.5017 C.ar    1  UNL1        0.0563
     45 C          63.6408   90.1427   15.5877 C.ar    1  UNL1        0.0170
     46 C          63.3983   89.6242   16.8726 C.ar    1  UNL1        0.0015
     47 C          63.0432   88.2678   17.0414 C.ar    1  UNL1        0.0001
     48 C          62.9263   87.4176   15.9270 C.ar    1  UNL1        0.0012
     49 C          63.1716   87.9601   14.6651 C.ar    1  UNL1        0.0131
     50 H          63.9184   90.5062   12.7921 H       1  UNL1        0.1660
@<TRIPOS>BOND
     1     1     2    2
     2     2     3   am
     3     3    26    1
     4    26    40    1
     5    40    41    1
     6    41    42   ar
     7    42    43   ar
     8    43    44   ar
     9    44    45   ar
    10    45    46   ar
    11    46    47   ar
    12    47    48   ar
    13    48    49   ar
    14    26    27    1
    15    27    28    2
    16    27    29   am
    17    29    31    1
    18    31    32   ar
    19    32    33   ar
    20    33    34   ar
    21    34    35   ar
    22    35    37    1
    23    37    38    1
    24    35    36   ar
    25     2     5    1
    26     5     6   ar
    27     6     7   ar
    28     7     8   ar
    29     8    12    1
    30    12    13    1
    31    13    14    1
    32    14    15    1
    33    15    18    1
    34    18    19   ar
    35    19    20   ar
    36    20    21   ar
    37    21    22    1
    38    21    23   ar
    39    23    24    1
    40    23    25   ar
    41    15    16    1
    42    16    17    1
    43     8     9   ar
    44     9    10   ar
    45    10    11    1
    46    49    41   ar
    47    36    31   ar
    48    10     5   ar
    49    49    44   ar
    50    17    12    1
    51    25    18   ar
    52     3     4    1
    53    43    50    1
    54    29    30    1
    55    38    39    1
@<TRIPOS>MOLECULE
*****
 50 55 0 0 0
SMALL
GASTEIGER

@<TRIPOS>ATOM
      1 O          58.9238   86.2555   11.0218 O.2     1  UNL1       -0.2701
      2 C          59.5257   87.3617   10.9448 C.2     1  UNL1        0.2483
      3 N          60.1739   87.9042   12.1071 N.am    1  UNL1       -0.2945
      4 H          60.8661   88.6746   11.9694 H       1  UNL1        0.1501
      5 C          59.5819   88.0665    9.6442 C.ar    1  UNL1        0.0808
      6 C          60.1788   89.3362    9.5686 C.ar    1  UNL1        0.0080
      7 C          60.2405   90.0211    8.3524 C.ar    1  UNL1        0.0148
      8 C          59.7183   89.4437    7.1847 C.ar    1  UNL1        0.0502
      9 C          59.1357   88.1696    7.2538 C.ar    1  UNL1        0.0443
     10 C          59.0699   87.4813    8.4695 C.ar    1  UNL1        0.1457
     11 F          58.5479   86.2287    8.4816 F       1  UNL1       -0.2040
     12 N          59.7775   90.1452    5.9284 N.pl3   1  UNL1       -0.3040
     13 C          58.5394   90.5840    5.2734 C.3     1  UNL1        0.1122
     14 C          58.7469   91.9568    4.6367 C.3     1  UNL1        0.1122
     15 N          59.9722   91.9522    3.8287 N.pl3   1  UNL1       -0.3040
     16 C          61.2154   91.5083    4.4707 C.3     1  UNL1        0.1122
     17 C          61.0106   90.1432    5.1321 C.3     1  UNL1        0.1122
     18 C          60.0090   92.6555    2.5725 C.ar    1  UNL1        0.0488
     19 C          61.0966   93.4823    2.2458 C.ar    1  UNL1        0.0154
     20 C          61.1262   94.1597    1.0242 C.ar    1  UNL1        0.0135
     21 C          60.0741   94.0192    0.1132 C.ar    1  UNL1        0.0683
     22 CL         60.1476   94.8876   -1.4141 Cl      1  UNL1       -0.0814
     23 C          58.9836   93.1917    0.4297 C.ar    1  UNL1        0.0694
     24 CL         57.6436   92.9818   -0.6895 Cl      1  UNL1       -0.0813
     25 C          58.9558   92.5147    1.6546 C.ar    1  UNL1        0.0268
     26 C          59.9401   87.3632   13.4526 C.3     1  UNL1        0.1535
     27 C          61.0045   86.3539   13.8246 C.2     1  UNL1        0.2443
     28 O          60.6987   85.3467   14.5192 O.2     1  UNL1       -0.2730
     29 N          62.3509   86.5333   13.3515 N.am    1  UNL1       -0.2825
     30 H          62.6143   87.4799   12.9951 H       1  UNL1        0.1549
     31 C          63.3784   85.5249   13.3746 C.ar    1  UNL1        0.0532
     32 C          64.3358   85.4581   14.4018 C.ar    1  UNL1        0.0353
     33 C          65.2863   84.4356   14.3946 C.ar    1  UNL1        0.0998
     34 N          65.2779   83.5020   13.4078 N.ar    1  UNL1       -0.2456
     35 CA         64.3499   83.5191   12.4133 C.ar    1  UNL1        0.0897
     36 C          63.3858   84.5361   12.3803 C.ar    1  UNL1        0.0319
     37 C          64.4022   82.4804   11.3329 C.3     1  UNL1        0.1829
     38 O          64.8005   83.0646   10.1234 O.3     1  UNL1       -0.3760
     39 H          64.0071   83.5409    9.7630 H       1  UNL1        0.2110
     40 C          59.8953   88.5092   14.4802 C.3     1  UNL1        0.0569
     41 C          61.2676   88.8359   14.9995 C.ar    1  UNL1       -0.0017
     42 C          61.8149   88.4046   16.2044 C.ar    1  UNL1        0.0681
     43 N          63.1137   88.7712   16.2918 N.ar    1  UNL1       -0.3523
     44 C          63.3944   89.4200   15.1485 C.ar    1  UNL1        0.0563
     45 C          64.6232   89.9522   14.7600 C.ar    1  UNL1        0.0170
     46 C          64.7050   90.5632   13.4956 C.ar    1  UNL1        0.0015
     47 C          63.5703   90.6275   12.6574 C.ar    1  UNL1        0.0001
     48 C          62.3436   90.0805   13.0751 C.ar    1  UNL1        0.0012
     49 C          62.2929   89.4799   14.3334 C.ar    1  UNL1        0.0131
     50 H          63.7693   88.5661   17.0783 H       1  UNL1        0.1660
@<TRIPOS>BOND
     1     1     2    2
     2     2     3   am
     3     3    26    1
     4    26    40    1
     5    40    41    1
     6    41    42   ar
     7    42    43   ar
     8    43    44   ar
     9    44    45   ar
    10    45    46   ar
    11    46    47   ar
    12    47    48   ar
    13    48    49   ar
    14    26    27    1
    15    27    28    2
    16    27    29   am
    17    29    31    1
    18    31    32   ar
    19    32    33   ar
    20    33    34   ar
    21    34    35   ar
    22    35    37    1
    23    37    38    1
    24    35    36   ar
    25     2     5    1
    26     5     6   ar
    27     6     7   ar
    28     7     8   ar
    29     8    12    1
    30    12    13    1
    31    13    14    1
    32    14    15    1
    33    15    18    1
    34    18    19   ar
    35    19    20   ar
    36    20    21   ar
    37    21    22    1
    38    21    23   ar
    39    23    24    1
    40    23    25   ar
    41    15    16    1
    42    16    17    1
    43     8     9   ar
    44     9    10   ar
    45    10    11    1
    46    49    41   ar
    47    36    31   ar
    48    10     5   ar
    49    49    44   ar
    50    17    12    1
    51    25    18   ar
    52     3     4    1
    53    43    50    1
    54    29    30    1
    55    38    39    1
@<TRIPOS>MOLECULE
*****
 50 55 0 0 0
SMALL
GASTEIGER

@<TRIPOS>ATOM
      1 O          60.9556   86.2756   11.3076 O.2     1  UNL1       -0.2701
      2 C          59.9920   87.0549   11.0713 C.2     1  UNL1        0.2483
      3 N          58.9464   87.2131   12.0444 N.am    1  UNL1       -0.2945
      4 H          58.3045   88.0319   11.9479 H       1  UNL1        0.1501
      5 C          59.9741   87.8210    9.8046 C.ar    1  UNL1        0.0808
      6 C          59.3470   87.2746    8.6722 C.ar    1  UNL1        0.0080
      7 C          59.3204   87.9785    7.4656 C.ar    1  UNL1        0.0148
      8 C          59.9090   89.2489    7.3712 C.ar    1  UNL1        0.0502
      9 C          60.5222   89.8040    8.5041 C.ar    1  UNL1        0.0443
     10 C          60.5530   89.1021    9.7134 C.ar    1  UNL1        0.1457
     11 F          61.1077   89.6984   10.7989 F       1  UNL1       -0.2040
     12 N          59.8863   89.9788    6.1300 N.pl3   1  UNL1       -0.3040
     13 C          58.6070   90.4168    5.5591 C.3     1  UNL1        0.1122
     14 C          58.7615   91.8059    4.9430 C.3     1  UNL1        0.1122
     15 N          59.9369   91.8342    4.0643 N.pl3   1  UNL1       -0.3040
     16 C          61.2206   91.3914    4.6219 C.3     1  UNL1        0.1122
     17 C          61.0702   90.0095    5.2627 C.3     1  UNL1        0.1122
     18 C          59.8918   92.5657    2.8246 C.ar    1  UNL1        0.0488
     19 C          58.7262   92.5760    2.0408 C.ar    1  UNL1        0.0154
     20 C          58.6894   93.2898    0.8403 C.ar    1  UNL1        0.0135
     21 C          59.8123   94.0035    0.4084 C.ar    1  UNL1        0.0683
     22 CL         59.7271   94.8900   -1.1079 Cl      1  UNL1       -0.0814
     23 C          60.9814   94.0018    1.1874 C.ar    1  UNL1        0.0694
     24 CL         62.4129   94.8910    0.6847 Cl      1  UNL1       -0.0813
     25 C          61.0163   93.2852    2.3894 C.ar    1  UNL1        0.0268
     26 C          58.8050   86.3044   13.1898 C.3     1  UNL1        0.1535
     27 C          58.2647   84.9601   12.7529 C.2     1  UNL1        0.2443
     28 O          57.0670   84.6540   13.0027 O.2     1  UNL1       -0.2730
     29 N          59.1126   84.0559   12.0234 N.am    1  UNL1       -0.2825
     30 H          60.1421   84.2349   12.0483 H       1  UNL1        0.1549
     31 C          58.6594   82.8959   11.3009 C.ar    1  UNL1        0.0532
     32 C          58.1677   82.9802    9.9865 C.ar    1  UNL1        0.0353
     33 C          57.7776   81.8177    9.3192 C.ar    1  UNL1        0.0998
     34 N          57.8851   80.6098    9.9314 N.ar    1  UNL1       -0.2456
     35 CA         58.3819   80.4871   11.1918 C.ar    1  UNL1        0.0897
     36 C          58.7742   81.6325   11.8983 C.ar    1  UNL1        0.0319
     37 C          58.4537   79.1327   11.8316 C.3     1  UNL1        0.1829
     38 O          58.2390   78.1354   10.8713 O.3     1  UNL1       -0.3760
     39 H          57.2612   78.1112   10.7004 H       1  UNL1        0.2110
     40 C          60.1605   86.1398   13.9018 C.3     1  UNL1        0.0569
     41 C          60.6469   87.4452   14.4665 C.ar    1  UNL1       -0.0017
     42 C          59.9117   88.3242   15.2565 C.ar    1  UNL1        0.0681
     43 N          60.6977   89.3307   15.7011 N.ar    1  UNL1       -0.3523
     44 C          61.9249   89.0892   15.2086 C.ar    1  UNL1        0.0563
     45 C          63.0837   89.8329   15.4278 C.ar    1  UNL1        0.0170
     46 C          64.2781   89.3778   14.8407 C.ar    1  UNL1        0.0015
     47 C          64.2878   88.2030   14.0570 C.ar    1  UNL1        0.0001
     48 C          63.1035   87.4718   13.8542 C.ar    1  UNL1        0.0012
     49 C          61.9345   87.9467   14.4498 C.ar    1  UNL1        0.0131
     50 H          60.4114   90.1191   16.3232 H       1  UNL1        0.1660
@<TRIPOS>BOND
     1     1     2    2
     2     2     3   am
     3     3    26    1
     4    26    40    1
     5    40    41    1
     6    41    42   ar
     7    42    43   ar
     8    43    44   ar
     9    44    45   ar
    10    45    46   ar
    11    46    47   ar
    12    47    48   ar
    13    48    49   ar
    14    26    27    1
    15    27    28    2
    16    27    29   am
    17    29    31    1
    18    31    32   ar
    19    32    33   ar
    20    33    34   ar
    21    34    35   ar
    22    35    37    1
    23    37    38    1
    24    35    36   ar
    25     2     5    1
    26     5     6   ar
    27     6     7   ar
    28     7     8   ar
    29     8    12    1
    30    12    13    1
    31    13    14    1
    32    14    15    1
    33    15    18    1
    34    18    19   ar
    35    19    20   ar
    36    20    21   ar
    37    21    22    1
    38    21    23   ar
    39    23    24    1
    40    23    25   ar
    41    15    16    1
    42    16    17    1
    43     8     9   ar
    44     9    10   ar
    45    10    11    1
    46    49    41   ar
    47    36    31   ar
    48    10     5   ar
    49    49    44   ar
    50    17    12    1
    51    25    18   ar
    52     3     4    1
    53    43    50    1
    54    29    30    1
    55    38    39    1
@<TRIPOS>MOLECULE
*****
 50 55 0 0 0
SMALL
GASTEIGER

@<TRIPOS>ATOM
      1 O          59.2714   87.4459    8.3799 O.2     1  UNL1       -0.2701
      2 C          59.9389   86.9302    9.3181 C.2     1  UNL1        0.2483
      3 N          59.7913   85.5318    9.6145 N.am    1  UNL1       -0.2945
      4 H          60.5187   85.0759   10.2101 H       1  UNL1        0.1501
      5 C          60.8912   87.7720   10.0771 C.ar    1  UNL1        0.0808
      6 C          60.9908   89.1427    9.7850 C.ar    1  UNL1        0.0080
      7 C          61.8846   89.9557   10.4866 C.ar    1  UNL1        0.0148
      8 C          62.6872   89.4164   11.5036 C.ar    1  UNL1        0.0502
      9 C          62.5789   88.0515   11.8084 C.ar    1  UNL1        0.0443
     10 C          61.6871   87.2336   11.1073 C.ar    1  UNL1        0.1457
     11 F          61.5741   85.9310   11.4709 F       1  UNL1       -0.2040
     12 N          63.6115   90.2488   12.2293 N.pl3   1  UNL1       -0.3040
     13 C          63.6582   90.1892   13.6952 C.3     1  UNL1        0.1122
     14 C          65.1046   90.2984   14.1737 C.3     1  UNL1        0.1122
     15 N          65.7605   91.4395   13.5239 N.pl3   1  UNL1       -0.3040
     16 C          65.7141   91.5139   12.0586 C.3     1  UNL1        0.1122
     17 C          64.2702   91.3817   11.5680 C.3     1  UNL1        0.1122
     18 C          66.6777   92.2628   14.2689 C.ar    1  UNL1        0.0488
     19 C          66.6329   93.6627   14.1620 C.ar    1  UNL1        0.0154
     20 C          67.5245   94.4549   14.8896 C.ar    1  UNL1        0.0135
     21 C          68.4690   93.8618   15.7339 C.ar    1  UNL1        0.0683
     22 CL         69.5740   94.8922   16.6336 Cl      1  UNL1       -0.0814
     23 C          68.5191   92.4625   15.8499 C.ar    1  UNL1        0.0694
     24 CL         69.6861   91.6765   16.9047 Cl      1  UNL1       -0.0813
     25 C          67.6253   91.6708   15.1192 C.ar    1  UNL1        0.0268
     26 C          58.6976   84.7281    9.0528 C.3     1  UNL1        0.1535
     27 C          59.0284   83.2522    9.1002 C.2     1  UNL1        0.2443
     28 O          59.7664   82.7458    8.2116 O.2     1  UNL1       -0.2730
     29 N          58.5271   82.4454   10.1802 N.am    1  UNL1       -0.2825
     30 H          57.7397   82.8343   10.7469 H       1  UNL1        0.1549
     31 C          58.9926   81.1240   10.5125 C.ar    1  UNL1        0.0532
     32 C          58.1131   80.0989   10.9024 C.ar    1  UNL1        0.0353
     33 C          58.6150   78.8253   11.1761 C.ar    1  UNL1        0.0998
     34 N          59.9443   78.5738   11.0530 N.ar    1  UNL1       -0.2456
     35 CA         60.8208   79.5336   10.6516 C.ar    1  UNL1        0.0897
     36 C          60.3565   80.8276   10.3780 C.ar    1  UNL1        0.0319
     37 C          62.2823   79.2105   10.5585 C.3     1  UNL1        0.1829
     38 O          62.6234   78.9037    9.2347 O.3     1  UNL1       -0.3760
     39 H          62.3075   77.9773    9.0671 H       1  UNL1        0.2110
     40 C          57.3891   85.0162    9.8119 C.3     1  UNL1        0.0569
     41 C          57.6139   85.0609   11.2975 C.ar    1  UNL1       -0.0017
     42 C          57.6568   83.9662   12.1560 C.ar    1  UNL1        0.0681
     43 N          58.0123   84.3554   13.4013 N.ar    1  UNL1       -0.3523
     44 C          58.2054   85.6840   13.3344 C.ar    1  UNL1        0.0563
     45 C          58.6220   86.5291   14.3621 C.ar    1  UNL1        0.0170
     46 C          58.7963   87.8924   14.0626 C.ar    1  UNL1        0.0015
     47 C          58.5536   88.3749   12.7578 C.ar    1  UNL1        0.0001
     48 C          58.1354   87.4987   11.7401 C.ar    1  UNL1        0.0012
     49 C          57.9722   86.1519   12.0663 C.ar    1  UNL1        0.0131
     50 H          58.1369   83.7410   14.2363 H       1  UNL1        0.1660
@<TRIPOS>BOND
     1     1     2    2
     2     2     3   am
     3     3    26    1
     4    26    40    1
     5    40    41    1
     6    41    42   ar
     7    42    43   ar
     8    43    44   ar
     9    44    45   ar
    10    45    46   ar
    11    46    47   ar
    12    47    48   ar
    13    48    49   ar
    14    26    27    1
    15    27    28    2
    16    27    29   am
    17    29    31    1
    18    31    32   ar
    19    32    33   ar
    20    33    34   ar
    21    34    35   ar
    22    35    37    1
    23    37    38    1
    24    35    36   ar
    25     2     5    1
    26     5     6   ar
    27     6     7   ar
    28     7     8   ar
    29     8    12    1
    30    12    13    1
    31    13    14    1
    32    14    15    1
    33    15    18    1
    34    18    19   ar
    35    19    20   ar
    36    20    21   ar
    37    21    22    1
    38    21    23   ar
    39    23    24    1
    40    23    25   ar
    41    15    16    1
    42    16    17    1
    43     8     9   ar
    44     9    10   ar
    45    10    11    1
    46    49    41   ar
    47    36    31   ar
    48    10     5   ar
    49    49    44   ar
    50    17    12    1
    51    25    18   ar
    52     3     4    1
    53    43    50    1
    54    29    30    1
    55    38    39    1
@<TRIPOS>MOLECULE
*****
 50 55 0 0 0
SMALL
GASTEIGER

@<TRIPOS>ATOM
      1 O          58.5271   87.1095   11.4830 O.2     1  UNL1       -0.2701
      2 C          59.6331   87.4530   10.9825 C.2     1  UNL1        0.2483
      3 N          60.8560   87.1372   11.6683 N.am    1  UNL1       -0.2945
      4 H          61.7507   87.2003   11.1324 H       1  UNL1        0.1501
      5 C          59.6519   88.1480    9.6755 C.ar    1  UNL1        0.0808
      6 C          60.1761   89.4487    9.5890 C.ar    1  UNL1        0.0080
      7 C          60.2013   90.1247    8.3666 C.ar    1  UNL1        0.0148
      8 C          59.7149   89.5081    7.2036 C.ar    1  UNL1        0.0502
      9 C          59.2053   88.2037    7.2836 C.ar    1  UNL1        0.0443
     10 C          59.1762   87.5240    8.5055 C.ar    1  UNL1        0.1457
     11 F          58.7258   86.2440    8.5285 F       1  UNL1       -0.2040
     12 N          59.7367   90.2002    5.9409 N.pl3   1  UNL1       -0.3040
     13 C          58.4782   90.6088    5.3056 C.3     1  UNL1        0.1122
     14 C          58.6462   91.9801    4.6545 C.3     1  UNL1        0.1122
     15 N          59.8562   91.9934    3.8238 N.pl3   1  UNL1       -0.3040
     16 C          61.1197   91.5797    4.4460 C.3     1  UNL1        0.1122
     17 C          60.9548   90.2163    5.1218 C.3     1  UNL1        0.1122
     18 C          59.8556   92.6870    2.5616 C.ar    1  UNL1        0.0488
     19 C          60.8560   93.6256    2.2594 C.ar    1  UNL1        0.0154
     20 C          60.8500   94.2929    1.0319 C.ar    1  UNL1        0.0135
     21 C          59.8491   94.0308    0.0906 C.ar    1  UNL1        0.0683
     22 CL         59.8755   94.8905   -1.4432 Cl      1  UNL1       -0.0814
     23 C          58.8463   93.0912    0.3826 C.ar    1  UNL1        0.0694
     24 CL         57.5735   92.7269   -0.7749 Cl      1  UNL1       -0.0813
     25 C          58.8538   92.4244    1.6135 C.ar    1  UNL1        0.0268
     26 C          60.8693   86.6704   13.0610 C.3     1  UNL1        0.1535
     27 C          60.2090   85.3145   13.1855 C.2     1  UNL1        0.2443
     28 O          59.4503   85.0736   14.1638 O.2     1  UNL1       -0.2730
     29 N          60.4240   84.3226   12.1664 N.am    1  UNL1       -0.2825
     30 H          61.2303   84.4659   11.5169 H       1  UNL1        0.1549
     31 C          59.6449   83.1232   12.0002 C.ar    1  UNL1        0.0532
     32 C          58.7933   82.9330   10.8979 C.ar    1  UNL1        0.0353
     33 C          58.0903   81.7340   10.7671 C.ar    1  UNL1        0.0998
     34 N          58.2385   80.7506   11.6926 N.ar    1  UNL1       -0.2456
     35 CA         59.0744   80.8886   12.7569 C.ar    1  UNL1        0.0897
     36 C          59.7893   82.0822   12.9285 C.ar    1  UNL1        0.0319
     37 C          59.1804   79.7828   13.7643 C.3     1  UNL1        0.1829
     38 O          58.6327   78.6034   13.2430 O.3     1  UNL1       -0.3760
     39 H          57.6460   78.6971   13.3039 H       1  UNL1        0.2110
     40 C          62.3163   86.6203   13.5856 C.3     1  UNL1        0.0569
     41 C          63.0216   85.3719   13.1342 C.ar    1  UNL1       -0.0017
     42 C          63.4937   84.3519   13.9551 C.ar    1  UNL1        0.0681
     43 N          63.9525   83.3202   13.2109 N.ar    1  UNL1       -0.3523
     44 C          63.7640   83.6746   11.9281 C.ar    1  UNL1        0.0563
     45 C          64.0462   82.9162   10.7927 C.ar    1  UNL1        0.0170
     46 C          63.7342   83.4697    9.5378 C.ar    1  UNL1        0.0015
     47 C          63.1535   84.7537    9.4466 C.ar    1  UNL1        0.0001
     48 C          62.8783   85.4957   10.6094 C.ar    1  UNL1        0.0012
     49 C          63.1975   84.9206   11.8400 C.ar    1  UNL1        0.0131
     50 H          64.3475   82.4209   13.5656 H       1  UNL1        0.1660
@<TRIPOS>BOND
     1     1     2    2
     2     2     3   am
     3     3    26    1
     4    26    40    1
     5    40    41    1
     6    41    42   ar
     7    42    43   ar
     8    43    44   ar
     9    44    45   ar
    10    45    46   ar
    11    46    47   ar
    12    47    48   ar
    13    48    49   ar
    14    26    27    1
    15    27    28    2
    16    27    29   am
    17    29    31    1
    18    31    32   ar
    19    32    33   ar
    20    33    34   ar
    21    34    35   ar
    22    35    37    1
    23    37    38    1
    24    35    36   ar
    25     2     5    1
    26     5     6   ar
    27     6     7   ar
    28     7     8   ar
    29     8    12    1
    30    12    13    1
    31    13    14    1
    32    14    15    1
    33    15    18    1
    34    18    19   ar
    35    19    20   ar
    36    20    21   ar
    37    21    22    1
    38    21    23   ar
    39    23    24    1
    40    23    25   ar
    41    15    16    1
    42    16    17    1
    43     8     9   ar
    44     9    10   ar
    45    10    11    1
    46    49    41   ar
    47    36    31   ar
    48    10     5   ar
    49    49    44   ar
    50    17    12    1
    51    25    18   ar
    52     3     4    1
    53    43    50    1
    54    29    30    1
    55    38    39    1
@<TRIPOS>MOLECULE
*****
 50 55 0 0 0
SMALL
GASTEIGER

@<TRIPOS>ATOM
      1 O          57.2923   87.0902   13.4028 O.2     1  UNL1       -0.2701
      2 C          58.3540   86.9654   12.7327 C.2     1  UNL1        0.2483
      3 N          58.3867   86.0738   11.6061 N.am    1  UNL1       -0.2945
      4 H          59.1735   86.1701   10.9254 H       1  UNL1        0.1501
      5 C          59.5414   87.7694   13.1009 C.ar    1  UNL1        0.0808
      6 C          59.9109   88.8660   12.3040 C.ar    1  UNL1        0.0080
      7 C          61.0293   89.6370   12.6307 C.ar    1  UNL1        0.0148
      8 C          61.7927   89.3346   13.7687 C.ar    1  UNL1        0.0502
      9 C          61.4174   88.2500   14.5752 C.ar    1  UNL1        0.0443
     10 C          60.2998   87.4742   14.2507 C.ar    1  UNL1        0.1457
     11 F          59.9397   86.4684   15.0876 F       1  UNL1       -0.2040
     12 N          62.9474   90.1246   14.1100 N.pl3   1  UNL1       -0.3040
     13 C          63.4075   90.1891   15.5023 C.3     1  UNL1        0.1122
     14 C          64.9343   90.1857   15.5455 C.3     1  UNL1        0.1122
     15 N          65.4623   91.1893   14.6137 N.pl3   1  UNL1       -0.3040
     16 C          65.0037   91.1395   13.2201 C.3     1  UNL1        0.1122
     17 C          63.4742   91.1189   13.1672 C.3     1  UNL1        0.1122
     18 C          66.6150   91.9728   14.9763 C.ar    1  UNL1        0.0488
     19 C          66.5343   92.9376   15.9941 C.ar    1  UNL1        0.0154
     20 C          67.6575   93.6922   16.3418 C.ar    1  UNL1        0.0135
     21 C          68.8744   93.4925   15.6816 C.ar    1  UNL1        0.0683
     22 CL         70.2658   94.4615   16.1477 Cl      1  UNL1       -0.0814
     23 C          68.9656   92.5274   14.6647 C.ar    1  UNL1        0.0694
     24 CL         70.4776   92.2397   13.8140 Cl      1  UNL1       -0.0813
     25 C          67.8387   91.7731   14.3174 C.ar    1  UNL1        0.0268
     26 C          57.3214   85.0934   11.3580 C.3     1  UNL1        0.1535
     27 C          57.5105   84.4130   10.0196 C.2     1  UNL1        0.2443
     28 O          56.6393   84.5491    9.1179 O.2     1  UNL1       -0.2730
     29 N          58.7017   83.6452    9.7743 N.am    1  UNL1       -0.2825
     30 H          59.2696   83.3586   10.6037 H       1  UNL1        0.1549
     31 C          59.1481   83.1993    8.4800 C.ar    1  UNL1        0.0532
     32 C          58.5740   82.0906    7.8336 C.ar    1  UNL1        0.0353
     33 C          59.0198   81.7256    6.5620 C.ar    1  UNL1        0.0998
     34 N          59.9935   82.4457    5.9465 N.ar    1  UNL1       -0.2456
     35 CA         60.5522   83.5402    6.5299 C.ar    1  UNL1        0.0897
     36 C          60.1387   83.9319    7.8107 C.ar    1  UNL1        0.0319
     37 C          61.6431   84.2837    5.8184 C.3     1  UNL1        0.1829
     38 O          62.6731   84.5993    6.7142 O.3     1  UNL1       -0.3760
     39 H          62.3578   85.3751    7.2478 H       1  UNL1        0.2110
     40 C          57.2860   84.0554   12.4950 C.3     1  UNL1        0.0569
     41 C          58.5597   83.2593   12.5523 C.ar    1  UNL1       -0.0017
     42 C          59.7305   83.6272   13.2089 C.ar    1  UNL1        0.0681
     43 N          60.6308   82.6190   13.1709 N.ar    1  UNL1       -0.3523
     44 C          60.0352   81.6138   12.5062 C.ar    1  UNL1        0.0563
     45 C          60.5568   80.3468   12.2480 C.ar    1  UNL1        0.0170
     46 C          59.7427   79.4278   11.5616 C.ar    1  UNL1        0.0015
     47 C          58.4404   79.7912   11.1536 C.ar    1  UNL1        0.0001
     48 C          57.9397   81.0764   11.4292 C.ar    1  UNL1        0.0012
     49 C          58.7695   81.9661   12.1125 C.ar    1  UNL1        0.0131
     50 H          61.5844   82.6163   13.5965 H       1  UNL1        0.1660
@<TRIPOS>BOND
     1     1     2    2
     2     2     3   am
     3     3    26    1
     4    26    40    1
     5    40    41    1
     6    41    42   ar
     7    42    43   ar
     8    43    44   ar
     9    44    45   ar
    10    45    46   ar
    11    46    47   ar
    12    47    48   ar
    13    48    49   ar
    14    26    27    1
    15    27    28    2
    16    27    29   am
    17    29    31    1
    18    31    32   ar
    19    32    33   ar
    20    33    34   ar
    21    34    35   ar
    22    35    37    1
    23    37    38    1
    24    35    36   ar
    25     2     5    1
    26     5     6   ar
    27     6     7   ar
    28     7     8   ar
    29     8    12    1
    30    12    13    1
    31    13    14    1
    32    14    15    1
    33    15    18    1
    34    18    19   ar
    35    19    20   ar
    36    20    21   ar
    37    21    22    1
    38    21    23   ar
    39    23    24    1
    40    23    25   ar
    41    15    16    1
    42    16    17    1
    43     8     9   ar
    44     9    10   ar
    45    10    11    1
    46    49    41   ar
    47    36    31   ar
    48    10     5   ar
    49    49    44   ar
    50    17    12    1
    51    25    18   ar
    52     3     4    1
    53    43    50    1
    54    29    30    1
    55    38    39    1
