@<TRIPOS>MOLECULE
*****
 42 45 0 0 0
SMALL
GASTEIGER

@<TRIPOS>ATOM
      1 C         -26.6065   50.4857   -4.7177 C.ar    1  UNL1        0.0131
      2 C         -27.1538   49.6953   -3.6990 C.ar    1  UNL1       -0.0011
      3 C         -27.8097   48.4999   -4.0064 C.ar    1  UNL1        0.0049
      4 C         -27.8964   48.0741   -5.3367 C.ar    1  UNL1        0.0181
      5 C         -27.3381   48.8429   -6.3788 C.ar    1  UNL1        0.0878
      6 C         -26.6965   50.0549   -6.0550 C.ar    1  UNL1        0.1488
      7 O         -26.1170   50.8307   -7.0643 O.3     1  UNL1       -0.4689
      8 C         -26.3806   50.6613   -8.4601 C.3     1  UNL1        0.2197
      9 C         -27.6105   51.5253   -8.7968 C.3     1  UNL1        0.0579
     10 C         -26.7069   49.2142   -8.7582 C.2     1  UNL1        0.2698
     11 O         -26.4810   48.7477   -9.9102 O.2     1  UNL1       -0.2704
     12 N         -27.3550   48.3984   -7.7597 N.am    1  UNL1       -0.2512
     13 C         -28.3767   47.6646   -2.9268 C.ar    1  UNL1        0.0449
     14 C         -29.6537   47.9439   -2.3949 C.ar    1  UNL1        0.1293
     15 N         -30.4598   49.0154   -2.8979 N.pl3   1  UNL1       -0.3425
     16 N         -30.1426   47.1762   -1.3866 N.ar    1  UNL1       -0.1995
     17 C         -29.4296   46.1435   -0.8721 C.ar    1  UNL1        0.2145
     18 N         -29.9712   45.3613    0.1895 N.pl3   1  UNL1       -0.3274
     19 N         -28.1983   45.8593   -1.3648 N.ar    1  UNL1       -0.2183
     20 C         -27.6527   46.5801   -2.3802 C.ar    1  UNL1        0.0645
     21 H         -30.1580   49.6124   -3.6988 H       1  UNL1        0.1437
     22 H         -31.3936   49.2065   -2.4717 H       1  UNL1        0.1437
     23 H         -30.9176   45.5761    0.5749 H       1  UNL1        0.1452
     24 H         -29.4265   44.5664    0.5916 H       1  UNL1        0.1452
     25 C         -26.2546   46.2324   -2.8248 C.3     1  UNL1        0.0460
     26 C         -25.8866   44.8134   -2.4033 C.3     1  UNL1        0.0067
     27 C         -25.1321   51.0870   -9.2374 C.ar    1  UNL1        0.0228
     28 C         -25.0940   51.0962  -10.6495 C.ar    1  UNL1       -0.0004
     29 C         -23.9227   51.4437  -11.3285 C.ar    1  UNL1        0.0007
     30 C         -22.7665   51.7644  -10.6167 C.ar    1  UNL1        0.0114
     31 C         -22.7739   51.7265   -9.2211 C.ar    1  UNL1        0.0575
     32 CL        -21.3127   52.1030   -8.3264 Cl      1  UNL1       -0.0823
     33 C         -23.9428   51.3791   -8.5361 C.ar    1  UNL1        0.0109
     34 C         -25.1926   51.6302   -3.0081 C.3     1  UNL1        0.0051
     35 C         -25.8786   51.7586   -4.3642 C.3     1  UNL1        0.0295
     36 C         -27.9239   47.0987   -8.1581 C.3     1  UNL1        0.1196
     37 C         -29.3090   47.2897   -8.7830 C.3     1  UNL1        0.1113
     38 N         -29.2253   47.2326  -10.2405 N.am    1  UNL1       -0.3026
     39 C         -29.7880   46.1568  -11.0039 C.2     1  UNL1        0.2230
     40 C         -29.6723   46.1595  -12.4931 C.3     1  UNL1        0.0946
     41 O         -30.3470   45.1862  -10.4250 O.2     1  UNL1       -0.2751
     42 H         -28.6867   47.9774  -10.7381 H       1  UNL1        0.1495
@<TRIPOS>BOND
     1    34    35    1
     2    35     1    1
     3     1     2   ar
     4     2     3   ar
     5     3    13    1
     6    13    14   ar
     7    14    15    1
     8    14    16   ar
     9    16    17   ar
    10    17    18    1
    11    17    19   ar
    12    19    20   ar
    13    20    25    1
    14    25    26    1
    15     3     4   ar
    16     4     5   ar
    17     5     6   ar
    18     6     7    1
    19     7     8    1
    20     8     9    1
    21     8    27    1
    22    27    28   ar
    23    28    29   ar
    24    29    30   ar
    25    30    31   ar
    26    31    32    1
    27    31    33   ar
    28     8    10    1
    29    10    11    2
    30    10    12   am
    31    12    36    1
    32    36    37    1
    33    37    38    1
    34    38    39   am
    35    39    40    1
    36    39    41    2
    37     6     1   ar
    38    33    27   ar
    39    20    13   ar
    40    12     5    1
    41    15    21    1
    42    15    22    1
    43    18    23    1
    44    18    24    1
    45    38    42    1
@<TRIPOS>MOLECULE
*****
 42 45 0 0 0
SMALL
GASTEIGER

@<TRIPOS>ATOM
      1 C         -29.7834   47.9816   -7.7222 C.ar    1  UNL1        0.0131
      2 C         -30.1203   47.4502   -8.9738 C.ar    1  UNL1       -0.0011
      3 C         -29.3597   47.7646  -10.1035 C.ar    1  UNL1        0.0049
      4 C         -28.2378   48.5920   -9.9808 C.ar    1  UNL1        0.0181
      5 C         -27.8673   49.1253   -8.7290 C.ar    1  UNL1        0.0878
      6 C         -28.6548   48.8146   -7.6026 C.ar    1  UNL1        0.1488
      7 O         -28.3028   49.3133   -6.3442 O.3     1  UNL1       -0.4689
      8 C         -27.3724   50.3794   -6.1333 C.3     1  UNL1        0.2197
      9 C         -28.1700   51.6955   -6.1956 C.3     1  UNL1        0.0579
     10 C         -26.3317   50.3893   -7.2316 C.2     1  UNL1        0.2698
     11 O         -25.1868   50.8713   -7.0026 O.2     1  UNL1       -0.2704
     12 N         -26.6747   49.9334   -8.5571 N.am    1  UNL1       -0.2512
     13 C         -29.7135   47.1931  -11.4200 C.ar    1  UNL1        0.0449
     14 C         -28.9978   46.0959  -11.9450 C.ar    1  UNL1        0.1293
     15 N         -27.9331   45.4745  -11.2162 N.pl3   1  UNL1       -0.3425
     16 N         -29.3266   45.6042  -13.1678 N.ar    1  UNL1       -0.1995
     17 C         -30.3292   46.1456  -13.9035 C.ar    1  UNL1        0.2145
     18 N         -30.6444   45.6075  -15.1854 N.pl3   1  UNL1       -0.3274
     19 N         -31.0277   47.2032  -13.4208 N.ar    1  UNL1       -0.2183
     20 C         -30.7586   47.7388  -12.2006 C.ar    1  UNL1        0.0645
     21 H         -27.6624   45.7788  -10.2554 H       1  UNL1        0.1437
     22 H         -27.4121   44.6748  -11.6395 H       1  UNL1        0.1437
     23 H         -30.1090   44.7948  -15.5638 H       1  UNL1        0.1452
     24 H         -31.4135   46.0211  -15.7578 H       1  UNL1        0.1452
     25 C         -31.5448   48.9508  -11.7693 C.3     1  UNL1        0.0460
     26 C         -31.0452   50.2046  -12.4800 C.3     1  UNL1        0.0067
     27 C         -26.6983   50.1637   -4.7756 C.ar    1  UNL1        0.0228
     28 C         -26.8523   48.9656   -4.0431 C.ar    1  UNL1       -0.0004
     29 C         -26.2629   48.8193   -2.7842 C.ar    1  UNL1        0.0007
     30 C         -25.5319   49.8674   -2.2243 C.ar    1  UNL1        0.0114
     31 C         -25.3982   51.0722   -2.9170 C.ar    1  UNL1        0.0575
     32 CL        -24.5024   52.3999   -2.2013 Cl      1  UNL1       -0.0823
     33 C         -25.9861   51.2247   -4.1768 C.ar    1  UNL1        0.0109
     34 C         -30.0498   46.3462   -5.8551 C.3     1  UNL1        0.0051
     35 C         -30.5998   47.6091   -6.5099 C.3     1  UNL1        0.0295
     36 C         -25.7539   50.2191   -9.6716 C.3     1  UNL1        0.1196
     37 C         -25.5936   51.7305   -9.8594 C.3     1  UNL1        0.1113
     38 N         -24.2834   52.1693   -9.3846 N.am    1  UNL1       -0.3026
     39 C         -23.0817   51.9673  -10.1408 C.2     1  UNL1        0.2230
     40 C         -21.7729   52.4439   -9.6012 C.3     1  UNL1        0.0946
     41 O         -23.1146   51.3545  -11.2421 O.2     1  UNL1       -0.2751
     42 H         -24.2160   52.5969   -8.4333 H       1  UNL1        0.1495
@<TRIPOS>BOND
     1    34    35    1
     2    35     1    1
     3     1     2   ar
     4     2     3   ar
     5     3    13    1
     6    13    14   ar
     7    14    15    1
     8    14    16   ar
     9    16    17   ar
    10    17    18    1
    11    17    19   ar
    12    19    20   ar
    13    20    25    1
    14    25    26    1
    15     3     4   ar
    16     4     5   ar
    17     5     6   ar
    18     6     7    1
    19     7     8    1
    20     8     9    1
    21     8    27    1
    22    27    28   ar
    23    28    29   ar
    24    29    30   ar
    25    30    31   ar
    26    31    32    1
    27    31    33   ar
    28     8    10    1
    29    10    11    2
    30    10    12   am
    31    12    36    1
    32    36    37    1
    33    37    38    1
    34    38    39   am
    35    39    40    1
    36    39    41    2
    37     6     1   ar
    38    33    27   ar
    39    20    13   ar
    40    12     5    1
    41    15    21    1
    42    15    22    1
    43    18    23    1
    44    18    24    1
    45    38    42    1
@<TRIPOS>MOLECULE
*****
 42 45 0 0 0
SMALL
GASTEIGER

@<TRIPOS>ATOM
      1 C         -27.5721   49.5854   -6.2832 C.ar    1  UNL1        0.0131
      2 C         -27.0020   48.7662   -5.3003 C.ar    1  UNL1       -0.0011
      3 C         -27.5380   47.5031   -5.0343 C.ar    1  UNL1        0.0049
      4 C         -28.6330   47.0405   -5.7728 C.ar    1  UNL1        0.0181
      5 C         -29.2140   47.8386   -6.7798 C.ar    1  UNL1        0.0878
      6 C         -28.6744   49.1173   -7.0235 C.ar    1  UNL1        0.1488
      7 O         -29.2169   49.9254   -8.0279 O.3     1  UNL1       -0.4689
      8 C         -30.4879   49.6981   -8.6438 C.3     1  UNL1        0.2197
      9 C         -31.5426   50.4231   -7.7869 C.3     1  UNL1        0.0579
     10 C         -30.8052   48.2186   -8.6563 C.2     1  UNL1        0.2698
     11 O         -31.5710   47.7518   -9.5458 O.2     1  UNL1       -0.2704
     12 N         -30.3080   47.3635   -7.6056 N.am    1  UNL1       -0.2512
     13 C         -26.9265   46.6386   -4.0030 C.ar    1  UNL1        0.0449
     14 C         -25.8200   45.8193   -4.3133 C.ar    1  UNL1        0.1293
     15 N         -25.2277   45.8177   -5.6171 N.pl3   1  UNL1       -0.3425
     16 N         -25.2910   45.0157   -3.3544 N.ar    1  UNL1       -0.1995
     17 C         -25.8036   44.9775   -2.0993 C.ar    1  UNL1        0.2145
     18 N         -25.2267   44.1186   -1.1186 N.pl3   1  UNL1       -0.3274
     19 N         -26.8694   45.7531   -1.7797 N.ar    1  UNL1       -0.2183
     20 C         -27.4417   46.5879   -2.6873 C.ar    1  UNL1        0.0645
     21 H         -25.5614   46.4437   -6.3825 H       1  UNL1        0.1437
     22 H         -24.4201   45.1877   -5.8195 H       1  UNL1        0.1437
     23 H         -24.4075   43.5173   -1.3588 H       1  UNL1        0.1452
     24 H         -25.6180   44.0828   -0.1513 H       1  UNL1        0.1452
     25 C         -28.6597   47.3687   -2.2630 C.3     1  UNL1        0.0460
     26 C         -29.8307   46.4351   -1.9734 C.3     1  UNL1        0.0067
     27 C         -30.4266   50.2322  -10.0775 C.ar    1  UNL1        0.0228
     28 C         -31.5758   50.3238  -10.8940 C.ar    1  UNL1       -0.0004
     29 C         -31.4776   50.7704  -12.2148 C.ar    1  UNL1        0.0007
     30 C         -30.2354   51.1100  -12.7515 C.ar    1  UNL1        0.0114
     31 C         -29.0833   50.9921  -11.9717 C.ar    1  UNL1        0.0575
     32 CL        -27.5180   51.3929  -12.6547 Cl      1  UNL1       -0.0823
     33 C         -29.1752   50.5455  -10.6495 C.ar    1  UNL1        0.0109
     34 C         -27.6990   52.0347   -5.8177 C.3     1  UNL1        0.0051
     35 C         -26.9631   50.9341   -6.5750 C.3     1  UNL1        0.0295
     36 C         -30.8590   46.0034   -7.4705 C.3     1  UNL1        0.1196
     37 C         -30.0924   45.0241   -8.3642 C.3     1  UNL1        0.1113
     38 N         -30.2342   45.3956   -9.7701 N.am    1  UNL1       -0.3026
     39 C         -29.1063   45.6583  -10.6160 C.2     1  UNL1        0.2230
     40 C         -29.3186   46.0296  -12.0472 C.3     1  UNL1        0.0946
     41 O         -27.9351   45.6167  -10.1512 O.2     1  UNL1       -0.2751
     42 H         -31.1966   45.5274  -10.1558 H       1  UNL1        0.1495
@<TRIPOS>BOND
     1    34    35    1
     2    35     1    1
     3     1     2   ar
     4     2     3   ar
     5     3    13    1
     6    13    14   ar
     7    14    15    1
     8    14    16   ar
     9    16    17   ar
    10    17    18    1
    11    17    19   ar
    12    19    20   ar
    13    20    25    1
    14    25    26    1
    15     3     4   ar
    16     4     5   ar
    17     5     6   ar
    18     6     7    1
    19     7     8    1
    20     8     9    1
    21     8    27    1
    22    27    28   ar
    23    28    29   ar
    24    29    30   ar
    25    30    31   ar
    26    31    32    1
    27    31    33   ar
    28     8    10    1
    29    10    11    2
    30    10    12   am
    31    12    36    1
    32    36    37    1
    33    37    38    1
    34    38    39   am
    35    39    40    1
    36    39    41    2
    37     6     1   ar
    38    33    27   ar
    39    20    13   ar
    40    12     5    1
    41    15    21    1
    42    15    22    1
    43    18    23    1
    44    18    24    1
    45    38    42    1
@<TRIPOS>MOLECULE
*****
 42 45 0 0 0
SMALL
GASTEIGER

@<TRIPOS>ATOM
      1 C         -26.6242   50.5032   -4.7685 C.ar    1  UNL1        0.0131
      2 C         -27.1993   49.7049   -3.7715 C.ar    1  UNL1       -0.0011
      3 C         -27.8397   48.5082   -4.1054 C.ar    1  UNL1        0.0049
      4 C         -27.8828   48.0891   -5.4399 C.ar    1  UNL1        0.0181
      5 C         -27.2960   48.8659   -6.4601 C.ar    1  UNL1        0.0878
      6 C         -26.6705   50.0792   -6.1102 C.ar    1  UNL1        0.1488
      7 O         -26.0634   50.8629   -7.0969 O.3     1  UNL1       -0.4689
      8 C         -26.2827   50.6997   -8.5011 C.3     1  UNL1        0.2197
      9 C         -27.5055   51.5598   -8.8714 C.3     1  UNL1        0.0579
     10 C         -26.5927   49.2527   -8.8167 C.2     1  UNL1        0.2698
     11 O         -26.3287   48.7934   -9.9634 O.2     1  UNL1       -0.2704
     12 N         -27.2677   48.4287   -7.8431 N.am    1  UNL1       -0.2512
     13 C         -28.4361   47.6646   -3.0483 C.ar    1  UNL1        0.0449
     14 C         -27.6344   46.7829   -2.2922 C.ar    1  UNL1        0.1293
     15 N         -26.2189   46.6955   -2.4914 N.pl3   1  UNL1       -0.3425
     16 N         -28.2100   46.0004   -1.3428 N.ar    1  UNL1       -0.1995
     17 C         -29.5443   46.0423   -1.1030 C.ar    1  UNL1        0.2145
     18 N         -30.1162   45.2035   -0.1022 N.pl3   1  UNL1       -0.3274
     19 N         -30.3349   46.8789   -1.8204 N.ar    1  UNL1       -0.2183
     20 C         -29.8236   47.6968   -2.7784 C.ar    1  UNL1        0.0645
     21 H         -25.7130   47.3006   -3.1748 H       1  UNL1        0.1437
     22 H         -25.6561   46.0211   -1.9270 H       1  UNL1        0.1437
     23 H         -29.5135   44.5555    0.4521 H       1  UNL1        0.1452
     24 H         -31.1429   45.2292    0.0857 H       1  UNL1        0.1452
     25 C         -30.7835   48.5503   -3.5681 C.3     1  UNL1        0.0460
     26 C         -31.2429   49.7524   -2.7493 C.3     1  UNL1        0.0067
     27 C         -25.0125   51.1352   -9.2368 C.ar    1  UNL1        0.0228
     28 C         -24.9390   51.1770  -10.6470 C.ar    1  UNL1       -0.0004
     29 C         -23.7490   51.5326  -11.2882 C.ar    1  UNL1        0.0007
     30 C         -22.6091   51.8291  -10.5406 C.ar    1  UNL1        0.0114
     31 C         -22.6517   51.7586   -9.1468 C.ar    1  UNL1        0.0575
     32 CL        -21.2111   52.1045   -8.2074 Cl      1  UNL1       -0.0823
     33 C         -23.8394   51.4030   -8.4995 C.ar    1  UNL1        0.0109
     34 C         -25.2210   51.6256   -3.0356 C.3     1  UNL1        0.0051
     35 C         -25.9137   51.7775   -4.3859 C.3     1  UNL1        0.0295
     36 C         -27.8178   47.1286   -8.2658 C.3     1  UNL1        0.1196
     37 C         -29.2093   47.3101   -8.8792 C.3     1  UNL1        0.1113
     38 N         -29.7676   48.6079   -8.5067 N.am    1  UNL1       -0.3026
     39 C         -30.8223   48.7463   -7.5448 C.2     1  UNL1        0.2230
     40 C         -31.3467   50.1029   -7.2041 C.3     1  UNL1        0.0946
     41 O         -31.3392   47.7275   -7.0117 O.2     1  UNL1       -0.2751
     42 H         -29.4205   49.4602   -9.0021 H       1  UNL1        0.1495
@<TRIPOS>BOND
     1    34    35    1
     2    35     1    1
     3     1     2   ar
     4     2     3   ar
     5     3    13    1
     6    13    14   ar
     7    14    15    1
     8    14    16   ar
     9    16    17   ar
    10    17    18    1
    11    17    19   ar
    12    19    20   ar
    13    20    25    1
    14    25    26    1
    15     3     4   ar
    16     4     5   ar
    17     5     6   ar
    18     6     7    1
    19     7     8    1
    20     8     9    1
    21     8    27    1
    22    27    28   ar
    23    28    29   ar
    24    29    30   ar
    25    30    31   ar
    26    31    32    1
    27    31    33   ar
    28     8    10    1
    29    10    11    2
    30    10    12   am
    31    12    36    1
    32    36    37    1
    33    37    38    1
    34    38    39   am
    35    39    40    1
    36    39    41    2
    37     6     1   ar
    38    33    27   ar
    39    20    13   ar
    40    12     5    1
    41    15    21    1
    42    15    22    1
    43    18    23    1
    44    18    24    1
    45    38    42    1
@<TRIPOS>MOLECULE
*****
 42 45 0 0 0
SMALL
GASTEIGER

@<TRIPOS>ATOM
      1 C         -26.7890   48.9148   -3.2773 C.ar    1  UNL1        0.0131
      2 C         -26.4159   49.6130   -4.4329 C.ar    1  UNL1       -0.0011
      3 C         -27.1989   49.5381   -5.5883 C.ar    1  UNL1        0.0049
      4 C         -28.3781   48.7846   -5.5839 C.ar    1  UNL1        0.0181
      5 C         -28.7849   48.0868   -4.4280 C.ar    1  UNL1        0.0878
      6 C         -27.9753   48.1567   -3.2768 C.ar    1  UNL1        0.1488
      7 O         -28.3612   47.4906   -2.1090 O.3     1  UNL1       -0.4689
      8 C         -29.3667   46.4744   -2.0580 C.3     1  UNL1        0.2197
      9 C         -28.6675   45.1310   -2.3386 C.3     1  UNL1        0.0579
     10 C         -30.4069   46.7144   -3.1304 C.2     1  UNL1        0.2698
     11 O         -31.5836   46.2857   -2.9660 O.2     1  UNL1       -0.2704
     12 N         -30.0331   47.3496   -4.3711 N.am    1  UNL1       -0.2512
     13 C         -26.8059   50.2849   -6.8018 C.ar    1  UNL1        0.0449
     14 C         -27.1858   51.6333   -6.9726 C.ar    1  UNL1        0.1293
     15 N         -27.9298   52.3374   -5.9718 N.pl3   1  UNL1       -0.3425
     16 N         -26.8330   52.2907   -8.1077 N.ar    1  UNL1       -0.1995
     17 C         -26.1232   51.6802   -9.0891 C.ar    1  UNL1        0.2145
     18 N         -25.7741   52.3987  -10.2697 N.pl3   1  UNL1       -0.3274
     19 N         -25.7510   50.3836   -8.9484 N.ar    1  UNL1       -0.2183
     20 C         -26.0615   49.6692   -7.8343 C.ar    1  UNL1        0.0645
     21 H         -28.1929   51.9005   -5.0613 H       1  UNL1        0.1437
     22 H         -28.2098   53.3299   -6.1355 H       1  UNL1        0.1437
     23 H         -26.0595   53.3965  -10.3852 H       1  UNL1        0.1452
     24 H         -25.2298   51.9339  -11.0299 H       1  UNL1        0.1452
     25 C         -25.6597   48.2167   -7.7886 C.3     1  UNL1        0.0460
     26 C         -26.6412   47.3556   -8.5770 C.3     1  UNL1        0.0067
     27 C         -30.0215   46.5191   -0.6747 C.ar    1  UNL1        0.0228
     28 C         -30.7256   45.4163   -0.1417 C.ar    1  UNL1       -0.0004
     29 C         -31.3533   45.5064    1.1040 C.ar    1  UNL1        0.0007
     30 C         -31.3112   46.6983    1.8278 C.ar    1  UNL1        0.0114
     31 C         -30.6508   47.8103    1.3019 C.ar    1  UNL1        0.0575
     32 CL        -30.6211   49.3174    2.1992 Cl      1  UNL1       -0.0823
     33 C         -30.0212   47.7264    0.0558 C.ar    1  UNL1        0.0109
     34 C         -25.0194   50.2383   -2.1160 C.3     1  UNL1        0.0051
     35 C         -25.9460   49.0297   -2.0319 C.3     1  UNL1        0.0295
     36 C         -30.9739   47.3120   -5.5048 C.3     1  UNL1        0.1196
     37 C         -31.4925   48.7189   -5.8168 C.3     1  UNL1        0.1113
     38 N         -31.3318   49.0204   -7.2373 N.am    1  UNL1       -0.3026
     39 C         -30.7560   50.2478   -7.7049 C.2     1  UNL1        0.2230
     40 C         -30.6154   50.4937   -9.1715 C.3     1  UNL1        0.0946
     41 O         -30.4024   51.1403   -6.8877 O.2     1  UNL1       -0.2751
     42 H         -31.7015   48.3371   -7.9364 H       1  UNL1        0.1495
@<TRIPOS>BOND
     1    34    35    1
     2    35     1    1
     3     1     2   ar
     4     2     3   ar
     5     3    13    1
     6    13    14   ar
     7    14    15    1
     8    14    16   ar
     9    16    17   ar
    10    17    18    1
    11    17    19   ar
    12    19    20   ar
    13    20    25    1
    14    25    26    1
    15     3     4   ar
    16     4     5   ar
    17     5     6   ar
    18     6     7    1
    19     7     8    1
    20     8     9    1
    21     8    27    1
    22    27    28   ar
    23    28    29   ar
    24    29    30   ar
    25    30    31   ar
    26    31    32    1
    27    31    33   ar
    28     8    10    1
    29    10    11    2
    30    10    12   am
    31    12    36    1
    32    36    37    1
    33    37    38    1
    34    38    39   am
    35    39    40    1
    36    39    41    2
    37     6     1   ar
    38    33    27   ar
    39    20    13   ar
    40    12     5    1
    41    15    21    1
    42    15    22    1
    43    18    23    1
    44    18    24    1
    45    38    42    1
@<TRIPOS>MOLECULE
*****
 42 45 0 0 0
SMALL
GASTEIGER

@<TRIPOS>ATOM
      1 C         -29.9380   47.8695   -7.8503 C.ar    1  UNL1        0.0131
      2 C         -30.2399   47.3702   -9.1238 C.ar    1  UNL1       -0.0011
      3 C         -29.4635   47.7329  -10.2280 C.ar    1  UNL1        0.0049
      4 C         -28.3603   48.5770  -10.0578 C.ar    1  UNL1        0.0181
      5 C         -28.0248   49.0788   -8.7834 C.ar    1  UNL1        0.0878
      6 C         -28.8282   48.7194   -7.6829 C.ar    1  UNL1        0.1488
      7 O         -28.5106   49.1862   -6.4033 O.3     1  UNL1       -0.4689
      8 C         -27.6052   50.2625   -6.1418 C.3     1  UNL1        0.2197
      9 C         -28.4267   51.5648   -6.1807 C.3     1  UNL1        0.0579
     10 C         -26.5435   50.3252   -7.2181 C.2     1  UNL1        0.2698
     11 O         -25.4128   50.8213   -6.9515 O.2     1  UNL1       -0.2704
     12 N         -26.8516   49.9034   -8.5633 N.am    1  UNL1       -0.2512
     13 C         -29.7803   47.1952  -11.5679 C.ar    1  UNL1        0.0449
     14 C         -29.0745   46.0880  -12.0853 C.ar    1  UNL1        0.1293
     15 N         -28.0567   45.4242  -11.3274 N.pl3   1  UNL1       -0.3425
     16 N         -29.3678   45.6276  -13.3291 N.ar    1  UNL1       -0.1995
     17 C         -30.3254   46.2098  -14.0930 C.ar    1  UNL1        0.2145
     18 N         -30.6042   45.7038  -15.3962 N.pl3   1  UNL1       -0.3274
     19 N         -31.0136   47.2777  -13.6179 N.ar    1  UNL1       -0.2183
     20 C         -30.7785   47.7836  -12.3782 C.ar    1  UNL1        0.0645
     21 H         -27.8161   45.7036  -10.3511 H       1  UNL1        0.1437
     22 H         -27.5413   44.6180  -11.7451 H       1  UNL1        0.1437
     23 H         -30.0765   44.8834  -15.7688 H       1  UNL1        0.1452
     24 H         -31.3385   46.1488  -15.9902 H       1  UNL1        0.1452
     25 C         -31.5479   49.0092  -11.9550 C.3     1  UNL1        0.0460
     26 C         -31.5837   50.0431  -13.0759 C.3     1  UNL1        0.0067
     27 C         -26.9539   50.0183   -4.7778 C.ar    1  UNL1        0.0228
     28 C         -26.2081   51.0170   -4.1128 C.ar    1  UNL1       -0.0004
     29 C         -25.5855   50.7463   -2.8910 C.ar    1  UNL1        0.0007
     30 C         -25.6743   49.4750   -2.3232 C.ar    1  UNL1        0.0114
     31 C         -26.3768   48.4645   -2.9826 C.ar    1  UNL1        0.0575
     32 CL        -26.4656   46.8585   -2.2825 Cl      1  UNL1       -0.0823
     33 C         -27.0016   48.7293   -4.2056 C.ar    1  UNL1        0.0109
     34 C         -30.1923   46.1905   -6.0206 C.3     1  UNL1        0.0051
     35 C         -30.7707   47.4453   -6.6664 C.3     1  UNL1        0.0295
     36 C         -25.9148   50.2399   -9.6499 C.3     1  UNL1        0.1196
     37 C         -26.0835   51.7035  -10.0679 C.3     1  UNL1        0.1113
     38 N         -27.4952   52.0796  -10.0567 N.am    1  UNL1       -0.3026
     39 C         -28.3360   51.9541  -11.2118 C.2     1  UNL1        0.2230
     40 C         -29.7736   52.3522  -11.1338 C.3     1  UNL1        0.0946
     41 O         -27.8619   51.5463  -12.3065 O.2     1  UNL1       -0.2751
     42 H         -27.8900   52.5070   -9.1885 H       1  UNL1        0.1495
@<TRIPOS>BOND
     1    34    35    1
     2    35     1    1
     3     1     2   ar
     4     2     3   ar
     5     3    13    1
     6    13    14   ar
     7    14    15    1
     8    14    16   ar
     9    16    17   ar
    10    17    18    1
    11    17    19   ar
    12    19    20   ar
    13    20    25    1
    14    25    26    1
    15     3     4   ar
    16     4     5   ar
    17     5     6   ar
    18     6     7    1
    19     7     8    1
    20     8     9    1
    21     8    27    1
    22    27    28   ar
    23    28    29   ar
    24    29    30   ar
    25    30    31   ar
    26    31    32    1
    27    31    33   ar
    28     8    10    1
    29    10    11    2
    30    10    12   am
    31    12    36    1
    32    36    37    1
    33    37    38    1
    34    38    39   am
    35    39    40    1
    36    39    41    2
    37     6     1   ar
    38    33    27   ar
    39    20    13   ar
    40    12     5    1
    41    15    21    1
    42    15    22    1
    43    18    23    1
    44    18    24    1
    45    38    42    1
@<TRIPOS>MOLECULE
*****
 42 45 0 0 0
SMALL
GASTEIGER

@<TRIPOS>ATOM
      1 C         -27.7648   49.4306   -6.5184 C.ar    1  UNL1        0.0131
      2 C         -27.1991   48.6624   -5.4927 C.ar    1  UNL1       -0.0011
      3 C         -27.5420   47.3153   -5.3467 C.ar    1  UNL1        0.0049
      4 C         -28.4337   46.7211   -6.2467 C.ar    1  UNL1        0.0181
      5 C         -29.0033   47.4682   -7.2984 C.ar    1  UNL1        0.0878
      6 C         -28.6624   48.8299   -7.4214 C.ar    1  UNL1        0.1488
      7 O         -29.1965   49.5929   -8.4649 O.3     1  UNL1       -0.4689
      8 C         -30.3166   49.1946   -9.2606 C.3     1  UNL1        0.2197
      9 C         -31.5840   49.6866   -8.5370 C.3     1  UNL1        0.0579
     10 C         -30.3720   47.6862   -9.3665 C.2     1  UNL1        0.2698
     11 O         -30.9215   47.1505  -10.3698 O.2     1  UNL1       -0.2704
     12 N         -29.8803   46.8667   -8.2852 N.am    1  UNL1       -0.2512
     13 C         -26.9345   46.5066   -4.2688 C.ar    1  UNL1        0.0449
     14 C         -25.7302   45.8039   -4.4867 C.ar    1  UNL1        0.1293
     15 N         -25.0352   45.8727   -5.7370 N.pl3   1  UNL1       -0.3425
     16 N         -25.2046   45.0482   -3.4878 N.ar    1  UNL1       -0.1995
     17 C         -25.8127   44.9482   -2.2795 C.ar    1  UNL1        0.2145
     18 N         -25.2359   44.1421   -1.2550 N.pl3   1  UNL1       -0.3274
     19 N         -26.9731   45.6114   -2.0490 N.ar    1  UNL1       -0.2183
     20 C         -27.5489   46.3934   -3.0003 C.ar    1  UNL1        0.0645
     21 H         -25.3654   46.4692   -6.5270 H       1  UNL1        0.1437
     22 H         -24.1549   45.3277   -5.8721 H       1  UNL1        0.1437
     23 H         -24.3439   43.6271   -1.4268 H       1  UNL1        0.1452
     24 H         -25.7001   44.0590   -0.3235 H       1  UNL1        0.1452
     25 C         -28.8694   47.0457   -2.6780 C.3     1  UNL1        0.0460
     26 C         -28.6648   48.3033   -1.8395 C.3     1  UNL1        0.0067
     27 C         -30.1571   49.8113  -10.6529 C.ar    1  UNL1        0.0228
     28 C         -29.9592   51.1973  -10.8415 C.ar    1  UNL1       -0.0004
     29 C         -29.8658   51.7351  -12.1283 C.ar    1  UNL1        0.0007
     30 C         -29.9907   50.9095  -13.2459 C.ar    1  UNL1        0.0114
     31 C         -30.2223   49.5427  -13.0806 C.ar    1  UNL1        0.0575
     32 CL        -30.4068   48.5087  -14.4857 Cl      1  UNL1       -0.0823
     33 C         -30.3171   48.9988  -11.7955 C.ar    1  UNL1        0.0109
     34 C         -27.1751   51.5369   -5.3153 C.3     1  UNL1        0.0051
     35 C         -27.3618   50.8754   -6.6769 C.3     1  UNL1        0.0295
     36 C         -30.2039   45.4291   -8.2740 C.3     1  UNL1        0.1196
     37 C         -31.5840   45.1960   -7.6522 C.3     1  UNL1        0.1113
     38 N         -31.4683   44.3994   -6.4330 N.am    1  UNL1       -0.3026
     39 C         -31.4118   44.9909   -5.1277 C.2     1  UNL1        0.2230
     40 C         -31.2979   44.1201   -3.9193 C.3     1  UNL1        0.0946
     41 O         -31.4181   46.2444   -4.9929 O.2     1  UNL1       -0.2751
     42 H         -31.3679   43.3630   -6.5228 H       1  UNL1        0.1495
@<TRIPOS>BOND
     1    34    35    1
     2    35     1    1
     3     1     2   ar
     4     2     3   ar
     5     3    13    1
     6    13    14   ar
     7    14    15    1
     8    14    16   ar
     9    16    17   ar
    10    17    18    1
    11    17    19   ar
    12    19    20   ar
    13    20    25    1
    14    25    26    1
    15     3     4   ar
    16     4     5   ar
    17     5     6   ar
    18     6     7    1
    19     7     8    1
    20     8     9    1
    21     8    27    1
    22    27    28   ar
    23    28    29   ar
    24    29    30   ar
    25    30    31   ar
    26    31    32    1
    27    31    33   ar
    28     8    10    1
    29    10    11    2
    30    10    12   am
    31    12    36    1
    32    36    37    1
    33    37    38    1
    34    38    39   am
    35    39    40    1
    36    39    41    2
    37     6     1   ar
    38    33    27   ar
    39    20    13   ar
    40    12     5    1
    41    15    21    1
    42    15    22    1
    43    18    23    1
    44    18    24    1
    45    38    42    1
@<TRIPOS>MOLECULE
*****
 42 45 0 0 0
SMALL
GASTEIGER

@<TRIPOS>ATOM
      1 C         -29.2673   50.8132  -10.6458 C.ar    1  UNL1        0.0131
      2 C         -28.6885   51.1716   -9.4216 C.ar    1  UNL1       -0.0011
      3 C         -28.1433   50.1945   -8.5840 C.ar    1  UNL1        0.0049
      4 C         -28.1490   48.8528   -8.9818 C.ar    1  UNL1        0.0181
      5 C         -28.7097   48.4683  -10.2173 C.ar    1  UNL1        0.0878
      6 C         -29.2724   49.4624  -11.0423 C.ar    1  UNL1        0.1488
      7 O         -29.8198   49.1151  -12.2817 O.3     1  UNL1       -0.4689
      8 C         -30.1438   47.7772  -12.6711 C.3     1  UNL1        0.2197
      9 C         -31.5840   47.5042  -12.1984 C.3     1  UNL1        0.0579
     10 C         -29.2146   46.7957  -11.9908 C.2     1  UNL1        0.2698
     11 O         -28.9782   45.6803  -12.5345 O.2     1  UNL1       -0.2704
     12 N         -28.6743   47.0960  -10.6869 N.am    1  UNL1       -0.2512
     13 C         -27.5248   50.5792   -7.2979 C.ar    1  UNL1        0.0449
     14 C         -28.3246   50.9581   -6.1985 C.ar    1  UNL1        0.1293
     15 N         -29.7548   50.9517   -6.2716 N.pl3   1  UNL1       -0.3425
     16 N         -27.7316   51.3306   -5.0347 N.ar    1  UNL1       -0.1995
     17 C         -26.3819   51.3511   -4.9015 C.ar    1  UNL1        0.2145
     18 N         -25.7927   51.7523   -3.6670 N.pl3   1  UNL1       -0.3274
     19 N         -25.5934   50.9951   -5.9461 N.ar    1  UNL1       -0.2183
     20 C         -26.1203   50.6020   -7.1360 C.ar    1  UNL1        0.0645
     21 H         -30.2688   50.6349   -7.1228 H       1  UNL1        0.1437
     22 H         -30.3180   51.2534   -5.4458 H       1  UNL1        0.1437
     23 H         -26.3940   52.0297   -2.8597 H       1  UNL1        0.1452
     24 H         -24.7544   51.7725   -3.5587 H       1  UNL1        0.1452
     25 C         -25.1693   50.2815   -8.2612 C.3     1  UNL1        0.0460
     26 C         -24.7917   51.5433   -9.0306 C.3     1  UNL1        0.0067
     27 C         -29.9937   47.6724  -14.1912 C.ar    1  UNL1        0.0228
     28 C         -29.6656   48.7892  -14.9917 C.ar    1  UNL1       -0.0004
     29 C         -29.5838   48.6699  -16.3820 C.ar    1  UNL1        0.0007
     30 C         -29.8489   47.4473  -16.9994 C.ar    1  UNL1        0.0114
     31 C         -30.2097   46.3407  -16.2284 C.ar    1  UNL1        0.0575
     32 CL        -30.5700   44.8103  -17.0065 Cl      1  UNL1       -0.0823
     33 C         -30.2936   46.4539  -14.8369 C.ar    1  UNL1        0.0109
     34 C         -31.3271   51.6984  -11.7436 C.3     1  UNL1        0.0051
     35 C         -29.8260   51.8846  -11.5485 C.3     1  UNL1        0.0295
     36 C         -28.0184   46.0218   -9.9205 C.3     1  UNL1        0.1196
     37 C         -29.0600   45.1881   -9.1685 C.3     1  UNL1        0.1113
     38 N         -29.7580   46.0095   -8.1822 N.am    1  UNL1       -0.3026
     39 C         -29.3120   46.1302   -6.8246 C.2     1  UNL1        0.2230
     40 C         -30.0682   46.9903   -5.8655 C.3     1  UNL1        0.0946
     41 O         -28.3070   45.4842   -6.4219 O.2     1  UNL1       -0.2751
     42 H         -30.6462   46.4816   -8.4662 H       1  UNL1        0.1495
@<TRIPOS>BOND
     1    34    35    1
     2    35     1    1
     3     1     2   ar
     4     2     3   ar
     5     3    13    1
     6    13    14   ar
     7    14    15    1
     8    14    16   ar
     9    16    17   ar
    10    17    18    1
    11    17    19   ar
    12    19    20   ar
    13    20    25    1
    14    25    26    1
    15     3     4   ar
    16     4     5   ar
    17     5     6   ar
    18     6     7    1
    19     7     8    1
    20     8     9    1
    21     8    27    1
    22    27    28   ar
    23    28    29   ar
    24    29    30   ar
    25    30    31   ar
    26    31    32    1
    27    31    33   ar
    28     8    10    1
    29    10    11    2
    30    10    12   am
    31    12    36    1
    32    36    37    1
    33    37    38    1
    34    38    39   am
    35    39    40    1
    36    39    41    2
    37     6     1   ar
    38    33    27   ar
    39    20    13   ar
    40    12     5    1
    41    15    21    1
    42    15    22    1
    43    18    23    1
    44    18    24    1
    45    38    42    1
@<TRIPOS>MOLECULE
*****
 42 45 0 0 0
SMALL
GASTEIGER

@<TRIPOS>ATOM
      1 C         -28.2285   47.7813   -8.5516 C.ar    1  UNL1        0.0131
      2 C         -28.4670   48.7795   -9.5050 C.ar    1  UNL1       -0.0011
      3 C         -29.3530   49.8246   -9.2282 C.ar    1  UNL1        0.0049
      4 C         -29.9848   49.8915   -7.9813 C.ar    1  UNL1        0.0181
      5 C         -29.7479   48.9088   -6.9981 C.ar    1  UNL1        0.0878
      6 C         -28.8667   47.8511   -7.2987 C.ar    1  UNL1        0.1488
      7 O         -28.5971   46.8710   -6.3379 O.3     1  UNL1       -0.4689
      8 C         -29.3792   46.6653   -5.1579 C.3     1  UNL1        0.2197
      9 C         -30.5100   45.6876   -5.5287 C.3     1  UNL1        0.0579
     10 C         -29.9949   47.9713   -4.7051 C.2     1  UNL1        0.2698
     11 O         -30.2795   48.1377   -3.4857 O.2     1  UNL1       -0.2704
     12 N         -30.3370   48.9841   -5.6744 N.am    1  UNL1       -0.2512
     13 C         -29.5935   50.8808  -10.2339 C.ar    1  UNL1        0.0449
     14 C         -28.8005   52.0480  -10.2566 C.ar    1  UNL1        0.1293
     15 N         -27.7184   52.2398   -9.3383 N.pl3   1  UNL1       -0.3425
     16 N         -29.0568   53.0151  -11.1754 N.ar    1  UNL1       -0.1995
     17 C         -30.0636   52.8889  -12.0754 C.ar    1  UNL1        0.2145
     18 N         -30.3080   53.9256  -13.0228 N.pl3   1  UNL1       -0.3274
     19 N         -30.8413   51.7776  -12.0694 N.ar    1  UNL1       -0.2183
     20 C         -30.6339   50.7667  -11.1845 C.ar    1  UNL1        0.0645
     21 H         -27.4453   51.5156   -8.6384 H       1  UNL1        0.1437
     22 H         -27.1609   53.1221   -9.3702 H       1  UNL1        0.1437
     23 H         -29.7145   54.7847  -13.0313 H       1  UNL1        0.1452
     24 H         -31.0829   53.8357  -13.7168 H       1  UNL1        0.1452
     25 C         -31.5837   49.5960  -11.2102 C.3     1  UNL1        0.0460
     26 C         -31.0961   48.5207  -12.1758 C.3     1  UNL1        0.0067
     27 C         -28.4594   46.1138   -4.0652 C.ar    1  UNL1        0.0228
     28 C         -28.9465   45.3145   -3.0071 C.ar    1  UNL1       -0.0004
     29 C         -28.0882   44.8671   -1.9986 C.ar    1  UNL1        0.0007
     30 C         -26.7400   45.2254   -2.0129 C.ar    1  UNL1        0.0114
     31 C         -26.2470   46.0443   -3.0306 C.ar    1  UNL1        0.0575
     32 CL        -24.5578   46.5176   -3.0337 Cl      1  UNL1       -0.0823
     33 C         -27.1010   46.4953   -4.0422 C.ar    1  UNL1        0.0109
     34 C         -27.8063   45.7394   -9.9241 C.3     1  UNL1        0.0051
     35 C         -27.2484   46.6766   -8.8581 C.3     1  UNL1        0.0295
     36 C         -31.1916   50.1107   -5.2595 C.3     1  UNL1        0.1196
     37 C         -30.3535   51.3797   -5.0783 C.3     1  UNL1        0.1113
     38 N         -28.9691   51.0378   -4.7604 N.am    1  UNL1       -0.3026
     39 C         -27.8577   51.5422   -5.5133 C.2     1  UNL1        0.2230
     40 C         -26.4649   51.1581   -5.1340 C.3     1  UNL1        0.0946
     41 O         -28.0481   52.2777   -6.5194 O.2     1  UNL1       -0.2751
     42 H         -28.7890   50.3563   -3.9886 H       1  UNL1        0.1495
@<TRIPOS>BOND
     1    34    35    1
     2    35     1    1
     3     1     2   ar
     4     2     3   ar
     5     3    13    1
     6    13    14   ar
     7    14    15    1
     8    14    16   ar
     9    16    17   ar
    10    17    18    1
    11    17    19   ar
    12    19    20   ar
    13    20    25    1
    14    25    26    1
    15     3     4   ar
    16     4     5   ar
    17     5     6   ar
    18     6     7    1
    19     7     8    1
    20     8     9    1
    21     8    27    1
    22    27    28   ar
    23    28    29   ar
    24    29    30   ar
    25    30    31   ar
    26    31    32    1
    27    31    33   ar
    28     8    10    1
    29    10    11    2
    30    10    12   am
    31    12    36    1
    32    36    37    1
    33    37    38    1
    34    38    39   am
    35    39    40    1
    36    39    41    2
    37     6     1   ar
    38    33    27   ar
    39    20    13   ar
    40    12     5    1
    41    15    21    1
    42    15    22    1
    43    18    23    1
    44    18    24    1
    45    38    42    1
