@<TRIPOS>MOLECULE
*****
 52 57 0 0 0
SMALL
GASTEIGER

@<TRIPOS>ATOM
      1 C          59.6674   88.1279    7.0986 C.ar    1  UNL1        0.0502
      2 C          60.2759   88.6202    8.2623 C.ar    1  UNL1        0.0148
      3 C          60.2259   87.8882    9.4510 C.ar    1  UNL1        0.0080
      4 C          59.5746   86.6445    9.4961 C.ar    1  UNL1        0.0808
      5 C          58.9530   86.1544    8.3317 C.ar    1  UNL1        0.1457
      6 F          58.2544   84.9910    8.3496 F       1  UNL1       -0.2040
      7 C          59.0047   86.8908    7.1438 C.ar    1  UNL1        0.0443
      8 N          60.0212   90.7599    3.8480 N.pl3   1  UNL1       -0.3041
      9 C          58.8791   90.9039    4.7584 C.3     1  UNL1        0.1122
     10 C          58.5193   89.5463    5.3630 C.3     1  UNL1        0.1122
     11 N          59.7259   88.8858    5.8755 N.pl3   1  UNL1       -0.3040
     12 C          60.8686   88.7427    4.9652 C.3     1  UNL1        0.1122
     13 C          61.2281   90.1003    4.3608 C.3     1  UNL1        0.1122
     14 C          60.1786   93.0017    0.2250 C.ar    1  UNL1        0.0112
     15 C          61.1254   93.2076    1.2426 C.ar    1  UNL1       -0.0006
     16 C          61.0751   92.4776    2.4278 C.ar    1  UNL1        0.0143
     17 C          60.0791   91.5152    2.6234 C.ar    1  UNL1        0.0479
     18 C          59.1314   91.2932    1.6151 C.ar    1  UNL1        0.0181
     19 C          59.1635   92.0197    0.4061 C.ar    1  UNL1        0.0710
     20 C          58.1273   91.7296   -0.6648 C.3     1  UNL1        0.4184
     21 F          57.4094   90.5775   -0.3921 F       1  UNL1       -0.1659
     22 F          58.7542   91.5594   -1.8860 F       1  UNL1       -0.1659
     23 F          57.2300   92.7785   -0.7475 F       1  UNL1       -0.1659
     24 C          60.3087   93.8478   -1.0273 C.3     1  UNL1        0.1686
     25 C          62.4430   93.8473   -1.9310 C.3     1  UNL1        0.1746
     26 O          61.1729   93.2335   -1.9647 O.3     1  UNL1       -0.3463
     27 C          59.5471   85.8837   10.7634 C.2     1  UNL1        0.2483
     28 O          59.0482   86.4197   11.7908 O.2     1  UNL1       -0.2701
     29 N          60.1266   84.5702   10.8461 N.am    1  UNL1       -0.2945
     30 H          60.6845   84.2235   10.0331 H       1  UNL1        0.1501
     31 C          60.2305   83.8310   12.1100 C.3     1  UNL1        0.1535
     32 C          60.7620   84.7317   13.1934 C.2     1  UNL1        0.2443
     33 O          60.1351   84.8356   14.2833 O.2     1  UNL1       -0.2730
     34 N          62.0279   85.3883   13.0191 N.am    1  UNL1       -0.2825
     35 H          62.6632   85.0301   12.2702 H       1  UNL1        0.1549
     36 C          62.5195   86.4305   13.8790 C.ar    1  UNL1        0.0535
     37 C          62.7733   86.1483   15.2283 C.ar    1  UNL1        0.0353
     38 C          63.2726   87.1510   16.0629 C.ar    1  UNL1        0.1002
     39 N          63.5264   88.3897   15.5642 N.ar    1  UNL1       -0.2422
     40 C          63.3093   88.6884   14.2562 C.ar    1  UNL1        0.1002
     41 C          62.8095   87.7151   13.3873 C.ar    1  UNL1        0.0353
     42 C          58.8570   83.2730   12.5182 C.3     1  UNL1        0.0569
     43 C          58.4151   82.1800   11.5888 C.ar    1  UNL1       -0.0017
     44 C          58.0458   82.3270   10.2546 C.ar    1  UNL1        0.0681
     45 N          57.8275   81.1179    9.6892 N.ar    1  UNL1       -0.3523
     46 C          58.0677   80.2095   10.6507 C.ar    1  UNL1        0.0563
     47 C          58.0088   78.8215   10.5352 C.ar    1  UNL1        0.0170
     48 C          58.3371   78.0530   11.6673 C.ar    1  UNL1        0.0015
     49 C          58.7183   78.6819   12.8735 C.ar    1  UNL1        0.0001
     50 C          58.7730   80.0850   12.9596 C.ar    1  UNL1        0.0012
     51 C          58.4333   80.8194   11.8234 C.ar    1  UNL1        0.0131
     52 H          57.5543   80.9315    8.6988 H       1  UNL1        0.1660
@<TRIPOS>BOND
     1    25    26    1
     2    26    24    1
     3    24    14    1
     4    14    15   ar
     5    15    16   ar
     6    16    17   ar
     7    17     8    1
     8     8     9    1
     9     9    10    1
    10    10    11    1
    11    11     1    1
    12     1     2   ar
    13     2     3   ar
    14     3     4   ar
    15     4    27    1
    16    27    28    2
    17    27    29   am
    18    29    31    1
    19    31    42    1
    20    42    43    1
    21    43    44   ar
    22    44    45   ar
    23    45    46   ar
    24    46    47   ar
    25    47    48   ar
    26    48    49   ar
    27    49    50   ar
    28    50    51   ar
    29    31    32    1
    30    32    33    2
    31    32    34   am
    32    34    36    1
    33    36    37   ar
    34    37    38   ar
    35    38    39   ar
    36    39    40   ar
    37    40    41   ar
    38     4     5   ar
    39     5     6    1
    40     5     7   ar
    41    11    12    1
    42    12    13    1
    43    17    18   ar
    44    18    19   ar
    45    19    20    1
    46    20    21    1
    47    20    22    1
    48    20    23    1
    49    19    14   ar
    50    13     8    1
    51     7     1   ar
    52    51    43   ar
    53    41    36   ar
    54    51    46   ar
    55    29    30    1
    56    45    52    1
    57    34    35    1
@<TRIPOS>MOLECULE
*****
 52 57 0 0 0
SMALL
GASTEIGER

@<TRIPOS>ATOM
      1 C          59.7199   88.0827    7.1160 C.ar    1  UNL1        0.0502
      2 C          60.4075   88.5605    8.2411 C.ar    1  UNL1        0.0148
      3 C          60.4204   87.8240    9.4280 C.ar    1  UNL1        0.0080
      4 C          59.7539   86.5903    9.5093 C.ar    1  UNL1        0.0808
      5 C          59.0532   86.1150    8.3844 C.ar    1  UNL1        0.1457
      6 F          58.3390   84.9624    8.4419 F       1  UNL1       -0.2040
      7 C          59.0421   86.8558    7.1982 C.ar    1  UNL1        0.0443
      8 N          59.8873   90.7311    3.8637 N.pl3   1  UNL1       -0.3041
      9 C          58.7781   90.8461    4.8179 C.3     1  UNL1        0.1122
     10 C          58.4733   89.4789    5.4309 C.3     1  UNL1        0.1122
     11 N          59.7137   88.8451    5.8943 N.pl3   1  UNL1       -0.3040
     12 C          60.8235   88.7311    4.9402 C.3     1  UNL1        0.1122
     13 C          61.1279   90.0983    4.3273 C.3     1  UNL1        0.1122
     14 C          59.8525   92.9841    0.2444 C.ar    1  UNL1        0.0112
     15 C          60.7243   93.3189    1.2943 C.ar    1  UNL1       -0.0006
     16 C          60.7363   92.5853    2.4783 C.ar    1  UNL1        0.0143
     17 C          59.8805   91.4909    2.6405 C.ar    1  UNL1        0.0479
     18 C          59.0098   91.1400    1.5999 C.ar    1  UNL1        0.0181
     19 C          58.9810   91.8677    0.3914 C.ar    1  UNL1        0.0710
     20 C          58.0345   91.4371   -0.7147 C.3     1  UNL1        0.4184
     21 F          56.9483   92.2884   -0.8273 F       1  UNL1       -0.1659
     22 F          57.5527   90.1681   -0.4482 F       1  UNL1       -0.1659
     23 F          58.6986   91.4347   -1.9275 F       1  UNL1       -0.1659
     24 C          59.9052   93.8440   -1.0041 C.3     1  UNL1        0.1686
     25 C          62.0441   93.7816   -1.8948 C.3     1  UNL1        0.1746
     26 O          60.7373   93.2573   -1.9871 O.3     1  UNL1       -0.3463
     27 C          59.7937   85.8243   10.7733 C.2     1  UNL1        0.2483
     28 O          58.7261   85.6585   11.4247 O.2     1  UNL1       -0.2701
     29 N          61.0370   85.3168   11.2875 N.am    1  UNL1       -0.2945
     30 H          61.9238   85.6162   10.8223 H       1  UNL1        0.1501
     31 C          61.1409   84.6590   12.5956 C.3     1  UNL1        0.1535
     32 C          60.6839   83.2279   12.4922 C.2     1  UNL1        0.2443
     33 O          61.4516   82.2982   12.8638 O.2     1  UNL1       -0.2730
     34 N          59.3435   82.9353   12.0661 N.am    1  UNL1       -0.2825
     35 H          58.6454   83.7132   12.0860 H       1  UNL1        0.1549
     36 C          58.8772   81.6195   11.7216 C.ar    1  UNL1        0.0535
     37 C          58.3789   81.3803   10.4335 C.ar    1  UNL1        0.0353
     38 C          57.9458   80.0985   10.0861 C.ar    1  UNL1        0.1002
     39 N          58.0228   79.0848   10.9884 N.ar    1  UNL1       -0.2422
     40 C          58.5193   79.2809   12.2383 C.ar    1  UNL1        0.1002
     41 C          58.9623   80.5477   12.6270 C.ar    1  UNL1        0.0353
     42 C          62.5899   84.7115   13.1076 C.3     1  UNL1        0.0569
     43 C          62.8334   85.9455   13.9273 C.ar    1  UNL1       -0.0017
     44 C          63.0457   85.9971   15.3022 C.ar    1  UNL1        0.0681
     45 N          63.3557   87.2568   15.6850 N.ar    1  UNL1       -0.3523
     46 C          63.3531   87.9971   14.5629 C.ar    1  UNL1        0.0563
     47 C          63.6501   89.3541   14.4455 C.ar    1  UNL1        0.0170
     48 C          63.6220   89.9245   13.1595 C.ar    1  UNL1        0.0015
     49 C          63.3074   89.1333   12.0321 C.ar    1  UNL1        0.0001
     50 C          63.0159   87.7651   12.1804 C.ar    1  UNL1        0.0012
     51 C          63.0431   87.2308   13.4686 C.ar    1  UNL1        0.0131
     52 H          63.5778   87.5787   16.6531 H       1  UNL1        0.1660
@<TRIPOS>BOND
     1    25    26    1
     2    26    24    1
     3    24    14    1
     4    14    15   ar
     5    15    16   ar
     6    16    17   ar
     7    17     8    1
     8     8     9    1
     9     9    10    1
    10    10    11    1
    11    11     1    1
    12     1     2   ar
    13     2     3   ar
    14     3     4   ar
    15     4    27    1
    16    27    28    2
    17    27    29   am
    18    29    31    1
    19    31    42    1
    20    42    43    1
    21    43    44   ar
    22    44    45   ar
    23    45    46   ar
    24    46    47   ar
    25    47    48   ar
    26    48    49   ar
    27    49    50   ar
    28    50    51   ar
    29    31    32    1
    30    32    33    2
    31    32    34   am
    32    34    36    1
    33    36    37   ar
    34    37    38   ar
    35    38    39   ar
    36    39    40   ar
    37    40    41   ar
    38     4     5   ar
    39     5     6    1
    40     5     7   ar
    41    11    12    1
    42    12    13    1
    43    17    18   ar
    44    18    19   ar
    45    19    20    1
    46    20    21    1
    47    20    22    1
    48    20    23    1
    49    19    14   ar
    50    13     8    1
    51     7     1   ar
    52    51    43   ar
    53    41    36   ar
    54    51    46   ar
    55    29    30    1
    56    45    52    1
    57    34    35    1
@<TRIPOS>MOLECULE
*****
 52 57 0 0 0
SMALL
GASTEIGER

@<TRIPOS>ATOM
      1 C          59.8395   88.0934    7.2182 C.ar    1  UNL1        0.0502
      2 C          60.4813   88.6133    8.3517 C.ar    1  UNL1        0.0148
      3 C          60.4299   87.9309    9.5695 C.ar    1  UNL1        0.0080
      4 C          59.7437   86.7098    9.6746 C.ar    1  UNL1        0.0808
      5 C          59.0889   86.1925    8.5406 C.ar    1  UNL1        0.1457
      6 F          58.3572   85.0520    8.6161 F       1  UNL1       -0.2040
      7 C          59.1421   86.8792    7.3234 C.ar    1  UNL1        0.0443
      8 N          60.2336   90.5756    3.8563 N.pl3   1  UNL1       -0.3041
      9 C          59.1349   90.8224    4.7975 C.3     1  UNL1        0.1122
     10 C          58.7169   89.5127    5.4667 C.3     1  UNL1        0.1122
     11 N          59.8996   88.8000    5.9649 N.pl3   1  UNL1       -0.3040
     12 C          60.9990   88.5541    5.0239 C.3     1  UNL1        0.1122
     13 C          61.4167   89.8639    4.3548 C.3     1  UNL1        0.1122
     14 C          60.4159   92.6481    0.1350 C.ar    1  UNL1        0.0112
     15 C          59.1831   92.3925    0.7589 C.ar    1  UNL1       -0.0006
     16 C          59.1209   91.7142    1.9739 C.ar    1  UNL1        0.0143
     17 C          60.2929   91.2796    2.6016 C.ar    1  UNL1        0.0479
     18 C          61.5309   91.5328    1.9954 C.ar    1  UNL1        0.0181
     19 C          61.6182   92.2189    0.7657 C.ar    1  UNL1        0.0710
     20 C          62.9833   92.4872    0.1580 C.3     1  UNL1        0.4184
     21 F          63.9953   91.8510    0.8568 F       1  UNL1       -0.1659
     22 F          63.2435   93.8456    0.1778 F       1  UNL1       -0.1659
     23 F          63.0159   92.0287   -1.1462 F       1  UNL1       -0.1659
     24 C          60.3850   93.3870   -1.1894 C.3     1  UNL1        0.1686
     25 C          58.2537   93.8442   -1.9774 C.3     1  UNL1        0.1746
     26 O          59.3229   92.9236   -2.0018 O.3     1  UNL1       -0.3463
     27 C          59.7152   86.0011   10.9718 C.2     1  UNL1        0.2483
     28 O          59.0264   86.4761   11.9160 O.2     1  UNL1       -0.2701
     29 N          60.5007   84.8147   11.1797 N.am    1  UNL1       -0.2945
     30 H          61.1922   84.5440   10.4442 H       1  UNL1        0.1501
     31 C          60.5976   84.1504   12.4851 C.3     1  UNL1        0.1535
     32 C          60.3775   82.6690   12.3287 C.2     1  UNL1        0.2443
     33 O          61.3692   81.9005   12.1949 O.2     1  UNL1       -0.2730
     34 N          59.0502   82.1293   12.4323 N.am    1  UNL1       -0.2825
     35 H          58.3122   82.7308   12.8641 H       1  UNL1        0.1549
     36 C          58.7002   80.7792   12.0825 C.ar    1  UNL1        0.0535
     37 C          58.2206   80.5033   10.7947 C.ar    1  UNL1        0.0353
     38 C          57.9006   79.1901   10.4422 C.ar    1  UNL1        0.1002
     39 N          58.0696   78.1828   11.3390 N.ar    1  UNL1       -0.2422
     40 C          58.5512   78.4158   12.5885 C.ar    1  UNL1        0.1002
     41 C          58.8824   79.7148   12.9822 C.ar    1  UNL1        0.0353
     42 C          61.9741   84.4126   13.1182 C.3     1  UNL1        0.0569
     43 C          61.8763   85.4006   14.2444 C.ar    1  UNL1       -0.0017
     44 C          61.3833   85.1525   15.5225 C.ar    1  UNL1        0.0681
     45 N          61.5613   86.2338   16.3152 N.ar    1  UNL1       -0.3523
     46 C          62.1731   87.1566   15.5527 C.ar    1  UNL1        0.0563
     47 C          62.5952   88.4275   15.9401 C.ar    1  UNL1        0.0170
     48 C          63.2527   89.2221   14.9829 C.ar    1  UNL1        0.0015
     49 C          63.4763   88.7317   13.6770 C.ar    1  UNL1        0.0001
     50 C          63.0428   87.4432   13.3154 C.ar    1  UNL1        0.0012
     51 C          62.3862   86.6831   14.2834 C.ar    1  UNL1        0.0131
     52 H          61.2995   86.3200   17.3224 H       1  UNL1        0.1660
@<TRIPOS>BOND
     1    25    26    1
     2    26    24    1
     3    24    14    1
     4    14    15   ar
     5    15    16   ar
     6    16    17   ar
     7    17     8    1
     8     8     9    1
     9     9    10    1
    10    10    11    1
    11    11     1    1
    12     1     2   ar
    13     2     3   ar
    14     3     4   ar
    15     4    27    1
    16    27    28    2
    17    27    29   am
    18    29    31    1
    19    31    42    1
    20    42    43    1
    21    43    44   ar
    22    44    45   ar
    23    45    46   ar
    24    46    47   ar
    25    47    48   ar
    26    48    49   ar
    27    49    50   ar
    28    50    51   ar
    29    31    32    1
    30    32    33    2
    31    32    34   am
    32    34    36    1
    33    36    37   ar
    34    37    38   ar
    35    38    39   ar
    36    39    40   ar
    37    40    41   ar
    38     4     5   ar
    39     5     6    1
    40     5     7   ar
    41    11    12    1
    42    12    13    1
    43    17    18   ar
    44    18    19   ar
    45    19    20    1
    46    20    21    1
    47    20    22    1
    48    20    23    1
    49    19    14   ar
    50    13     8    1
    51     7     1   ar
    52    51    43   ar
    53    41    36   ar
    54    51    46   ar
    55    29    30    1
    56    45    52    1
    57    34    35    1
@<TRIPOS>MOLECULE
*****
 52 57 0 0 0
SMALL
GASTEIGER

@<TRIPOS>ATOM
      1 C          59.7860   88.1265    7.1319 C.ar    1  UNL1        0.0502
      2 C          60.3899   88.6141    8.3000 C.ar    1  UNL1        0.0148
      3 C          60.2991   87.8975    9.4957 C.ar    1  UNL1        0.0080
      4 C          59.6108   86.6740    9.5436 C.ar    1  UNL1        0.0808
      5 C          58.9938   86.1891    8.3746 C.ar    1  UNL1        0.1457
      6 F          58.2610   85.0470    8.3938 F       1  UNL1       -0.2040
      7 C          59.0864   86.9100    7.1797 C.ar    1  UNL1        0.0443
      8 N          60.3209   90.6890    3.8506 N.pl3   1  UNL1       -0.3041
      9 C          59.2364   90.9662    4.7998 C.3     1  UNL1        0.1122
     10 C          58.7457   89.6609    5.4272 C.3     1  UNL1        0.1122
     11 N          59.8866   88.8684    5.9017 N.pl3   1  UNL1       -0.3040
     12 C          60.9719   88.5920    4.9527 C.3     1  UNL1        0.1122
     13 C          61.4622   89.8974    4.3254 C.3     1  UNL1        0.1122
     14 C          60.6186   92.8650    0.1965 C.ar    1  UNL1        0.0112
     15 C          59.4402   92.8970    0.9614 C.ar    1  UNL1       -0.0006
     16 C          59.3401   92.1857    2.1547 C.ar    1  UNL1        0.0143
     17 C          60.4205   91.4283    2.6190 C.ar    1  UNL1        0.0479
     18 C          61.6051   91.3916    1.8709 C.ar    1  UNL1        0.0181
     19 C          61.7298   92.1050    0.6601 C.ar    1  UNL1        0.0710
     20 C          63.0400   92.0503   -0.1048 C.3     1  UNL1        0.4184
     21 F          64.0491   91.4611    0.6380 F       1  UNL1       -0.1659
     22 F          63.4450   93.3330   -0.4277 F       1  UNL1       -0.1659
     23 F          62.8785   91.3109   -1.2621 F       1  UNL1       -0.1659
     24 C          60.6330   93.6653   -1.0921 C.3     1  UNL1        0.1686
     25 C          59.0778   92.2072   -2.0019 C.3     1  UNL1        0.1746
     26 O          59.3922   93.5622   -1.7649 O.3     1  UNL1       -0.3463
     27 C          59.5403   85.9289   10.8186 C.2     1  UNL1        0.2483
     28 O          59.0465   86.4931   11.8332 O.2     1  UNL1       -0.2701
     29 N          60.0732   84.5974   10.9234 N.am    1  UNL1       -0.2945
     30 H          60.6297   84.2227   10.1219 H       1  UNL1        0.1501
     31 C          60.1349   83.8693   12.1965 C.3     1  UNL1        0.1535
     32 C          60.6255   84.7810   13.2900 C.2     1  UNL1        0.2443
     33 O          59.9427   84.9190   14.3420 O.2     1  UNL1       -0.2730
     34 N          61.9122   85.4090   13.1726 N.am    1  UNL1       -0.2825
     35 H          62.5797   85.0235   12.4664 H       1  UNL1        0.1549
     36 C          62.3780   86.4585   14.0382 C.ar    1  UNL1        0.0535
     37 C          62.5315   86.2046   15.4081 C.ar    1  UNL1        0.0353
     38 C          63.0053   87.2136   16.2499 C.ar    1  UNL1        0.1002
     39 N          63.3314   88.4304   15.7395 N.ar    1  UNL1       -0.2422
     40 C          63.2121   88.7008   14.4128 C.ar    1  UNL1        0.1002
     41 C          62.7410   87.7202   13.5361 C.ar    1  UNL1        0.0353
     42 C          58.7496   83.3104   12.5611 C.3     1  UNL1        0.0569
     43 C          58.3468   82.2034   11.6305 C.ar    1  UNL1       -0.0017
     44 C          57.9798   82.3378   10.2943 C.ar    1  UNL1        0.0681
     45 N          57.8022   81.1220    9.7290 N.ar    1  UNL1       -0.3523
     46 C          58.0660   80.2223   10.6925 C.ar    1  UNL1        0.0563
     47 C          58.0512   78.8330   10.5779 C.ar    1  UNL1        0.0170
     48 C          58.3977   78.0761   11.7123 C.ar    1  UNL1        0.0015
     49 C          58.7531   78.7175   12.9198 C.ar    1  UNL1        0.0001
     50 C          58.7633   80.1217   13.0049 C.ar    1  UNL1        0.0012
     51 C          58.4065   80.8443   11.8664 C.ar    1  UNL1        0.0131
     52 H          57.5399   80.9264    8.7374 H       1  UNL1        0.1660
@<TRIPOS>BOND
     1    25    26    1
     2    26    24    1
     3    24    14    1
     4    14    15   ar
     5    15    16   ar
     6    16    17   ar
     7    17     8    1
     8     8     9    1
     9     9    10    1
    10    10    11    1
    11    11     1    1
    12     1     2   ar
    13     2     3   ar
    14     3     4   ar
    15     4    27    1
    16    27    28    2
    17    27    29   am
    18    29    31    1
    19    31    42    1
    20    42    43    1
    21    43    44   ar
    22    44    45   ar
    23    45    46   ar
    24    46    47   ar
    25    47    48   ar
    26    48    49   ar
    27    49    50   ar
    28    50    51   ar
    29    31    32    1
    30    32    33    2
    31    32    34   am
    32    34    36    1
    33    36    37   ar
    34    37    38   ar
    35    38    39   ar
    36    39    40   ar
    37    40    41   ar
    38     4     5   ar
    39     5     6    1
    40     5     7   ar
    41    11    12    1
    42    12    13    1
    43    17    18   ar
    44    18    19   ar
    45    19    20    1
    46    20    21    1
    47    20    22    1
    48    20    23    1
    49    19    14   ar
    50    13     8    1
    51     7     1   ar
    52    51    43   ar
    53    41    36   ar
    54    51    46   ar
    55    29    30    1
    56    45    52    1
    57    34    35    1
