@<TRIPOS>MOLECULE
*****
 36 39 0 0 0
SMALL
GASTEIGER

@<TRIPOS>ATOM
      1 N         -29.8548   48.2586   -6.6456 N.am    1  UNL1       -0.2685
      2 C         -29.1576   48.2886   -7.9083 C.2     1  UNL1        0.2672
      3 O         -29.6649   47.7110   -8.9080 O.2     1  UNL1       -0.2682
      4 C         -27.8422   48.9519   -8.0446 C.ar    1  UNL1        0.1347
      5 C         -27.6911   50.0948   -8.8466 C.ar    1  UNL1        0.0238
      6 C         -26.4300   50.6937   -8.9664 C.ar    1  UNL1        0.0031
      7 C         -26.2494   51.8408   -9.7551 C.ar    1  UNL1        0.0001
      8 C         -24.9835   52.4251   -9.8626 C.ar    1  UNL1        0.0000
      9 C         -23.8927   51.8710   -9.1863 C.ar    1  UNL1        0.0000
     10 C         -24.0604   50.7285   -8.3980 C.ar    1  UNL1        0.0015
     11 C         -25.3264   50.1348   -8.2836 C.ar    1  UNL1        0.0192
     12 C         -25.5210   48.9901   -7.5019 C.ar    1  UNL1        0.0989
     13 N         -26.7568   48.4338   -7.4060 N.ar    1  UNL1       -0.2393
     14 C         -30.0309   49.5128   -5.8734 C.3     1  UNL1        0.1007
     15 C         -30.8208   50.5550   -6.6827 C.3     1  UNL1        0.0265
     16 C         -28.7001   50.0066   -5.3123 C.ar    1  UNL1        0.0234
     17 C         -27.9271   49.2500   -4.4028 C.ar    1  UNL1        0.0019
     18 C         -26.7436   49.7690   -3.8705 C.ar    1  UNL1        0.0295
     19 C         -26.3066   51.0413   -4.2390 C.ar    1  UNL1        0.1424
     20 F         -25.1649   51.5460   -3.7103 F       1  UNL1       -0.2041
     21 C         -27.0457   51.7935   -5.1524 C.ar    1  UNL1        0.0590
     22 C         -28.2305   51.2824   -5.6914 C.ar    1  UNL1        0.1399
     23 F         -28.9239   52.0398   -6.5783 F       1  UNL1       -0.2044
     24 C         -30.3921   46.9647   -6.1787 C.3     1  UNL1        0.1207
     25 C         -28.0160   45.1296   -3.0622 C.ar    1  UNL1        0.1449
     26 C         -27.5390   45.2019   -4.3854 C.ar    1  UNL1        0.0368
     27 C         -28.2942   45.8177   -5.3818 C.ar    1  UNL1        0.0005
     28 C         -29.5466   46.3653   -5.0845 C.ar    1  UNL1       -0.0019
     29 C         -30.0146   46.3318   -3.7631 C.ar    1  UNL1        0.0069
     30 C         -29.2662   45.7140   -2.7432 C.ar    1  UNL1        0.1090
     31 C         -29.8266   45.6706   -1.3670 C.2     1  UNL1        0.3410
     32 O         -31.0572   45.4802   -1.1725 O.2     1  UNL1       -0.2450
     33 O         -28.9898   45.8413   -0.2666 O.3     1  UNL1       -0.4770
     34 H         -29.3581   45.8152    0.6768 H       1  UNL1        0.2954
     35 C         -25.8557   44.4045   -2.0174 C.3     1  UNL1        0.2525
     36 O         -27.2770   44.4812   -2.0583 O.3     1  UNL1       -0.4712
@<TRIPOS>BOND
     1    35    36    1
     2    36    25    1
     3    25    26   ar
     4    26    27   ar
     5    27    28   ar
     6    28    24    1
     7    24     1    1
     8     1     2   am
     9     2     3    2
    10     2     4    1
    11     4     5   ar
    12     5     6   ar
    13     6     7   ar
    14     7     8   ar
    15     8     9   ar
    16     9    10   ar
    17    10    11   ar
    18    11    12   ar
    19    12    13   ar
    20     1    14    1
    21    14    15    1
    22    14    16    1
    23    16    17   ar
    24    17    18   ar
    25    18    19   ar
    26    19    20    1
    27    19    21   ar
    28    21    22   ar
    29    22    23    1
    30    28    29   ar
    31    29    30   ar
    32    30    31    1
    33    31    32    2
    34    31    33    1
    35    30    25   ar
    36    13     4   ar
    37    22    16   ar
    38    11     6   ar
    39    33    34    1
@<TRIPOS>MOLECULE
*****
 36 39 0 0 0
SMALL
GASTEIGER

@<TRIPOS>ATOM
      1 N         -29.5318   47.1591   -7.5880 N.am    1  UNL1       -0.2685
      2 C         -28.2466   46.9322   -8.2029 C.2     1  UNL1        0.2672
      3 O         -27.9851   45.7974   -8.6871 O.2     1  UNL1       -0.2682
      4 C         -27.2160   47.9929   -8.2440 C.ar    1  UNL1        0.1347
      5 C         -26.8869   48.6315   -9.4507 C.ar    1  UNL1        0.0238
      6 C         -25.8974   49.6235   -9.4607 C.ar    1  UNL1        0.0031
      7 C         -25.5518   50.2843  -10.6500 C.ar    1  UNL1        0.0001
      8 C         -24.5621   51.2721  -10.6407 C.ar    1  UNL1        0.0000
      9 C         -23.9125   51.6065   -9.4488 C.ar    1  UNL1        0.0000
     10 C         -24.2481   50.9551   -8.2580 C.ar    1  UNL1        0.0015
     11 C         -25.2398   49.9626   -8.2570 C.ar    1  UNL1        0.0192
     12 C         -25.5937   49.2946   -7.0789 C.ar    1  UNL1        0.0989
     13 N         -26.5578   48.3376   -7.1029 N.ar    1  UNL1       -0.2393
     14 C         -30.3119   48.3703   -7.9415 C.3     1  UNL1        0.1007
     15 C         -30.7190   48.3533   -9.4244 C.3     1  UNL1        0.0265
     16 C         -29.5980   49.6394   -7.4839 C.ar    1  UNL1        0.0234
     17 C         -29.0437   50.5722   -8.3891 C.ar    1  UNL1        0.0019
     18 C         -28.3475   51.6905   -7.9221 C.ar    1  UNL1        0.0295
     19 C         -28.1987   51.9030   -6.5516 C.ar    1  UNL1        0.1424
     20 F         -27.5113   52.9820   -6.1031 F       1  UNL1       -0.2041
     21 C         -28.7581   51.0040   -5.6432 C.ar    1  UNL1        0.0590
     22 C         -29.4575   49.8829   -6.1008 C.ar    1  UNL1        0.1399
     23 F         -29.9903   49.0296   -5.1902 F       1  UNL1       -0.2044
     24 C         -30.0346   46.1492   -6.6351 C.3     1  UNL1        0.1207
     25 C         -27.2663   45.3228   -3.4134 C.ar    1  UNL1        0.1449
     26 C         -27.9354   44.2757   -4.0765 C.ar    1  UNL1        0.0368
     27 C         -28.8056   44.5425   -5.1318 C.ar    1  UNL1        0.0005
     28 C         -29.0374   45.8593   -5.5428 C.ar    1  UNL1       -0.0019
     29 C         -28.3484   46.9064   -4.9142 C.ar    1  UNL1        0.0069
     30 C         -27.4656   46.6566   -3.8463 C.ar    1  UNL1        0.1090
     31 C         -26.7912   47.8063   -3.1882 C.2     1  UNL1        0.3410
     32 O         -26.8101   48.9545   -3.7075 O.2     1  UNL1       -0.2450
     33 O         -26.1245   47.6257   -1.9786 O.3     1  UNL1       -0.4770
     34 H         -25.6596   48.3999   -1.5194 H       1  UNL1        0.2954
     35 C         -25.3505   44.1184   -2.3346 C.3     1  UNL1        0.2525
     36 O         -26.4132   45.0662   -2.3267 O.3     1  UNL1       -0.4712
@<TRIPOS>BOND
     1    35    36    1
     2    36    25    1
     3    25    26   ar
     4    26    27   ar
     5    27    28   ar
     6    28    24    1
     7    24     1    1
     8     1     2   am
     9     2     3    2
    10     2     4    1
    11     4     5   ar
    12     5     6   ar
    13     6     7   ar
    14     7     8   ar
    15     8     9   ar
    16     9    10   ar
    17    10    11   ar
    18    11    12   ar
    19    12    13   ar
    20     1    14    1
    21    14    15    1
    22    14    16    1
    23    16    17   ar
    24    17    18   ar
    25    18    19   ar
    26    19    20    1
    27    19    21   ar
    28    21    22   ar
    29    22    23    1
    30    28    29   ar
    31    29    30   ar
    32    30    31    1
    33    31    32    2
    34    31    33    1
    35    30    25   ar
    36    13     4   ar
    37    22    16   ar
    38    11     6   ar
    39    33    34    1
@<TRIPOS>MOLECULE
*****
 36 39 0 0 0
SMALL
GASTEIGER

@<TRIPOS>ATOM
      1 N         -29.3054   48.1778   -8.3962 N.am    1  UNL1       -0.2685
      2 C         -28.1849   48.0993   -9.3017 C.2     1  UNL1        0.2672
      3 O         -28.2310   47.2969  -10.2735 O.2     1  UNL1       -0.2682
      4 C         -26.9683   48.9146   -9.0918 C.ar    1  UNL1        0.1347
      5 C         -26.4757   49.7488  -10.1084 C.ar    1  UNL1        0.0238
      6 C         -25.3138   50.4994   -9.8847 C.ar    1  UNL1        0.0031
      7 C         -24.8014   51.3472  -10.8792 C.ar    1  UNL1        0.0001
      8 C         -23.6409   52.0891  -10.6379 C.ar    1  UNL1        0.0000
      9 C         -22.9857   51.9906   -9.4068 C.ar    1  UNL1        0.0000
     10 C         -23.4866   51.1494   -8.4087 C.ar    1  UNL1        0.0015
     11 C         -24.6503   50.4009   -8.6411 C.ar    1  UNL1        0.0192
     12 C         -25.1719   49.5505   -7.6592 C.ar    1  UNL1        0.0989
     13 N         -26.3008   48.8365   -7.9075 N.ar    1  UNL1       -0.2393
     14 C         -29.8522   49.5036   -8.0170 C.3     1  UNL1        0.1007
     15 C         -30.2788   50.3026   -9.2598 C.3     1  UNL1        0.0265
     16 C         -28.9076   50.2397   -7.0708 C.ar    1  UNL1        0.0234
     17 C         -28.6325   49.7862   -5.7610 C.ar    1  UNL1        0.0019
     18 C         -27.8063   50.5258   -4.9102 C.ar    1  UNL1        0.0295
     19 C         -27.2355   51.7203   -5.3493 C.ar    1  UNL1        0.1424
     20 F         -26.4453   52.4412   -4.5163 F       1  UNL1       -0.2041
     21 C         -27.4786   52.1721   -6.6467 C.ar    1  UNL1        0.0590
     22 C         -28.3028   51.4385   -7.5058 C.ar    1  UNL1        0.1399
     23 F         -28.5169   51.9057   -8.7616 F       1  UNL1       -0.2044
     24 C         -29.8842   46.9149   -7.8953 C.3     1  UNL1        0.1207
     25 C         -28.5983   46.1658   -3.8318 C.ar    1  UNL1        0.1449
     26 C         -29.9644   46.3139   -4.1409 C.ar    1  UNL1        0.0368
     27 C         -30.3781   46.5279   -5.4544 C.ar    1  UNL1        0.0005
     28 C         -29.4391   46.6103   -6.4879 C.ar    1  UNL1       -0.0019
     29 C         -28.0797   46.4273   -6.1970 C.ar    1  UNL1        0.0069
     30 C         -27.6427   46.2105   -4.8764 C.ar    1  UNL1        0.1090
     31 C         -26.1863   46.0629   -4.6171 C.2     1  UNL1        0.3410
     32 O         -25.3832   45.8012   -5.5524 O.2     1  UNL1       -0.2450
     33 O         -25.6883   46.2138   -3.3249 O.3     1  UNL1       -0.4770
     34 H         -24.6985   46.1149   -3.1334 H       1  UNL1        0.2954
     35 C         -29.0225   46.0035   -1.3665 C.3     1  UNL1        0.2525
     36 O         -28.1692   45.9836   -2.5064 O.3     1  UNL1       -0.4712
@<TRIPOS>BOND
     1    35    36    1
     2    36    25    1
     3    25    26   ar
     4    26    27   ar
     5    27    28   ar
     6    28    24    1
     7    24     1    1
     8     1     2   am
     9     2     3    2
    10     2     4    1
    11     4     5   ar
    12     5     6   ar
    13     6     7   ar
    14     7     8   ar
    15     8     9   ar
    16     9    10   ar
    17    10    11   ar
    18    11    12   ar
    19    12    13   ar
    20     1    14    1
    21    14    15    1
    22    14    16    1
    23    16    17   ar
    24    17    18   ar
    25    18    19   ar
    26    19    20    1
    27    19    21   ar
    28    21    22   ar
    29    22    23    1
    30    28    29   ar
    31    29    30   ar
    32    30    31    1
    33    31    32    2
    34    31    33    1
    35    30    25   ar
    36    13     4   ar
    37    22    16   ar
    38    11     6   ar
    39    33    34    1
@<TRIPOS>MOLECULE
*****
 36 39 0 0 0
SMALL
GASTEIGER

@<TRIPOS>ATOM
      1 N         -28.9692   48.9885   -7.5168 N.am    1  UNL1       -0.2685
      2 C         -27.8791   48.5500   -8.3540 C.2     1  UNL1        0.2672
      3 O         -27.9496   47.4259   -8.9215 O.2     1  UNL1       -0.2682
      4 C         -26.6647   49.3764   -8.5306 C.ar    1  UNL1        0.1347
      5 C         -26.2761   49.8234   -9.8039 C.ar    1  UNL1        0.0238
      6 C         -25.1139   50.5938   -9.9414 C.ar    1  UNL1        0.0031
      7 C         -24.7040   51.0607  -11.2002 C.ar    1  UNL1        0.0001
      8 C         -23.5414   51.8288  -11.3182 C.ar    1  UNL1        0.0000
      9 C         -22.7823   52.1354  -10.1850 C.ar    1  UNL1        0.0000
     10 C         -23.1805   51.6757   -8.9260 C.ar    1  UNL1        0.0015
     11 C         -24.3454   50.9045   -8.7972 C.ar    1  UNL1        0.0192
     12 C         -24.7654   50.4311   -7.5486 C.ar    1  UNL1        0.0989
     13 N         -25.8976   49.6867   -7.4491 N.ar    1  UNL1       -0.2393
     14 C         -29.5167   50.3575   -7.6805 C.3     1  UNL1        0.1007
     15 C         -30.5892   50.6552   -6.6193 C.3     1  UNL1        0.0265
     16 C         -29.9494   50.6098   -9.1222 C.ar    1  UNL1        0.0234
     17 C         -31.0260   49.9231   -9.7275 C.ar    1  UNL1        0.0019
     18 C         -31.3481   50.1454  -11.0693 C.ar    1  UNL1        0.0295
     19 C         -30.6126   51.0574  -11.8262 C.ar    1  UNL1        0.1424
     20 F         -30.9202   51.2603  -13.1308 F       1  UNL1       -0.2041
     21 C         -29.5603   51.7603  -11.2389 C.ar    1  UNL1        0.0590
     22 C         -29.2311   51.5457   -9.8969 C.ar    1  UNL1        0.1399
     23 F         -28.2030   52.2474   -9.3568 F       1  UNL1       -0.2044
     24 C         -29.5175   48.0339   -6.5325 C.3     1  UNL1        0.1207
     25 C         -26.5774   46.5930   -3.7030 C.ar    1  UNL1        0.1449
     26 C         -27.1834   45.7162   -4.6238 C.ar    1  UNL1        0.0368
     27 C         -28.1097   46.1876   -5.5521 C.ar    1  UNL1        0.0005
     28 C         -28.4615   47.5412   -5.5766 C.ar    1  UNL1       -0.0019
     29 C         -27.8369   48.4293   -4.6892 C.ar    1  UNL1        0.0069
     30 C         -26.8991   47.9718   -3.7443 C.ar    1  UNL1        0.1090
     31 C         -26.2962   48.9487   -2.7997 C.2     1  UNL1        0.3410
     32 O         -25.9796   50.1082   -3.1788 O.2     1  UNL1       -0.2450
     33 O         -26.0726   48.5901   -1.4724 O.3     1  UNL1       -0.4770
     34 H         -25.6616   49.2451   -0.8181 H       1  UNL1        0.2954
     35 C         -25.3905   44.7471   -2.4914 C.3     1  UNL1        0.2525
     36 O         -25.6680   46.1212   -2.7415 O.3     1  UNL1       -0.4712
@<TRIPOS>BOND
     1    35    36    1
     2    36    25    1
     3    25    26   ar
     4    26    27   ar
     5    27    28   ar
     6    28    24    1
     7    24     1    1
     8     1     2   am
     9     2     3    2
    10     2     4    1
    11     4     5   ar
    12     5     6   ar
    13     6     7   ar
    14     7     8   ar
    15     8     9   ar
    16     9    10   ar
    17    10    11   ar
    18    11    12   ar
    19    12    13   ar
    20     1    14    1
    21    14    15    1
    22    14    16    1
    23    16    17   ar
    24    17    18   ar
    25    18    19   ar
    26    19    20    1
    27    19    21   ar
    28    21    22   ar
    29    22    23    1
    30    28    29   ar
    31    29    30   ar
    32    30    31    1
    33    31    32    2
    34    31    33    1
    35    30    25   ar
    36    13     4   ar
    37    22    16   ar
    38    11     6   ar
    39    33    34    1
@<TRIPOS>MOLECULE
*****
 36 39 0 0 0
SMALL
GASTEIGER

@<TRIPOS>ATOM
      1 N         -26.6222   50.7124   -6.2883 N.am    1  UNL1       -0.2685
      2 C         -27.5250   51.6549   -6.9030 C.2     1  UNL1        0.2672
      3 O         -27.5138   52.8579   -6.5248 O.2     1  UNL1       -0.2682
      4 C         -28.4890   51.2306   -7.9421 C.ar    1  UNL1        0.1347
      5 C         -28.3289   51.6288   -9.2793 C.ar    1  UNL1        0.0238
      6 C         -29.2653   51.2218  -10.2388 C.ar    1  UNL1        0.0031
      7 C         -29.1281   51.5982  -11.5842 C.ar    1  UNL1        0.0001
      8 C         -30.0723   51.1822  -12.5281 C.ar    1  UNL1        0.0000
      9 C         -31.1562   50.3903  -12.1376 C.ar    1  UNL1        0.0000
     10 C         -31.3035   50.0093  -10.8004 C.ar    1  UNL1        0.0015
     11 C         -30.3615   50.4216   -9.8459 C.ar    1  UNL1        0.0192
     12 C         -30.4864   50.0549   -8.5008 C.ar    1  UNL1        0.0989
     13 N         -29.5608   50.4657   -7.5950 N.ar    1  UNL1       -0.2393
     14 C         -25.8173   49.8030   -7.1402 C.3     1  UNL1        0.1007
     15 C         -24.9355   50.5969   -8.1185 C.3     1  UNL1        0.0265
     16 C         -26.6932   48.7326   -7.7856 C.ar    1  UNL1        0.0234
     17 C         -27.4677   47.8227   -7.0312 C.ar    1  UNL1        0.0019
     18 C         -28.2085   46.8215   -7.6654 C.ar    1  UNL1        0.0295
     19 C         -28.1980   46.7144   -9.0560 C.ar    1  UNL1        0.1424
     20 F         -28.9077   45.7337   -9.6663 F       1  UNL1       -0.2041
     21 C         -27.4563   47.6176   -9.8179 C.ar    1  UNL1        0.0590
     22 C         -26.7128   48.6234   -9.1927 C.ar    1  UNL1        0.1399
     23 F         -26.0041   49.4862   -9.9637 F       1  UNL1       -0.2044
     24 C         -26.5187   50.7081   -4.8152 C.3     1  UNL1        0.1207
     25 C         -28.1595   47.1528   -2.9731 C.ar    1  UNL1        0.1449
     26 C         -29.0034   48.1813   -3.4351 C.ar    1  UNL1        0.0368
     27 C         -28.4742   49.3131   -4.0527 C.ar    1  UNL1        0.0005
     28 C         -27.0915   49.4505   -4.2137 C.ar    1  UNL1       -0.0019
     29 C         -26.2446   48.4159   -3.7909 C.ar    1  UNL1        0.0069
     30 C         -26.7606   47.2654   -3.1648 C.ar    1  UNL1        0.1090
     31 C         -25.8158   46.2164   -2.6993 C.2     1  UNL1        0.3410
     32 O         -24.7122   46.0324   -3.2794 O.2     1  UNL1       -0.2450
     33 O         -26.1428   45.4175   -1.6060 O.3     1  UNL1       -0.4770
     34 H         -25.5092   44.6981   -1.2785 H       1  UNL1        0.2954
     35 C         -29.6445   46.0655   -1.2711 C.3     1  UNL1        0.2525
     36 O         -28.6814   46.0239   -2.3191 O.3     1  UNL1       -0.4712
@<TRIPOS>BOND
     1    35    36    1
     2    36    25    1
     3    25    26   ar
     4    26    27   ar
     5    27    28   ar
     6    28    24    1
     7    24     1    1
     8     1     2   am
     9     2     3    2
    10     2     4    1
    11     4     5   ar
    12     5     6   ar
    13     6     7   ar
    14     7     8   ar
    15     8     9   ar
    16     9    10   ar
    17    10    11   ar
    18    11    12   ar
    19    12    13   ar
    20     1    14    1
    21    14    15    1
    22    14    16    1
    23    16    17   ar
    24    17    18   ar
    25    18    19   ar
    26    19    20    1
    27    19    21   ar
    28    21    22   ar
    29    22    23    1
    30    28    29   ar
    31    29    30   ar
    32    30    31    1
    33    31    32    2
    34    31    33    1
    35    30    25   ar
    36    13     4   ar
    37    22    16   ar
    38    11     6   ar
    39    33    34    1
@<TRIPOS>MOLECULE
*****
 36 39 0 0 0
SMALL
GASTEIGER

@<TRIPOS>ATOM
      1 N         -29.6862   49.0976   -9.5104 N.am    1  UNL1       -0.2685
      2 C         -30.0383   49.3984   -8.1440 C.2     1  UNL1        0.2672
      3 O         -31.2085   49.1573   -7.7402 O.2     1  UNL1       -0.2682
      4 C         -29.0650   50.0178   -7.2178 C.ar    1  UNL1        0.1347
      5 C         -28.5360   49.2927   -6.1377 C.ar    1  UNL1        0.0238
      6 C         -27.6258   49.9103   -5.2698 C.ar    1  UNL1        0.0031
      7 C         -27.0748   49.2090   -4.1857 C.ar    1  UNL1        0.0001
      8 C         -26.1675   49.8416   -3.3302 C.ar    1  UNL1        0.0000
      9 C         -25.8047   51.1738   -3.5495 C.ar    1  UNL1        0.0000
     10 C         -26.3470   51.8825   -4.6258 C.ar    1  UNL1        0.0015
     11 C         -27.2581   51.2567   -5.4899 C.ar    1  UNL1        0.0192
     12 C         -27.8164   51.9440   -6.5739 C.ar    1  UNL1        0.0989
     13 N         -28.6960   51.3162   -7.3974 N.ar    1  UNL1       -0.2393
     14 C         -28.4319   48.3607   -9.8008 C.3     1  UNL1        0.1007
     15 C         -28.4432   46.9693   -9.1458 C.3     1  UNL1        0.0265
     16 C         -27.2056   49.2121   -9.4835 C.ar    1  UNL1        0.0234
     17 C         -26.2584   48.8499   -8.4994 C.ar    1  UNL1        0.0019
     18 C         -25.1825   49.6912   -8.2028 C.ar    1  UNL1        0.0295
     19 C         -25.0268   50.8986   -8.8835 C.ar    1  UNL1        0.1424
     20 F         -23.9890   51.7177   -8.5834 F       1  UNL1       -0.2041
     21 C         -25.9402   51.2621   -9.8734 C.ar    1  UNL1        0.0590
     22 C         -27.0192   50.4265  -10.1782 C.ar    1  UNL1        0.1399
     23 F         -27.8878   50.8096  -11.1477 F       1  UNL1       -0.2044
     24 C         -30.6146   49.5226  -10.5773 C.3     1  UNL1        0.1207
     25 C         -30.3131   46.8782  -13.9894 C.ar    1  UNL1        0.1449
     26 C         -30.6745   46.3823  -12.7217 C.ar    1  UNL1        0.0368
     27 C         -30.7976   47.2401  -11.6302 C.ar    1  UNL1        0.0005
     28 C         -30.5524   48.6097  -11.7749 C.ar    1  UNL1       -0.0019
     29 C         -30.2283   49.1194  -13.0404 C.ar    1  UNL1        0.0069
     30 C         -30.0991   48.2686  -14.1545 C.ar    1  UNL1        0.1090
     31 C         -29.7141   48.8551  -15.4651 C.2     1  UNL1        0.3410
     32 O         -29.9788   50.0557  -15.7424 O.2     1  UNL1       -0.2450
     33 O         -29.0499   48.0768  -16.4103 O.3     1  UNL1       -0.4770
     34 H         -28.7824   48.4629  -17.3079 H       1  UNL1        0.2954
     35 C         -31.2195   45.3591  -15.7657 C.3     1  UNL1        0.2525
     36 O         -30.1537   46.0165  -15.0878 O.3     1  UNL1       -0.4712
@<TRIPOS>BOND
     1    35    36    1
     2    36    25    1
     3    25    26   ar
     4    26    27   ar
     5    27    28   ar
     6    28    24    1
     7    24     1    1
     8     1     2   am
     9     2     3    2
    10     2     4    1
    11     4     5   ar
    12     5     6   ar
    13     6     7   ar
    14     7     8   ar
    15     8     9   ar
    16     9    10   ar
    17    10    11   ar
    18    11    12   ar
    19    12    13   ar
    20     1    14    1
    21    14    15    1
    22    14    16    1
    23    16    17   ar
    24    17    18   ar
    25    18    19   ar
    26    19    20    1
    27    19    21   ar
    28    21    22   ar
    29    22    23    1
    30    28    29   ar
    31    29    30   ar
    32    30    31    1
    33    31    32    2
    34    31    33    1
    35    30    25   ar
    36    13     4   ar
    37    22    16   ar
    38    11     6   ar
    39    33    34    1
@<TRIPOS>MOLECULE
*****
 36 39 0 0 0
SMALL
GASTEIGER

@<TRIPOS>ATOM
      1 N         -29.5471   48.5262   -8.3900 N.am    1  UNL1       -0.2685
      2 C         -28.9421   49.6351   -7.6929 C.2     1  UNL1        0.2672
      3 O         -29.5936   50.2260   -6.7890 O.2     1  UNL1       -0.2682
      4 C         -27.5874   50.1160   -8.0424 C.ar    1  UNL1        0.1347
      5 C         -27.2155   50.3115   -9.3824 C.ar    1  UNL1        0.0238
      6 C         -25.9210   50.7556   -9.6831 C.ar    1  UNL1        0.0031
      7 C         -25.5225   50.9668  -11.0124 C.ar    1  UNL1        0.0001
      8 C         -24.2266   51.4106  -11.2934 C.ar    1  UNL1        0.0000
      9 C         -23.3222   51.6460  -10.2537 C.ar    1  UNL1        0.0000
     10 C         -23.7076   51.4390   -8.9257 C.ar    1  UNL1        0.0015
     11 C         -25.0056   50.9939   -8.6334 C.ar    1  UNL1        0.0192
     12 C         -25.4163   50.7777   -7.3128 C.ar    1  UNL1        0.0989
     13 N         -26.6788   50.3473   -7.0548 N.ar    1  UNL1       -0.2393
     14 C         -28.7824   47.2684   -8.5735 C.3     1  UNL1        0.1007
     15 C         -29.7106   46.1099   -8.9754 C.3     1  UNL1        0.0265
     16 C         -27.8853   46.9877   -7.3710 C.ar    1  UNL1        0.0234
     17 C         -28.3986   46.6915   -6.0881 C.ar    1  UNL1        0.0019
     18 C         -27.5380   46.4994   -5.0038 C.ar    1  UNL1        0.0295
     19 C         -26.1572   46.5903   -5.1785 C.ar    1  UNL1        0.1424
     20 F         -25.3266   46.4162   -4.1213 F       1  UNL1       -0.2041
     21 C         -25.6320   46.8604   -6.4425 C.ar    1  UNL1        0.0590
     22 C         -26.4849   47.0529   -7.5338 C.ar    1  UNL1        0.1399
     23 F         -25.9408   47.3122   -8.7495 F       1  UNL1       -0.2044
     24 C         -30.9315   48.6844   -8.8790 C.3     1  UNL1        0.1207
     25 C         -30.9334   50.2128  -12.9275 C.ar    1  UNL1        0.1449
     26 C         -31.3226   48.8866  -12.6565 C.ar    1  UNL1        0.0368
     27 C         -31.3473   48.4049  -11.3490 C.ar    1  UNL1        0.0005
     28 C         -30.9741   49.2304  -10.2832 C.ar    1  UNL1       -0.0019
     29 C         -30.6207   50.5633  -10.5379 C.ar    1  UNL1        0.0069
     30 C         -30.5896   51.0677  -11.8518 C.ar    1  UNL1        0.1090
     31 C         -30.1689   52.4767  -12.0703 C.2     1  UNL1        0.3410
     32 O         -29.2959   53.0149  -11.3378 O.2     1  UNL1       -0.2450
     33 O         -30.7402   53.2248  -13.0970 O.3     1  UNL1       -0.4770
     34 H         -30.4640   54.1863  -13.2568 H       1  UNL1        0.2954
     35 C         -31.3580   50.0014  -15.3891 C.3     1  UNL1        0.2525
     36 O         -30.8730   50.6970  -14.2452 O.3     1  UNL1       -0.4712
@<TRIPOS>BOND
     1    35    36    1
     2    36    25    1
     3    25    26   ar
     4    26    27   ar
     5    27    28   ar
     6    28    24    1
     7    24     1    1
     8     1     2   am
     9     2     3    2
    10     2     4    1
    11     4     5   ar
    12     5     6   ar
    13     6     7   ar
    14     7     8   ar
    15     8     9   ar
    16     9    10   ar
    17    10    11   ar
    18    11    12   ar
    19    12    13   ar
    20     1    14    1
    21    14    15    1
    22    14    16    1
    23    16    17   ar
    24    17    18   ar
    25    18    19   ar
    26    19    20    1
    27    19    21   ar
    28    21    22   ar
    29    22    23    1
    30    28    29   ar
    31    29    30   ar
    32    30    31    1
    33    31    32    2
    34    31    33    1
    35    30    25   ar
    36    13     4   ar
    37    22    16   ar
    38    11     6   ar
    39    33    34    1
@<TRIPOS>MOLECULE
*****
 36 39 0 0 0
SMALL
GASTEIGER

@<TRIPOS>ATOM
      1 N         -28.9944   48.9335   -7.7891 N.am    1  UNL1       -0.2685
      2 C         -28.2603   47.6963   -7.8981 C.2     1  UNL1        0.2672
      3 O         -28.2371   47.0870   -9.0021 O.2     1  UNL1       -0.2682
      4 C         -27.5651   47.1095   -6.7315 C.ar    1  UNL1        0.1347
      5 C         -28.2698   46.7845   -5.5610 C.ar    1  UNL1        0.0238
      6 C         -27.5818   46.2419   -4.4677 C.ar    1  UNL1        0.0031
      7 C         -28.2602   45.9007   -3.2870 C.ar    1  UNL1        0.0001
      8 C         -27.5570   45.3598   -2.2061 C.ar    1  UNL1        0.0000
      9 C         -26.1768   45.1563   -2.2953 C.ar    1  UNL1        0.0000
     10 C         -25.4903   45.4925   -3.4659 C.ar    1  UNL1        0.0015
     11 C         -26.1868   46.0357   -4.5560 C.ar    1  UNL1        0.0192
     12 C         -25.5232   46.3818   -5.7389 C.ar    1  UNL1        0.0989
     13 N         -26.2196   46.9055   -6.7813 N.ar    1  UNL1       -0.2393
     14 C         -28.3578   50.1119   -7.1513 C.3     1  UNL1        0.1007
     15 C         -29.3883   51.2223   -6.8869 C.3     1  UNL1        0.0265
     16 C         -27.1178   50.5543   -7.9234 C.ar    1  UNL1        0.0234
     17 C         -27.1840   51.1083   -9.2217 C.ar    1  UNL1        0.0019
     18 C         -26.0167   51.4443   -9.9130 C.ar    1  UNL1        0.0295
     19 C         -24.7688   51.2434   -9.3231 C.ar    1  UNL1        0.1424
     20 F         -23.6387   51.5585  -10.0023 F       1  UNL1       -0.2041
     21 C         -24.6853   50.7178   -8.0335 C.ar    1  UNL1        0.0590
     22 C         -25.8476   50.3796   -7.3334 C.ar    1  UNL1        0.1399
     23 F         -25.7304   49.8723   -6.0804 F       1  UNL1       -0.2044
     24 C         -30.3613   48.9823   -8.3459 C.3     1  UNL1        0.1207
     25 C         -30.2280   49.9212  -12.5682 C.ar    1  UNL1        0.1449
     26 C         -30.3346   48.5874  -12.1283 C.ar    1  UNL1        0.0368
     27 C         -30.4048   48.2895  -10.7687 C.ar    1  UNL1        0.0005
     28 C         -30.3592   49.3131   -9.8163 C.ar    1  UNL1       -0.0019
     29 C         -30.2907   50.6467  -10.2442 C.ar    1  UNL1        0.0069
     30 C         -30.2186   50.9671  -11.6131 C.ar    1  UNL1        0.1090
     31 C         -30.1066   52.3950  -12.0114 C.2     1  UNL1        0.3410
     32 O         -29.4132   53.2045  -11.3390 O.2     1  UNL1       -0.2450
     33 O         -30.7732   52.8585  -13.1433 O.3     1  UNL1       -0.4770
     34 H         -30.7068   53.8291  -13.4259 H       1  UNL1        0.2954
     35 C         -30.0193   49.2655  -14.9787 C.3     1  UNL1        0.2525
     36 O         -30.1226   50.2288  -13.9351 O.3     1  UNL1       -0.4712
@<TRIPOS>BOND
     1    35    36    1
     2    36    25    1
     3    25    26   ar
     4    26    27   ar
     5    27    28   ar
     6    28    24    1
     7    24     1    1
     8     1     2   am
     9     2     3    2
    10     2     4    1
    11     4     5   ar
    12     5     6   ar
    13     6     7   ar
    14     7     8   ar
    15     8     9   ar
    16     9    10   ar
    17    10    11   ar
    18    11    12   ar
    19    12    13   ar
    20     1    14    1
    21    14    15    1
    22    14    16    1
    23    16    17   ar
    24    17    18   ar
    25    18    19   ar
    26    19    20    1
    27    19    21   ar
    28    21    22   ar
    29    22    23    1
    30    28    29   ar
    31    29    30   ar
    32    30    31    1
    33    31    32    2
    34    31    33    1
    35    30    25   ar
    36    13     4   ar
    37    22    16   ar
    38    11     6   ar
    39    33    34    1
@<TRIPOS>MOLECULE
*****
 36 39 0 0 0
SMALL
GASTEIGER

@<TRIPOS>ATOM
      1 N         -28.2986   49.6188   -7.9554 N.am    1  UNL1       -0.2685
      2 C         -28.9554   50.6989   -8.6507 C.2     1  UNL1        0.2672
      3 O         -29.1487   51.7919   -8.0519 O.2     1  UNL1       -0.2682
      4 C         -29.4392   50.5377  -10.0395 C.ar    1  UNL1        0.1347
      5 C         -29.8216   49.2776  -10.5277 C.ar    1  UNL1        0.0238
      6 C         -30.2636   49.1540  -11.8515 C.ar    1  UNL1        0.0031
      7 C         -30.6590   47.9090  -12.3656 C.ar    1  UNL1        0.0001
      8 C         -31.0978   47.8048  -13.6892 C.ar    1  UNL1        0.0000
      9 C         -31.1451   48.9381  -14.5064 C.ar    1  UNL1        0.0000
     10 C         -30.7537   50.1834  -14.0056 C.ar    1  UNL1        0.0015
     11 C         -30.3119   50.2984  -12.6789 C.ar    1  UNL1        0.0192
     12 C         -29.9134   51.5330  -12.1533 C.ar    1  UNL1        0.0989
     13 N         -29.4902   51.6193  -10.8652 N.ar    1  UNL1       -0.2393
     14 C         -27.1881   48.8885   -8.6141 C.3     1  UNL1        0.1007
     15 C         -26.9178   47.5452   -7.9159 C.3     1  UNL1        0.0265
     16 C         -25.9637   49.7837   -8.7847 C.ar    1  UNL1        0.0234
     17 C         -25.0171   49.9870   -7.7553 C.ar    1  UNL1        0.0019
     18 C         -23.9431   50.8624   -7.9382 C.ar    1  UNL1        0.0295
     19 C         -23.7887   51.5415   -9.1466 C.ar    1  UNL1        0.1424
     20 F         -22.7528   52.3996   -9.3151 F       1  UNL1       -0.2041
     21 C         -24.7014   51.3364  -10.1817 C.ar    1  UNL1        0.0590
     22 C         -25.7785   50.4616  -10.0087 C.ar    1  UNL1        0.1399
     23 F         -26.6466   50.2840  -11.0363 F       1  UNL1       -0.2044
     24 C         -28.7513   49.2954   -6.5875 C.3     1  UNL1        0.1207
     25 C         -25.9497   50.7981   -3.6517 C.ar    1  UNL1        0.1449
     26 C         -26.3712   51.6051   -4.7263 C.ar    1  UNL1        0.0368
     27 C         -27.2944   51.1285   -5.6552 C.ar    1  UNL1        0.0005
     28 C         -27.8099   49.8331   -5.5405 C.ar    1  UNL1       -0.0019
     29 C         -27.4254   49.0346   -4.4538 C.ar    1  UNL1        0.0069
     30 C         -26.4939   49.4986   -3.5058 C.ar    1  UNL1        0.1090
     31 C         -26.0898   48.5967   -2.3952 C.2     1  UNL1        0.3410
     32 O         -26.8191   47.6304   -2.0451 O.2     1  UNL1       -0.2450
     33 O         -24.8890   48.8117   -1.7228 O.3     1  UNL1       -0.4770
     34 H         -24.6015   48.2059   -0.9634 H       1  UNL1        0.2954
     35 C         -24.6427   52.6241   -2.5374 C.3     1  UNL1        0.2525
     36 O         -24.9941   51.2577   -2.7297 O.3     1  UNL1       -0.4712
@<TRIPOS>BOND
     1    35    36    1
     2    36    25    1
     3    25    26   ar
     4    26    27   ar
     5    27    28   ar
     6    28    24    1
     7    24     1    1
     8     1     2   am
     9     2     3    2
    10     2     4    1
    11     4     5   ar
    12     5     6   ar
    13     6     7   ar
    14     7     8   ar
    15     8     9   ar
    16     9    10   ar
    17    10    11   ar
    18    11    12   ar
    19    12    13   ar
    20     1    14    1
    21    14    15    1
    22    14    16    1
    23    16    17   ar
    24    17    18   ar
    25    18    19   ar
    26    19    20    1
    27    19    21   ar
    28    21    22   ar
    29    22    23    1
    30    28    29   ar
    31    29    30   ar
    32    30    31    1
    33    31    32    2
    34    31    33    1
    35    30    25   ar
    36    13     4   ar
    37    22    16   ar
    38    11     6   ar
    39    33    34    1
