@<TRIPOS>MOLECULE
*****
 45 50 0 0 0
SMALL
GASTEIGER

@<TRIPOS>ATOM
      1 C         -30.7573   46.8204   -8.7571 C.ar    1  UNL1        0.1318
      2 C         -30.2234   45.6529   -8.1895 C.ar    1  UNL1        0.0356
      3 C         -30.3700   45.4225   -6.8208 C.ar    1  UNL1        0.0191
      4 C         -31.0675   46.3421   -6.0217 C.ar    1  UNL1        0.0702
      5 C         -31.5833   47.4955   -6.6265 C.ar    1  UNL1        0.1149
      6 N         -31.4277   47.6993   -7.9612 N.ar    1  UNL1       -0.2279
      7 C         -31.4312   46.6406  -12.8140 C.3     1  UNL1        0.0471
      8 C         -31.4181   48.0945  -12.3056 C.3     1  UNL1        0.0252
      9 C         -31.4957   48.1189  -10.7715 C.3     1  UNL1        0.0923
     10 N         -30.6442   47.0825  -10.1687 N.pl3   1  UNL1       -0.2932
     11 C         -29.6112   46.4355  -10.9898 C.3     1  UNL1        0.0923
     12 C         -30.2269   45.8282  -12.2613 C.3     1  UNL1        0.0252
     13 C         -31.4743   46.6041  -14.3483 C.3     1  UNL1        0.2054
     14 O         -30.1646   46.8182  -14.8707 O.3     1  UNL1       -0.4758
     15 C         -29.4237   49.4623  -15.5899 C.3     1  UNL1        0.0344
     16 C         -29.4640   48.3559  -16.6188 C.ar    1  UNL1        0.0183
     17 C         -29.8659   47.0579  -16.2225 C.ar    1  UNL1        0.1347
     18 C         -29.9599   46.0352  -17.1836 C.ar    1  UNL1        0.0366
     19 C         -29.6526   46.2884  -18.5166 C.ar    1  UNL1        0.0033
     20 C         -29.2273   47.5540  -18.9102 C.ar    1  UNL1        0.0063
     21 C         -29.1053   48.5964  -17.9750 C.ar    1  UNL1        0.0744
     22 C         -28.5923   49.9065  -18.4507 C.2     1  UNL1        0.3378
     23 O         -29.3976   50.7925  -18.8465 O.2     1  UNL1       -0.2451
     24 O         -27.2249   50.1604  -18.5097 O.3     1  UNL1       -0.4771
     25 H         -26.8744   51.0491  -18.8465 H       1  UNL1        0.2954
     26 N         -31.2192   46.1516   -4.6044 N.am    1  UNL1       -0.2766
     27 C         -30.1222   46.1396   -3.6788 C.2     1  UNL1        0.2839
     28 O         -28.9697   45.8146   -4.0721 O.2     1  UNL1       -0.2665
     29 H         -32.1655   45.8999   -4.2410 H       1  UNL1        0.1553
     30 C         -30.3294   46.4210   -2.2473 C.ar    1  UNL1        0.1946
     31 O         -30.7476   45.4989   -1.3982 O.2     1  UNL1       -0.4492
     32 C         -30.8422   46.0539   -0.2147 C.ar    1  UNL1        0.1452
     33 C         -31.2504   45.4527    0.9709 C.ar    1  UNL1        0.0375
     34 C         -31.2798   46.2412    2.1345 C.ar    1  UNL1        0.0031
     35 C         -30.9033   47.6112    2.0962 C.ar    1  UNL1        0.0002
     36 C         -30.4934   48.1837    0.8682 C.ar    1  UNL1        0.0028
     37 C         -30.4759   47.3713   -0.2660 C.ar    1  UNL1        0.0337
     38 C         -30.1204   47.6316   -1.5744 C.ar    1  UNL1        0.0202
     39 C         -29.6210   48.9325   -2.1269 C.3     1  UNL1        0.0345
     40 C         -30.9396   48.4347    3.3314 C.ar    1  UNL1        0.0000
     41 C         -31.4553   47.9054    4.5298 C.ar    1  UNL1        0.0000
     42 C         -31.4872   48.6828    5.6916 C.ar    1  UNL1        0.0000
     43 C         -31.0070   49.9941    5.6711 C.ar    1  UNL1        0.0000
     44 C         -30.4932   50.5308    4.4886 C.ar    1  UNL1        0.0000
     45 C         -30.4580   49.7578    3.3240 C.ar    1  UNL1        0.0000
@<TRIPOS>BOND
     1    15    16    1
     2    16    17   ar
     3    17    14    1
     4    14    13    1
     5    13     7    1
     6     7     8    1
     7     8     9    1
     8     9    10    1
     9    10     1    1
    10     1     2   ar
    11     2     3   ar
    12     3     4   ar
    13     4    26    1
    14    26    27   am
    15    27    28    2
    16    27    30    1
    17    30    31   ar
    18    31    32   ar
    19    32    33   ar
    20    33    34   ar
    21    34    35   ar
    22    35    40    1
    23    40    41   ar
    24    41    42   ar
    25    42    43   ar
    26    43    44   ar
    27    44    45   ar
    28    35    36   ar
    29    36    37   ar
    30    37    38   ar
    31    38    39    1
    32     4     5   ar
    33     5     6   ar
    34    10    11    1
    35    11    12    1
    36    17    18   ar
    37    18    19   ar
    38    19    20   ar
    39    20    21   ar
    40    21    22    1
    41    22    23    2
    42    22    24    1
    43    21    16   ar
    44    12     7    1
    45     6     1   ar
    46    38    30   ar
    47    37    32   ar
    48    45    40   ar
    49    26    29    1
    50    24    25    1
@<TRIPOS>MOLECULE
*****
 45 50 0 0 0
SMALL
GASTEIGER

@<TRIPOS>ATOM
      1 C         -27.3638   48.7401   -9.9577 C.ar    1  UNL1        0.1318
      2 C         -27.0325   49.9205  -10.6414 C.ar    1  UNL1        0.0356
      3 C         -25.8850   50.6277  -10.2794 C.ar    1  UNL1        0.0191
      4 C         -25.0555   50.1483   -9.2532 C.ar    1  UNL1        0.0702
      5 C         -25.4226   48.9677   -8.5948 C.ar    1  UNL1        0.1149
      6 N         -26.5451   48.2960   -8.9638 N.ar    1  UNL1       -0.2279
      7 C         -30.1236   46.6826  -12.2150 C.3     1  UNL1        0.0471
      8 C         -29.6795   45.8702  -10.9841 C.3     1  UNL1        0.0252
      9 C         -28.4306   46.5053  -10.3538 C.3     1  UNL1        0.0923
     10 N         -28.5281   47.9722  -10.3167 N.pl3   1  UNL1       -0.2932
     11 C         -29.8373   48.6096  -10.5159 C.3     1  UNL1        0.0923
     12 C         -30.4713   48.1502  -11.8393 C.3     1  UNL1        0.0252
     13 C         -31.2979   45.9927  -12.9238 C.3     1  UNL1        0.2054
     14 O         -31.5553   46.6406  -14.1679 O.3     1  UNL1       -0.4758
     15 C         -30.4626   48.6474  -15.8520 C.3     1  UNL1        0.0344
     16 C         -30.4640   47.1946  -16.2688 C.ar    1  UNL1        0.0183
     17 C         -31.0442   46.2300  -15.4107 C.ar    1  UNL1        0.1347
     18 C         -31.1000   44.8838  -15.8145 C.ar    1  UNL1        0.0366
     19 C         -30.5818   44.4938  -17.0454 C.ar    1  UNL1        0.0033
     20 C         -29.9822   45.4302  -17.8825 C.ar    1  UNL1        0.0063
     21 C         -29.8932   46.7816  -17.5054 C.ar    1  UNL1        0.0744
     22 C         -29.1910   47.7181  -18.4195 C.2     1  UNL1        0.3378
     23 O         -29.8091   48.7015  -18.9105 O.2     1  UNL1       -0.2451
     24 O         -27.8643   47.5036  -18.7822 O.3     1  UNL1       -0.4771
     25 H         -27.3892   48.1349  -19.4160 H       1  UNL1        0.2954
     26 N         -23.8782   50.8608   -8.8360 N.am    1  UNL1       -0.2766
     27 C         -22.9738   51.5084   -9.7431 C.2     1  UNL1        0.2839
     28 O         -22.8757   51.1020  -10.9322 O.2     1  UNL1       -0.2665
     29 H         -23.6062   50.8132   -7.8287 H       1  UNL1        0.1553
     30 C         -22.0876   52.5951   -9.2903 C.ar    1  UNL1        0.1946
     31 O         -21.0227   52.3734   -8.5399 O.2     1  UNL1       -0.4492
     32 C         -20.4527   53.5284   -8.2977 C.ar    1  UNL1        0.1452
     33 C         -19.3086   53.7651   -7.5436 C.ar    1  UNL1        0.0375
     34 C         -18.8689   55.0938   -7.4108 C.ar    1  UNL1        0.0031
     35 C         -19.5754   56.1606   -8.0299 C.ar    1  UNL1        0.0002
     36 C         -20.7354   55.8755   -8.7896 C.ar    1  UNL1        0.0028
     37 C         -21.1419   54.5454   -8.9002 C.ar    1  UNL1        0.0337
     38 C         -22.2010   53.9633   -9.5679 C.ar    1  UNL1        0.0202
     39 C         -23.2304   54.6643  -10.4021 C.3     1  UNL1        0.0345
     40 C         -19.1024   57.5604   -7.8817 C.ar    1  UNL1        0.0000
     41 C         -18.3788   57.9544   -6.7400 C.ar    1  UNL1        0.0000
     42 C         -17.9337   59.2729   -6.6037 C.ar    1  UNL1        0.0000
     43 C         -18.2054   60.2113   -7.6017 C.ar    1  UNL1        0.0000
     44 C         -18.9225   59.8330   -8.7388 C.ar    1  UNL1        0.0000
     45 C         -19.3693   58.5157   -8.8810 C.ar    1  UNL1        0.0000
@<TRIPOS>BOND
     1    15    16    1
     2    16    17   ar
     3    17    14    1
     4    14    13    1
     5    13     7    1
     6     7     8    1
     7     8     9    1
     8     9    10    1
     9    10     1    1
    10     1     2   ar
    11     2     3   ar
    12     3     4   ar
    13     4    26    1
    14    26    27   am
    15    27    28    2
    16    27    30    1
    17    30    31   ar
    18    31    32   ar
    19    32    33   ar
    20    33    34   ar
    21    34    35   ar
    22    35    40    1
    23    40    41   ar
    24    41    42   ar
    25    42    43   ar
    26    43    44   ar
    27    44    45   ar
    28    35    36   ar
    29    36    37   ar
    30    37    38   ar
    31    38    39    1
    32     4     5   ar
    33     5     6   ar
    34    10    11    1
    35    11    12    1
    36    17    18   ar
    37    18    19   ar
    38    19    20   ar
    39    20    21   ar
    40    21    22    1
    41    22    23    2
    42    22    24    1
    43    21    16   ar
    44    12     7    1
    45     6     1   ar
    46    38    30   ar
    47    37    32   ar
    48    45    40   ar
    49    26    29    1
    50    24    25    1
@<TRIPOS>MOLECULE
*****
 45 50 0 0 0
SMALL
GASTEIGER

@<TRIPOS>ATOM
      1 C         -21.4624   53.6134   -9.4841 C.ar    1  UNL1        0.1318
      2 C         -21.8224   52.4269   -8.8259 C.ar    1  UNL1        0.0356
      3 C         -22.8666   51.6493   -9.3288 C.ar    1  UNL1        0.0191
      4 C         -23.5368   52.0402  -10.4988 C.ar    1  UNL1        0.0702
      5 C         -23.1482   53.2318  -11.1243 C.ar    1  UNL1        0.1149
      6 N         -22.1290   53.9735  -10.6161 N.ar    1  UNL1       -0.2279
      7 C         -19.3606   56.4155   -7.3218 C.3     1  UNL1        0.0471
      8 C         -18.6365   55.0562   -7.3431 C.3     1  UNL1        0.0252
      9 C         -19.5812   53.9619   -7.8628 C.3     1  UNL1        0.0923
     10 N         -20.3768   54.4308   -9.0072 N.pl3   1  UNL1       -0.2932
     11 C         -19.9648   55.6506   -9.7160 C.3     1  UNL1        0.0923
     12 C         -19.8409   56.8324   -8.7400 C.3     1  UNL1        0.0252
     13 C         -18.4676   57.4947   -6.6932 C.3     1  UNL1        0.2054
     14 O         -19.2796   58.4756   -6.0511 O.3     1  UNL1       -0.4758
     15 C         -20.3579   60.2321   -4.0994 C.3     1  UNL1        0.0344
     16 C         -19.7671   60.7627   -5.3853 C.ar    1  UNL1        0.0183
     17 C         -19.2655   59.8498   -6.3437 C.ar    1  UNL1        0.1347
     18 C         -18.7646   60.3309   -7.5669 C.ar    1  UNL1        0.0366
     19 C         -18.7511   61.6957   -7.8367 C.ar    1  UNL1        0.0033
     20 C         -19.2144   62.6028   -6.8880 C.ar    1  UNL1        0.0063
     21 C         -19.7066   62.1602   -5.6478 C.ar    1  UNL1        0.0744
     22 C         -20.1326   63.1832   -4.6590 C.2     1  UNL1        0.3378
     23 O         -19.3501   63.5281   -3.7322 O.2     1  UNL1       -0.2451
     24 O         -21.4070   63.7408   -4.7106 O.3     1  UNL1       -0.4771
     25 H         -21.7024   64.4289   -4.0284 H       1  UNL1        0.2954
     26 N         -24.6325   51.2784  -11.0344 N.am    1  UNL1       -0.2766
     27 C         -26.0026   51.7026  -10.9779 C.2     1  UNL1        0.2839
     28 O         -26.3818   52.4880  -10.0680 O.2     1  UNL1       -0.2665
     29 H         -24.4354   50.3150  -11.3864 H       1  UNL1        0.1553
     30 C         -27.0048   51.1713  -11.9185 C.ar    1  UNL1        0.1946
     31 O         -28.1120   50.5761  -11.5111 O.2     1  UNL1       -0.4492
     32 C         -28.7866   50.2092  -12.5731 C.ar    1  UNL1        0.1452
     33 C         -30.0075   49.5446  -12.6114 C.ar    1  UNL1        0.0375
     34 C         -30.5560   49.2441  -13.8705 C.ar    1  UNL1        0.0031
     35 C         -29.8800   49.6099  -15.0661 C.ar    1  UNL1        0.0002
     36 C         -28.6393   50.2862  -14.9820 C.ar    1  UNL1        0.0028
     37 C         -28.1255   50.5685  -13.7160 C.ar    1  UNL1        0.0337
     38 C         -26.9707   51.2123  -13.3182 C.ar    1  UNL1        0.0202
     39 C         -25.9273   51.8160  -14.2092 C.3     1  UNL1        0.0345
     40 C         -30.4684   49.2861  -16.3905 C.ar    1  UNL1        0.0000
     41 C         -30.9782   48.0001  -16.6523 C.ar    1  UNL1        0.0000
     42 C         -31.5326   47.6985  -17.9000 C.ar    1  UNL1        0.0000
     43 C         -31.5840   48.6735  -18.8986 C.ar    1  UNL1        0.0000
     44 C         -31.0813   49.9528  -18.6515 C.ar    1  UNL1        0.0000
     45 C         -30.5266   50.2604  -17.4054 C.ar    1  UNL1        0.0000
@<TRIPOS>BOND
     1    15    16    1
     2    16    17   ar
     3    17    14    1
     4    14    13    1
     5    13     7    1
     6     7     8    1
     7     8     9    1
     8     9    10    1
     9    10     1    1
    10     1     2   ar
    11     2     3   ar
    12     3     4   ar
    13     4    26    1
    14    26    27   am
    15    27    28    2
    16    27    30    1
    17    30    31   ar
    18    31    32   ar
    19    32    33   ar
    20    33    34   ar
    21    34    35   ar
    22    35    40    1
    23    40    41   ar
    24    41    42   ar
    25    42    43   ar
    26    43    44   ar
    27    44    45   ar
    28    35    36   ar
    29    36    37   ar
    30    37    38   ar
    31    38    39    1
    32     4     5   ar
    33     5     6   ar
    34    10    11    1
    35    11    12    1
    36    17    18   ar
    37    18    19   ar
    38    19    20   ar
    39    20    21   ar
    40    21    22    1
    41    22    23    2
    42    22    24    1
    43    21    16   ar
    44    12     7    1
    45     6     1   ar
    46    38    30   ar
    47    37    32   ar
    48    45    40   ar
    49    26    29    1
    50    24    25    1
@<TRIPOS>MOLECULE
*****
 45 50 0 0 0
SMALL
GASTEIGER

@<TRIPOS>ATOM
      1 C         -29.6070   46.7004   -4.4102 C.ar    1  UNL1        0.1318
      2 C         -30.2000   45.5535   -4.9611 C.ar    1  UNL1        0.0356
      3 C         -30.4287   45.4887   -6.3364 C.ar    1  UNL1        0.0191
      4 C         -30.0466   46.5551   -7.1658 C.ar    1  UNL1        0.0702
      5 C         -29.4597   47.6821   -6.5764 C.ar    1  UNL1        0.1149
      6 N         -29.2473   47.7233   -5.2346 N.ar    1  UNL1       -0.2279
      7 C         -30.1353   46.5720   -0.3298 C.3     1  UNL1        0.0471
      8 C         -28.8635   45.8174   -0.7607 C.3     1  UNL1        0.0252
      9 C         -28.8671   45.6003   -2.2815 C.3     1  UNL1        0.0923
     10 N         -29.3362   46.7952   -2.9989 N.pl3   1  UNL1       -0.2932
     11 C         -29.3901   48.0821   -2.2911 C.3     1  UNL1        0.0923
     12 C         -30.2349   47.9652   -1.0115 C.3     1  UNL1        0.0252
     13 C         -30.2022   46.6907    1.1995 C.3     1  UNL1        0.2054
     14 O         -31.3628   47.4305    1.5732 O.3     1  UNL1       -0.4758
     15 C         -30.9742   47.8893    4.3474 C.3     1  UNL1        0.0344
     16 C         -31.1411   49.0401    3.3819 C.ar    1  UNL1        0.0183
     17 C         -31.3605   48.7657    2.0108 C.ar    1  UNL1        0.1347
     18 C         -31.5723   49.8284    1.1140 C.ar    1  UNL1        0.0366
     19 C         -31.5588   51.1450    1.5635 C.ar    1  UNL1        0.0033
     20 C         -31.3138   51.4258    2.9045 C.ar    1  UNL1        0.0063
     21 C         -31.0812   50.3907    3.8268 C.ar    1  UNL1        0.0744
     22 C         -30.7702   50.7617    5.2309 C.2     1  UNL1        0.3378
     23 O         -29.8162   50.1999    5.8345 O.2     1  UNL1       -0.2451
     24 O         -31.5467   51.6941    5.9131 O.3     1  UNL1       -0.4771
     25 H         -31.3428   51.9376    6.8749 H       1  UNL1        0.2954
     26 N         -30.2868   46.5355   -8.5835 N.am    1  UNL1       -0.2766
     27 C         -30.8164   47.6486   -9.3187 C.2     1  UNL1        0.2839
     28 O         -31.5364   48.5033   -8.7358 O.2     1  UNL1       -0.2665
     29 H         -30.1729   45.6284   -9.0886 H       1  UNL1        0.1553
     30 C         -30.6049   47.7728  -10.7717 C.ar    1  UNL1        0.1946
     31 O         -30.6399   46.7306  -11.5834 O.2     1  UNL1       -0.4492
     32 C         -30.4076   47.1592  -12.8000 C.ar    1  UNL1        0.1452
     33 C         -30.3458   46.4032  -13.9654 C.ar    1  UNL1        0.0375
     34 C         -30.0796   47.0725  -15.1728 C.ar    1  UNL1        0.0031
     35 C         -29.8797   48.4795  -15.1974 C.ar    1  UNL1        0.0002
     36 C         -29.9518   49.2115  -13.9879 C.ar    1  UNL1        0.0028
     37 C         -30.2185   48.5144  -12.8091 C.ar    1  UNL1        0.0337
     38 C         -30.3592   48.9415  -11.5037 C.ar    1  UNL1        0.0202
     39 C         -30.2673   50.3524  -11.0061 C.3     1  UNL1        0.0345
     40 C         -29.5978   49.1756  -16.4785 C.ar    1  UNL1        0.0000
     41 C         -30.6522   49.6222  -17.2977 C.ar    1  UNL1        0.0000
     42 C         -30.3837   50.2783  -18.5029 C.ar    1  UNL1        0.0000
     43 C         -29.0637   50.4952  -18.9041 C.ar    1  UNL1        0.0000
     44 C         -28.0090   50.0568  -18.1005 C.ar    1  UNL1        0.0000
     45 C         -28.2715   49.4010  -16.8938 C.ar    1  UNL1        0.0000
@<TRIPOS>BOND
     1    15    16    1
     2    16    17   ar
     3    17    14    1
     4    14    13    1
     5    13     7    1
     6     7     8    1
     7     8     9    1
     8     9    10    1
     9    10     1    1
    10     1     2   ar
    11     2     3   ar
    12     3     4   ar
    13     4    26    1
    14    26    27   am
    15    27    28    2
    16    27    30    1
    17    30    31   ar
    18    31    32   ar
    19    32    33   ar
    20    33    34   ar
    21    34    35   ar
    22    35    40    1
    23    40    41   ar
    24    41    42   ar
    25    42    43   ar
    26    43    44   ar
    27    44    45   ar
    28    35    36   ar
    29    36    37   ar
    30    37    38   ar
    31    38    39    1
    32     4     5   ar
    33     5     6   ar
    34    10    11    1
    35    11    12    1
    36    17    18   ar
    37    18    19   ar
    38    19    20   ar
    39    20    21   ar
    40    21    22    1
    41    22    23    2
    42    22    24    1
    43    21    16   ar
    44    12     7    1
    45     6     1   ar
    46    38    30   ar
    47    37    32   ar
    48    45    40   ar
    49    26    29    1
    50    24    25    1
@<TRIPOS>MOLECULE
*****
 45 50 0 0 0
SMALL
GASTEIGER

@<TRIPOS>ATOM
      1 C         -25.4667   49.9228   -9.3605 C.ar    1  UNL1        0.1318
      2 C         -24.9479   50.7095  -10.4010 C.ar    1  UNL1        0.0356
      3 C         -23.8755   51.5662  -10.1483 C.ar    1  UNL1        0.0191
      4 C         -23.3051   51.6231   -8.8668 C.ar    1  UNL1        0.0702
      5 C         -23.8535   50.8234   -7.8559 C.ar    1  UNL1        0.1149
      6 N         -24.8985   49.9971   -8.1249 N.ar    1  UNL1       -0.2279
      7 C         -28.9835   47.8526   -8.8200 C.3     1  UNL1        0.0471
      8 C         -28.9022   48.4742  -10.2270 C.3     1  UNL1        0.0252
      9 C         -27.7575   49.4970  -10.2879 C.3     1  UNL1        0.0923
     10 N         -26.5588   49.0118   -9.5878 N.pl3   1  UNL1       -0.2932
     11 C         -26.4498   47.5841   -9.2566 C.3     1  UNL1        0.0923
     12 C         -27.6667   47.1199   -8.4392 C.3     1  UNL1        0.0252
     13 C         -30.1964   46.9177   -8.7106 C.3     1  UNL1        0.2054
     14 O         -31.0694   47.3822   -7.6830 O.3     1  UNL1       -0.4758
     15 C         -31.2948   50.2102   -7.5870 C.3     1  UNL1        0.0344
     16 C         -30.7778   49.4279   -6.4017 C.ar    1  UNL1        0.0183
     17 C         -30.6553   48.0213   -6.5022 C.ar    1  UNL1        0.1347
     18 C         -30.1231   47.2908   -5.4245 C.ar    1  UNL1        0.0366
     19 C         -29.7254   47.9393   -4.2597 C.ar    1  UNL1        0.0033
     20 C         -29.8702   49.3185   -4.1403 C.ar    1  UNL1        0.0063
     21 C         -30.4136   50.0795   -5.1900 C.ar    1  UNL1        0.0744
     22 C         -30.5930   51.5383   -4.9762 C.2     1  UNL1        0.3378
     23 O         -31.5820   51.9618   -4.3186 O.2     1  UNL1       -0.2451
     24 O         -29.7060   52.4568   -5.5307 O.3     1  UNL1       -0.4771
     25 H         -29.8356   53.4523   -5.3961 H       1  UNL1        0.2954
     26 N         -22.2151   52.5101   -8.5618 N.am    1  UNL1       -0.2766
     27 C         -21.7140   53.5011   -9.4712 C.2     1  UNL1        0.2839
     28 O         -21.8523   53.3429  -10.7139 O.2     1  UNL1       -0.2665
     29 H         -21.6880   52.3535   -7.6738 H       1  UNL1        0.1553
     30 C         -20.9608   54.6707   -8.9852 C.ar    1  UNL1        0.1946
     31 O         -19.9475   54.5602   -8.1443 O.2     1  UNL1       -0.4492
     32 C         -19.4964   55.7654   -7.8960 C.ar    1  UNL1        0.1452
     33 C         -18.4423   56.1182   -7.0605 C.ar    1  UNL1        0.0375
     34 C         -18.1260   57.4825   -6.9375 C.ar    1  UNL1        0.0031
     35 C         -18.8638   58.4686   -7.6470 C.ar    1  UNL1        0.0002
     36 C         -19.9292   58.0660   -8.4877 C.ar    1  UNL1        0.0028
     37 C         -20.2145   56.7038   -8.5860 C.ar    1  UNL1        0.0337
     38 C         -21.1629   56.0165   -9.3169 C.ar    1  UNL1        0.0202
     39 C         -22.1735   56.6052  -10.2544 C.3     1  UNL1        0.0345
     40 C         -18.5215   59.9069   -7.5083 C.ar    1  UNL1        0.0000
     41 C         -17.2850   60.3963   -7.9709 C.ar    1  UNL1        0.0000
     42 C         -16.9659   61.7514   -7.8399 C.ar    1  UNL1        0.0000
     43 C         -17.8738   62.6313   -7.2468 C.ar    1  UNL1        0.0000
     44 C         -19.1035   62.1581   -6.7837 C.ar    1  UNL1        0.0000
     45 C         -19.4284   60.8043   -6.9128 C.ar    1  UNL1        0.0000
@<TRIPOS>BOND
     1    15    16    1
     2    16    17   ar
     3    17    14    1
     4    14    13    1
     5    13     7    1
     6     7     8    1
     7     8     9    1
     8     9    10    1
     9    10     1    1
    10     1     2   ar
    11     2     3   ar
    12     3     4   ar
    13     4    26    1
    14    26    27   am
    15    27    28    2
    16    27    30    1
    17    30    31   ar
    18    31    32   ar
    19    32    33   ar
    20    33    34   ar
    21    34    35   ar
    22    35    40    1
    23    40    41   ar
    24    41    42   ar
    25    42    43   ar
    26    43    44   ar
    27    44    45   ar
    28    35    36   ar
    29    36    37   ar
    30    37    38   ar
    31    38    39    1
    32     4     5   ar
    33     5     6   ar
    34    10    11    1
    35    11    12    1
    36    17    18   ar
    37    18    19   ar
    38    19    20   ar
    39    20    21   ar
    40    21    22    1
    41    22    23    2
    42    22    24    1
    43    21    16   ar
    44    12     7    1
    45     6     1   ar
    46    38    30   ar
    47    37    32   ar
    48    45    40   ar
    49    26    29    1
    50    24    25    1
@<TRIPOS>MOLECULE
*****
 45 50 0 0 0
SMALL
GASTEIGER

@<TRIPOS>ATOM
      1 C         -30.0321   49.0610   -9.1079 C.ar    1  UNL1        0.1318
      2 C         -29.4857   47.8847   -8.5710 C.ar    1  UNL1        0.0356
      3 C         -29.6730   47.5922   -7.2192 C.ar    1  UNL1        0.0191
      4 C         -30.4231   48.4580   -6.4077 C.ar    1  UNL1        0.0702
      5 C         -30.9497   49.6222   -6.9817 C.ar    1  UNL1        0.1149
      6 N         -30.7538   49.8870   -8.3002 N.ar    1  UNL1       -0.2279
      7 C         -30.9488   49.8900  -13.0344 C.3     1  UNL1        0.0471
      8 C         -29.9881   50.9387  -12.4431 C.3     1  UNL1        0.0252
      9 C         -29.9261   50.7969  -10.9147 C.3     1  UNL1        0.0923
     10 N         -29.8778   49.3861  -10.5024 N.pl3   1  UNL1       -0.2932
     11 C         -29.5427   48.3586  -11.4982 C.3     1  UNL1        0.0923
     12 C         -30.4899   48.4416  -12.7067 C.3     1  UNL1        0.0252
     13 C         -31.1118   50.0972  -14.5469 C.3     1  UNL1        0.2054
     14 O         -30.4008   49.0803  -15.2501 O.3     1  UNL1       -0.4758
     15 C         -27.7497   50.0907  -15.1611 C.3     1  UNL1        0.0344
     16 C         -28.4058   49.7357  -16.4756 C.ar    1  UNL1        0.0183
     17 C         -29.7393   49.2612  -16.4765 C.ar    1  UNL1        0.1347
     18 C         -30.3770   48.9811  -17.6985 C.ar    1  UNL1        0.0366
     19 C         -29.7041   49.1585  -18.9031 C.ar    1  UNL1        0.0033
     20 C         -28.3827   49.5958  -18.9106 C.ar    1  UNL1        0.0063
     21 C         -27.7074   49.8697  -17.7085 C.ar    1  UNL1        0.0744
     22 C         -26.2815   50.2783  -17.7845 C.2     1  UNL1        0.3378
     23 O         -25.6494   50.1609  -18.8692 O.2     1  UNL1       -0.2451
     24 O         -25.6121   50.7511  -16.6593 O.3     1  UNL1       -0.4771
     25 H         -24.6360   51.0175  -16.7078 H       1  UNL1        0.2954
     26 N         -30.6182   48.2030   -5.0059 N.am    1  UNL1       -0.2766
     27 C         -29.6367   48.4893   -3.9985 C.2     1  UNL1        0.2839
     28 O         -28.4135   48.5187   -4.3010 O.2     1  UNL1       -0.2665
     29 H         -31.4755   47.6816   -4.7161 H       1  UNL1        0.1553
     30 C         -30.0223   48.6698   -2.5877 C.ar    1  UNL1        0.1946
     31 O         -30.6716   49.7395   -2.1630 O.2     1  UNL1       -0.4492
     32 C         -30.8586   49.6115   -0.8722 C.ar    1  UNL1        0.1452
     33 C         -31.4931   50.5057   -0.0169 C.ar    1  UNL1        0.0375
     34 C         -31.5818   50.1667    1.3446 C.ar    1  UNL1        0.0031
     35 C         -31.0377   48.9460    1.8287 C.ar    1  UNL1        0.0002
     36 C         -30.4004   48.0637    0.9236 C.ar    1  UNL1        0.0028
     37 C         -30.3315   48.4324   -0.4202 C.ar    1  UNL1        0.0337
     38 C         -29.7965   47.7918   -1.5201 C.ar    1  UNL1        0.0202
     39 C         -29.1284   46.4501   -1.5402 C.3     1  UNL1        0.0345
     40 C         -31.1361   48.5991    3.2692 C.ar    1  UNL1        0.0000
     41 C         -31.4840   47.2948    3.6692 C.ar    1  UNL1        0.0000
     42 C         -31.5748   46.9707    5.0264 C.ar    1  UNL1        0.0000
     43 C         -31.3211   47.9418    5.9976 C.ar    1  UNL1        0.0000
     44 C         -30.9754   49.2392    5.6136 C.ar    1  UNL1        0.0000
     45 C         -30.8822   49.5688    4.2580 C.ar    1  UNL1        0.0000
@<TRIPOS>BOND
     1    15    16    1
     2    16    17   ar
     3    17    14    1
     4    14    13    1
     5    13     7    1
     6     7     8    1
     7     8     9    1
     8     9    10    1
     9    10     1    1
    10     1     2   ar
    11     2     3   ar
    12     3     4   ar
    13     4    26    1
    14    26    27   am
    15    27    28    2
    16    27    30    1
    17    30    31   ar
    18    31    32   ar
    19    32    33   ar
    20    33    34   ar
    21    34    35   ar
    22    35    40    1
    23    40    41   ar
    24    41    42   ar
    25    42    43   ar
    26    43    44   ar
    27    44    45   ar
    28    35    36   ar
    29    36    37   ar
    30    37    38   ar
    31    38    39    1
    32     4     5   ar
    33     5     6   ar
    34    10    11    1
    35    11    12    1
    36    17    18   ar
    37    18    19   ar
    38    19    20   ar
    39    20    21   ar
    40    21    22    1
    41    22    23    2
    42    22    24    1
    43    21    16   ar
    44    12     7    1
    45     6     1   ar
    46    38    30   ar
    47    37    32   ar
    48    45    40   ar
    49    26    29    1
    50    24    25    1
@<TRIPOS>MOLECULE
*****
 45 50 0 0 0
SMALL
GASTEIGER

@<TRIPOS>ATOM
      1 C         -25.8314   49.5935   -9.2479 C.ar    1  UNL1        0.1318
      2 C         -25.3311   50.3585  -10.3133 C.ar    1  UNL1        0.0356
      3 C         -24.2382   51.2008  -10.1034 C.ar    1  UNL1        0.0191
      4 C         -23.6291   51.2643   -8.8401 C.ar    1  UNL1        0.0702
      5 C         -24.1600   50.4863   -7.8033 C.ar    1  UNL1        0.1149
      6 N         -25.2256   49.6738   -8.0306 N.ar    1  UNL1       -0.2279
      7 C         -28.6526   47.2159  -11.0737 C.3     1  UNL1        0.0471
      8 C         -27.9424   46.4733   -9.9262 C.3     1  UNL1        0.0252
      9 C         -26.6914   47.2500   -9.4880 C.3     1  UNL1        0.0923
     10 N         -26.9440   48.6976   -9.4312 N.pl3   1  UNL1       -0.2932
     11 C         -28.3307   49.1846   -9.4295 C.3     1  UNL1        0.0923
     12 C         -29.1005   48.6411  -10.6447 C.3     1  UNL1        0.0252
     13 C         -29.8359   46.3920  -11.6010 C.3     1  UNL1        0.2054
     14 O         -30.5966   47.1764  -12.5174 O.3     1  UNL1       -0.4758
     15 C         -30.3823   49.6522  -13.8892 C.3     1  UNL1        0.0344
     16 C         -30.3323   48.3393  -14.6363 C.ar    1  UNL1        0.0183
     17 C         -30.4709   47.1287  -13.9160 C.ar    1  UNL1        0.1347
     18 C         -30.4813   45.9046  -14.6088 C.ar    1  UNL1        0.0366
     19 C         -30.3477   45.8756  -15.9933 C.ar    1  UNL1        0.0033
     20 C         -30.1805   47.0590  -16.7068 C.ar    1  UNL1        0.0063
     21 C         -30.1483   48.2999  -16.0470 C.ar    1  UNL1        0.0744
     22 C         -29.9102   49.5190  -16.8611 C.2     1  UNL1        0.3378
     23 O         -28.7697   50.0568  -16.8719 O.2     1  UNL1       -0.2451
     24 O         -30.9431   50.1094  -17.5838 O.3     1  UNL1       -0.4771
     25 H         -30.7841   50.9484  -18.1287 H       1  UNL1        0.2954
     26 N         -22.5166   52.1371   -8.5788 N.am    1  UNL1       -0.2766
     27 C         -22.0522   53.1357   -9.4993 C.2     1  UNL1        0.2839
     28 O         -22.2542   52.9956  -10.7354 O.2     1  UNL1       -0.2665
     29 H         -21.9471   51.9637   -7.7205 H       1  UNL1        0.1553
     30 C         -21.2641   54.2917   -9.0366 C.ar    1  UNL1        0.1946
     31 O         -20.1848   54.1575   -8.2862 O.2     1  UNL1       -0.4492
     32 C         -19.7175   55.3557   -8.0342 C.ar    1  UNL1        0.1452
     33 C         -18.5990   55.6849   -7.2764 C.ar    1  UNL1        0.0375
     34 C         -18.2766   57.0458   -7.1327 C.ar    1  UNL1        0.0031
     35 C         -19.0725   58.0519   -7.7446 C.ar    1  UNL1        0.0002
     36 C         -20.2026   57.6731   -8.5083 C.ar    1  UNL1        0.0028
     37 C         -20.4919   56.3137   -8.6299 C.ar    1  UNL1        0.0337
     38 C         -21.4958   55.6470   -9.3038 C.ar    1  UNL1        0.0202
     39 C         -22.5814   56.2624  -10.1341 C.3     1  UNL1        0.0345
     40 C         -18.7231   59.4863   -7.5848 C.ar    1  UNL1        0.0000
     41 C         -17.4929   59.9806   -8.0587 C.ar    1  UNL1        0.0000
     42 C         -17.1671   61.3320   -7.9078 C.ar    1  UNL1        0.0000
     43 C         -18.0620   62.2034   -7.2833 C.ar    1  UNL1        0.0000
     44 C         -19.2853   61.7254   -6.8086 C.ar    1  UNL1        0.0000
     45 C         -19.6169   60.3752   -6.9575 C.ar    1  UNL1        0.0000
@<TRIPOS>BOND
     1    15    16    1
     2    16    17   ar
     3    17    14    1
     4    14    13    1
     5    13     7    1
     6     7     8    1
     7     8     9    1
     8     9    10    1
     9    10     1    1
    10     1     2   ar
    11     2     3   ar
    12     3     4   ar
    13     4    26    1
    14    26    27   am
    15    27    28    2
    16    27    30    1
    17    30    31   ar
    18    31    32   ar
    19    32    33   ar
    20    33    34   ar
    21    34    35   ar
    22    35    40    1
    23    40    41   ar
    24    41    42   ar
    25    42    43   ar
    26    43    44   ar
    27    44    45   ar
    28    35    36   ar
    29    36    37   ar
    30    37    38   ar
    31    38    39    1
    32     4     5   ar
    33     5     6   ar
    34    10    11    1
    35    11    12    1
    36    17    18   ar
    37    18    19   ar
    38    19    20   ar
    39    20    21   ar
    40    21    22    1
    41    22    23    2
    42    22    24    1
    43    21    16   ar
    44    12     7    1
    45     6     1   ar
    46    38    30   ar
    47    37    32   ar
    48    45    40   ar
    49    26    29    1
    50    24    25    1
@<TRIPOS>MOLECULE
*****
 45 50 0 0 0
SMALL
GASTEIGER

@<TRIPOS>ATOM
      1 C         -25.6446   49.9337   -9.5214 C.ar    1  UNL1        0.1318
      2 C         -25.0874   50.7269  -10.5368 C.ar    1  UNL1        0.0356
      3 C         -24.0089   51.5631  -10.2446 C.ar    1  UNL1        0.0191
      4 C         -23.4704   51.5927   -8.9484 C.ar    1  UNL1        0.0702
      5 C         -24.0566   50.7874   -7.9635 C.ar    1  UNL1        0.1149
      6 N         -25.1069   49.9814   -8.2708 N.ar    1  UNL1       -0.2279
      7 C         -29.1884   47.8856   -9.0836 C.3     1  UNL1        0.0471
      8 C         -29.0873   48.5538  -10.4676 C.3     1  UNL1        0.0252
      9 C         -27.9311   49.5653  -10.4833 C.3     1  UNL1        0.0923
     10 N         -26.7442   49.0432   -9.7895 N.pl3   1  UNL1       -0.2932
     11 C         -26.6538   47.6039   -9.5064 C.3     1  UNL1        0.0923
     12 C         -27.8833   47.1257   -8.7162 C.3     1  UNL1        0.0252
     13 C         -30.4124   46.9611   -9.0171 C.3     1  UNL1        0.2054
     14 O         -31.3106   47.4252   -8.0112 O.3     1  UNL1       -0.4758
     15 C         -30.5022   46.7463   -5.3763 C.3     1  UNL1        0.0344
     16 C         -30.6163   48.1896   -5.8100 C.ar    1  UNL1        0.0183
     17 C         -31.0498   48.4838   -7.1249 C.ar    1  UNL1        0.1347
     18 C         -31.2123   49.8239   -7.5201 C.ar    1  UNL1        0.0366
     19 C         -30.9419   50.8599   -6.6316 C.ar    1  UNL1        0.0033
     20 C         -30.4861   50.5807   -5.3465 C.ar    1  UNL1        0.0063
     21 C         -30.2958   49.2543   -4.9216 C.ar    1  UNL1        0.0744
     22 C         -29.7537   49.0276   -3.5576 C.2     1  UNL1        0.3378
     23 O         -30.4936   49.1926   -2.5499 O.2     1  UNL1       -0.2451
     24 O         -28.4202   48.6763   -3.3673 O.3     1  UNL1       -0.4771
     25 H         -28.0469   48.5344   -2.4364 H       1  UNL1        0.2954
     26 N         -22.3752   52.4581   -8.6030 N.am    1  UNL1       -0.2766
     27 C         -21.7668   53.3802   -9.5194 C.2     1  UNL1        0.2839
     28 O         -21.8125   53.1586  -10.7593 O.2     1  UNL1       -0.2665
     29 H         -21.9261   52.3331   -7.6683 H       1  UNL1        0.1553
     30 C         -21.0106   54.5489   -9.0359 C.ar    1  UNL1        0.1946
     31 O         -19.9830   54.4356   -8.2129 O.2     1  UNL1       -0.4492
     32 C         -19.5330   55.6406   -7.9616 C.ar    1  UNL1        0.1452
     33 C         -18.4667   55.9908   -7.1406 C.ar    1  UNL1        0.0375
     34 C         -18.1541   57.3554   -7.0111 C.ar    1  UNL1        0.0031
     35 C         -18.9078   58.3443   -7.6998 C.ar    1  UNL1        0.0002
     36 C         -19.9853   57.9443   -8.5262 C.ar    1  UNL1        0.0028
     37 C         -20.2663   56.5818   -8.6315 C.ar    1  UNL1        0.0337
     38 C         -21.2238   55.8966   -9.3525 C.ar    1  UNL1        0.0202
     39 C         -22.2523   56.4888  -10.2681 C.3     1  UNL1        0.0345
     40 C         -18.5693   59.7829   -7.5544 C.ar    1  UNL1        0.0000
     41 C         -17.3143   60.2684   -7.9687 C.ar    1  UNL1        0.0000
     42 C         -16.9988   61.6237   -7.8314 C.ar    1  UNL1        0.0000
     43 C         -17.9288   62.5077   -7.2801 C.ar    1  UNL1        0.0000
     44 C         -19.1770   62.0384   -6.8651 C.ar    1  UNL1        0.0000
     45 C         -19.4984   60.6844   -7.0007 C.ar    1  UNL1        0.0000
@<TRIPOS>BOND
     1    15    16    1
     2    16    17   ar
     3    17    14    1
     4    14    13    1
     5    13     7    1
     6     7     8    1
     7     8     9    1
     8     9    10    1
     9    10     1    1
    10     1     2   ar
    11     2     3   ar
    12     3     4   ar
    13     4    26    1
    14    26    27   am
    15    27    28    2
    16    27    30    1
    17    30    31   ar
    18    31    32   ar
    19    32    33   ar
    20    33    34   ar
    21    34    35   ar
    22    35    40    1
    23    40    41   ar
    24    41    42   ar
    25    42    43   ar
    26    43    44   ar
    27    44    45   ar
    28    35    36   ar
    29    36    37   ar
    30    37    38   ar
    31    38    39    1
    32     4     5   ar
    33     5     6   ar
    34    10    11    1
    35    11    12    1
    36    17    18   ar
    37    18    19   ar
    38    19    20   ar
    39    20    21   ar
    40    21    22    1
    41    22    23    2
    42    22    24    1
    43    21    16   ar
    44    12     7    1
    45     6     1   ar
    46    38    30   ar
    47    37    32   ar
    48    45    40   ar
    49    26    29    1
    50    24    25    1
@<TRIPOS>MOLECULE
*****
 45 50 0 0 0
SMALL
GASTEIGER

@<TRIPOS>ATOM
      1 C         -25.5322   49.9140   -9.3421 C.ar    1  UNL1        0.1318
      2 C         -24.9752   50.6505  -10.3994 C.ar    1  UNL1        0.0356
      3 C         -23.8960   51.5007  -10.1538 C.ar    1  UNL1        0.0191
      4 C         -23.3568   51.6005   -8.8614 C.ar    1  UNL1        0.0702
      5 C         -23.9428   50.8503   -7.8338 C.ar    1  UNL1        0.1149
      6 N         -24.9937   50.0294   -8.0963 N.ar    1  UNL1       -0.2279
      7 C         -28.8839   47.6260   -8.6522 C.3     1  UNL1        0.0471
      8 C         -29.0397   48.4929   -9.9157 C.3     1  UNL1        0.0252
      9 C         -27.9356   49.5600   -9.9644 C.3     1  UNL1        0.0923
     10 N         -26.6325   49.0109   -9.5607 N.pl3   1  UNL1       -0.2932
     11 C         -26.4498   47.5532   -9.5193 C.3     1  UNL1        0.0923
     12 C         -27.5119   46.8961   -8.6223 C.3     1  UNL1        0.0252
     13 C         -30.0489   46.6335   -8.5297 C.3     1  UNL1        0.2054
     14 O         -30.5691   46.6653   -7.2021 O.3     1  UNL1       -0.4758
     15 C         -30.0331   48.3226   -4.9608 C.3     1  UNL1        0.0344
     16 C         -29.7068   46.8470   -4.9361 C.ar    1  UNL1        0.0183
     17 C         -29.9649   46.0628   -6.0858 C.ar    1  UNL1        0.1347
     18 C         -29.6134   44.7009   -6.0919 C.ar    1  UNL1        0.0366
     19 C         -29.0231   44.1189   -4.9746 C.ar    1  UNL1        0.0033
     20 C         -28.7932   44.8751   -3.8288 C.ar    1  UNL1        0.0063
     21 C         -29.1465   46.2348   -3.7798 C.ar    1  UNL1        0.0744
     22 C         -28.9260   46.9695   -2.5080 C.2     1  UNL1        0.3378
     23 O         -29.9073   47.2688   -1.7749 O.2     1  UNL1       -0.2451
     24 O         -27.6498   47.3759   -2.1289 O.3     1  UNL1       -0.4771
     25 H         -27.5008   47.8885   -1.2680 H       1  UNL1        0.2954
     26 N         -22.2608   52.4827   -8.5641 N.am    1  UNL1       -0.2766
     27 C         -21.7541   53.4633   -9.4817 C.2     1  UNL1        0.2839
     28 O         -21.8944   53.2963  -10.7231 O.2     1  UNL1       -0.2665
     29 H         -21.7340   52.3298   -7.6753 H       1  UNL1        0.1553
     30 C         -20.9930   54.6318   -9.0055 C.ar    1  UNL1        0.1946
     31 O         -19.9622   54.5188   -8.1864 O.2     1  UNL1       -0.4492
     32 C         -19.5081   55.7235   -7.9414 C.ar    1  UNL1        0.1452
     33 C         -18.4375   56.0740   -7.1261 C.ar    1  UNL1        0.0375
     34 C         -18.1209   57.4382   -7.0028 C.ar    1  UNL1        0.0031
     35 C         -18.8750   58.4266   -7.6919 C.ar    1  UNL1        0.0002
     36 C         -19.9569   58.0264   -8.5123 C.ar    1  UNL1        0.0028
     37 C         -20.2418   56.6642   -8.6115 C.ar    1  UNL1        0.0337
     38 C         -21.2041   55.9788   -9.3261 C.ar    1  UNL1        0.0202
     39 C         -22.2349   56.5705  -10.2395 C.3     1  UNL1        0.0345
     40 C         -18.5322   59.8648   -7.5530 C.ar    1  UNL1        0.0000
     41 C         -19.4472   60.7663   -6.9765 C.ar    1  UNL1        0.0000
     42 C         -19.1213   62.1198   -6.8461 C.ar    1  UNL1        0.0000
     43 C         -17.8824   62.5884   -7.2887 C.ar    1  UNL1        0.0000
     44 C         -16.9662   61.7043   -7.8626 C.ar    1  UNL1        0.0000
     45 C         -17.2863   60.3496   -7.9948 C.ar    1  UNL1        0.0000
@<TRIPOS>BOND
     1    15    16    1
     2    16    17   ar
     3    17    14    1
     4    14    13    1
     5    13     7    1
     6     7     8    1
     7     8     9    1
     8     9    10    1
     9    10     1    1
    10     1     2   ar
    11     2     3   ar
    12     3     4   ar
    13     4    26    1
    14    26    27   am
    15    27    28    2
    16    27    30    1
    17    30    31   ar
    18    31    32   ar
    19    32    33   ar
    20    33    34   ar
    21    34    35   ar
    22    35    40    1
    23    40    41   ar
    24    41    42   ar
    25    42    43   ar
    26    43    44   ar
    27    44    45   ar
    28    35    36   ar
    29    36    37   ar
    30    37    38   ar
    31    38    39    1
    32     4     5   ar
    33     5     6   ar
    34    10    11    1
    35    11    12    1
    36    17    18   ar
    37    18    19   ar
    38    19    20   ar
    39    20    21   ar
    40    21    22    1
    41    22    23    2
    42    22    24    1
    43    21    16   ar
    44    12     7    1
    45     6     1   ar
    46    38    30   ar
    47    37    32   ar
    48    45    40   ar
    49    26    29    1
    50    24    25    1
