@<TRIPOS>MOLECULE
*****
 50 55 0 0 0
SMALL
GASTEIGER

@<TRIPOS>ATOM
      1 O         -60.8371  -48.0398  -24.2231 O.2     1  UNL1       -0.2701
      2 C         -61.9378  -47.4303  -24.3154 C.2     1  UNL1        0.2483
      3 N         -62.9788  -47.9602  -25.1517 N.am    1  UNL1       -0.2945
      4 H         -63.8037  -47.3570  -25.3695 H       1  UNL1        0.1501
      5 C         -62.1239  -46.1571  -23.5844 C.ar    1  UNL1        0.0808
      6 C         -62.4217  -46.1831  -22.2126 C.ar    1  UNL1        0.0080
      7 C         -62.5958  -44.9944  -21.5000 C.ar    1  UNL1        0.0148
      8 C         -62.4855  -43.7504  -22.1454 C.ar    1  UNL1        0.0502
      9 C         -62.2102  -43.7259  -23.5238 C.ar    1  UNL1        0.0443
     10 C         -62.0332  -44.9144  -24.2394 C.ar    1  UNL1        0.1457
     11 F         -61.8216  -44.8432  -25.5780 F       1  UNL1       -0.2040
     12 N         -62.6701  -42.5197  -21.4106 N.pl3   1  UNL1       -0.3040
     13 C         -61.6174  -41.4940  -21.4074 C.3     1  UNL1        0.1123
     14 C         -62.2254  -40.0913  -21.2985 C.3     1  UNL1        0.1136
     15 N         -63.2034  -40.0002  -20.2012 N.pl3   1  UNL1       -0.2897
     16 C         -63.6712  -41.2268  -19.5396 C.3     1  UNL1        0.1136
     17 C         -63.8607  -42.3506  -20.5627 C.3     1  UNL1        0.1123
     18 C         -63.5989  -38.7115  -19.6788 C.ar    1  UNL1        0.1322
     19 C         -64.6171  -38.5912  -18.7205 C.ar    1  UNL1        0.0343
     20 C         -64.9699  -37.3299  -18.2418 C.ar    1  UNL1        0.0087
     21 C         -64.3136  -36.1781  -18.7093 C.ar    1  UNL1        0.0946
     22 C         -63.2917  -36.3410  -19.6695 C.ar    1  UNL1        0.1159
     23 I         -62.1934  -34.7194  -20.4793 I       1  UNL1       -0.0212
     24 N         -62.9725  -37.5846  -20.1159 N.ar    1  UNL1       -0.2250
     25 C         -64.6945  -34.8087  -18.1910 C.3     1  UNL1        0.4204
     26 F         -63.5608  -34.0268  -18.0652 F       1  UNL1       -0.1658
     27 F         -65.5718  -34.2045  -19.0728 F       1  UNL1       -0.1658
     28 F         -65.3088  -34.8819  -16.9524 F       1  UNL1       -0.1658
     29 C         -62.8870  -49.2971  -25.7520 C.3     1  UNL1        0.1535
     30 C         -63.9498  -50.2056  -25.1732 C.2     1  UNL1        0.2443
     31 O         -65.1586  -50.0084  -25.4731 O.2     1  UNL1       -0.2730
     32 N         -63.6109  -51.3722  -24.4052 N.am    1  UNL1       -0.2825
     33 H         -64.2942  -52.1629  -24.3951 H       1  UNL1        0.1549
     34 C         -62.3455  -51.5729  -23.7616 C.ar    1  UNL1        0.0535
     35 C         -61.5990  -52.7238  -24.0406 C.ar    1  UNL1        0.0353
     36 C         -60.3743  -52.9217  -23.3981 C.ar    1  UNL1        0.1002
     37 N         -59.9235  -52.0113  -22.4941 N.ar    1  UNL1       -0.2422
     38 C         -60.6410  -50.8985  -22.1855 C.ar    1  UNL1        0.1002
     39 C         -61.8711  -50.6642  -22.8047 C.ar    1  UNL1        0.0353
     40 C         -63.0518  -49.2237  -27.2810 C.3     1  UNL1        0.0569
     41 C         -63.0019  -47.8022  -27.7610 C.ar    1  UNL1       -0.0017
     42 C         -64.0851  -46.9537  -27.9697 C.ar    1  UNL1        0.0681
     43 N         -63.6561  -45.7194  -28.3206 N.ar    1  UNL1       -0.3523
     44 C         -62.3130  -45.7795  -28.3241 C.ar    1  UNL1        0.0563
     45 C         -61.4204  -44.7449  -28.6023 C.ar    1  UNL1        0.0170
     46 C         -60.0435  -45.0252  -28.5239 C.ar    1  UNL1        0.0015
     47 C         -59.5950  -46.3177  -28.1710 C.ar    1  UNL1        0.0001
     48 C         -60.5188  -47.3413  -27.8950 C.ar    1  UNL1        0.0012
     49 C         -61.8765  -47.0338  -27.9840 C.ar    1  UNL1        0.0131
     50 H         -64.2511  -44.8870  -28.5290 H       1  UNL1        0.1660
@<TRIPOS>BOND
     1     1     2    2
     2     2     3   am
     3     3    29    1
     4    29    40    1
     5    40    41    1
     6    41    42   ar
     7    42    43   ar
     8    43    44   ar
     9    44    45   ar
    10    45    46   ar
    11    46    47   ar
    12    47    48   ar
    13    48    49   ar
    14    29    30    1
    15    30    31    2
    16    30    32   am
    17    32    34    1
    18    34    35   ar
    19    35    36   ar
    20    36    37   ar
    21    37    38   ar
    22    38    39   ar
    23     2     5    1
    24     5     6   ar
    25     6     7   ar
    26     7     8   ar
    27     8    12    1
    28    12    13    1
    29    13    14    1
    30    14    15    1
    31    15    18    1
    32    18    19   ar
    33    19    20   ar
    34    20    21   ar
    35    21    25    1
    36    25    26    1
    37    25    27    1
    38    25    28    1
    39    21    22   ar
    40    22    23    1
    41    22    24   ar
    42    15    16    1
    43    16    17    1
    44     8     9   ar
    45     9    10   ar
    46    10    11    1
    47    49    41   ar
    48    39    34   ar
    49    10     5   ar
    50    49    44   ar
    51    17    12    1
    52    24    18   ar
    53     3     4    1
    54    43    50    1
    55    32    33    1
@<TRIPOS>MOLECULE
*****
 50 55 0 0 0
SMALL
GASTEIGER

@<TRIPOS>ATOM
      1 O         -61.3101  -45.6168  -28.1584 O.2     1  UNL1       -0.2701
      2 C         -62.4361  -45.5647  -27.5918 C.2     1  UNL1        0.2483
      3 N         -63.5015  -46.4164  -28.0425 N.am    1  UNL1       -0.2945
      4 H         -64.4710  -46.2321  -27.6992 H       1  UNL1        0.1501
      5 C         -62.6489  -44.5982  -26.4916 C.ar    1  UNL1        0.0808
      6 C         -62.3481  -44.9729  -25.1724 C.ar    1  UNL1        0.0080
      7 C         -62.5351  -44.0760  -24.1180 C.ar    1  UNL1        0.0148
      8 C         -63.0368  -42.7849  -24.3573 C.ar    1  UNL1        0.0502
      9 C         -63.3595  -42.4185  -25.6756 C.ar    1  UNL1        0.0443
     10 C         -63.1714  -43.3136  -26.7335 C.ar    1  UNL1        0.1457
     11 F         -63.5464  -42.9349  -27.9816 F       1  UNL1       -0.2040
     12 N         -63.2354  -41.8573  -23.2670 N.pl3   1  UNL1       -0.3040
     13 C         -62.1931  -41.6806  -22.2458 C.3     1  UNL1        0.1123
     14 C         -62.1969  -40.2455  -21.7078 C.3     1  UNL1        0.1136
     15 N         -63.5481  -39.8087  -21.3175 N.pl3   1  UNL1       -0.2897
     16 C         -64.7136  -40.6188  -21.7000 C.3     1  UNL1        0.1136
     17 C         -64.5349  -41.1849  -23.1119 C.3     1  UNL1        0.1123
     18 C         -63.7253  -38.6694  -20.4455 C.ar    1  UNL1        0.1322
     19 C         -64.7013  -38.6640  -19.4371 C.ar    1  UNL1        0.0343
     20 C         -64.8412  -37.5450  -18.6168 C.ar    1  UNL1        0.0087
     21 C         -64.0123  -36.4231  -18.7898 C.ar    1  UNL1        0.0946
     22 C         -63.0394  -36.4690  -19.8118 C.ar    1  UNL1        0.1159
     23 I         -61.7018  -34.8741  -20.2105 I       1  UNL1       -0.0212
     24 N         -62.9295  -37.5749  -20.5944 N.ar    1  UNL1       -0.2250
     25 C         -64.1621  -35.2083  -17.9007 C.3     1  UNL1        0.4204
     26 F         -62.9133  -34.7612  -17.5092 F       1  UNL1       -0.1658
     27 F         -64.8123  -34.2025  -18.5921 F       1  UNL1       -0.1658
     28 F         -64.8957  -35.4936  -16.7618 F       1  UNL1       -0.1658
     29 C         -63.2750  -47.4958  -29.0119 C.3     1  UNL1        0.1535
     30 C         -64.0668  -48.7251  -28.6221 C.2     1  UNL1        0.2443
     31 O         -64.8494  -49.2457  -29.4626 O.2     1  UNL1       -0.2730
     32 N         -63.8488  -49.3999  -27.3720 N.am    1  UNL1       -0.2825
     33 H         -64.0746  -50.4192  -27.3240 H       1  UNL1        0.1549
     34 C         -63.2227  -48.7986  -26.2308 C.ar    1  UNL1        0.0535
     35 C         -61.8260  -48.7512  -26.1493 C.ar    1  UNL1        0.0353
     36 C         -61.2217  -48.1786  -25.0273 C.ar    1  UNL1        0.1002
     37 N         -61.9872  -47.6904  -24.0149 N.ar    1  UNL1       -0.2422
     38 C         -63.3449  -47.7477  -24.0572 C.ar    1  UNL1        0.1002
     39 C         -63.9881  -48.3135  -25.1607 C.ar    1  UNL1        0.0353
     40 C         -63.6800  -47.0528  -30.4297 C.3     1  UNL1        0.0569
     41 C         -64.2783  -45.6762  -30.4142 C.ar    1  UNL1       -0.0017
     42 C         -65.5562  -45.3267  -29.9879 C.ar    1  UNL1        0.0681
     43 N         -65.7183  -43.9843  -30.0359 N.ar    1  UNL1       -0.3523
     44 C         -64.5511  -43.4842  -30.4779 C.ar    1  UNL1        0.0563
     45 C         -64.2242  -42.1424  -30.6703 C.ar    1  UNL1        0.0170
     46 C         -62.9257  -41.8399  -31.1208 C.ar    1  UNL1        0.0015
     47 C         -61.9933  -42.8733  -31.3638 C.ar    1  UNL1        0.0001
     48 C         -62.3514  -44.2178  -31.1600 C.ar    1  UNL1        0.0012
     49 C         -63.6463  -44.4862  -30.7161 C.ar    1  UNL1        0.0131
     50 H         -66.5731  -43.4482  -29.7670 H       1  UNL1        0.1660
@<TRIPOS>BOND
     1     1     2    2
     2     2     3   am
     3     3    29    1
     4    29    40    1
     5    40    41    1
     6    41    42   ar
     7    42    43   ar
     8    43    44   ar
     9    44    45   ar
    10    45    46   ar
    11    46    47   ar
    12    47    48   ar
    13    48    49   ar
    14    29    30    1
    15    30    31    2
    16    30    32   am
    17    32    34    1
    18    34    35   ar
    19    35    36   ar
    20    36    37   ar
    21    37    38   ar
    22    38    39   ar
    23     2     5    1
    24     5     6   ar
    25     6     7   ar
    26     7     8   ar
    27     8    12    1
    28    12    13    1
    29    13    14    1
    30    14    15    1
    31    15    18    1
    32    18    19   ar
    33    19    20   ar
    34    20    21   ar
    35    21    25    1
    36    25    26    1
    37    25    27    1
    38    25    28    1
    39    21    22   ar
    40    22    23    1
    41    22    24   ar
    42    15    16    1
    43    16    17    1
    44     8     9   ar
    45     9    10   ar
    46    10    11    1
    47    49    41   ar
    48    39    34   ar
    49    10     5   ar
    50    49    44   ar
    51    17    12    1
    52    24    18   ar
    53     3     4    1
    54    43    50    1
    55    32    33    1
@<TRIPOS>MOLECULE
*****
 50 55 0 0 0
SMALL
GASTEIGER

@<TRIPOS>ATOM
      1 O         -60.8389  -48.0436  -24.1477 O.2     1  UNL1       -0.2701
      2 C         -61.9338  -47.4268  -24.2584 C.2     1  UNL1        0.2483
      3 N         -62.9638  -47.9494  -25.1127 N.am    1  UNL1       -0.2945
      4 H         -63.7809  -47.3407  -25.3442 H       1  UNL1        0.1501
      5 C         -62.1239  -46.1526  -23.5301 C.ar    1  UNL1        0.0808
      6 C         -62.2312  -46.1643  -22.1303 C.ar    1  UNL1        0.0080
      7 C         -62.4050  -44.9739  -21.4204 C.ar    1  UNL1        0.0148
      8 C         -62.4853  -43.7434  -22.0953 C.ar    1  UNL1        0.0502
      9 C         -62.4010  -43.7352  -23.4986 C.ar    1  UNL1        0.0443
     10 C         -62.2248  -44.9252  -24.2118 C.ar    1  UNL1        0.1457
     11 F         -62.2019  -44.8744  -25.5678 F       1  UNL1       -0.2040
     12 N         -62.6700  -42.5114  -21.3627 N.pl3   1  UNL1       -0.3040
     13 C         -61.6218  -41.4811  -21.3701 C.3     1  UNL1        0.1123
     14 C         -62.2351  -40.0808  -21.2608 C.3     1  UNL1        0.1136
     15 N         -63.2054  -39.9908  -20.1566 N.pl3   1  UNL1       -0.2897
     16 C         -63.6631  -41.2175  -19.4881 C.3     1  UNL1        0.1136
     17 C         -63.8551  -42.3451  -20.5066 C.3     1  UNL1        0.1123
     18 C         -63.6028  -38.7024  -19.6350 C.ar    1  UNL1        0.1322
     19 C         -64.6121  -38.5840  -18.6671 C.ar    1  UNL1        0.0343
     20 C         -64.9670  -37.3228  -18.1895 C.ar    1  UNL1        0.0087
     21 C         -64.3217  -36.1692  -18.6677 C.ar    1  UNL1        0.0946
     22 C         -63.3085  -36.3302  -19.6374 C.ar    1  UNL1        0.1159
     23 I         -62.2272  -34.7056  -20.4640 I       1  UNL1       -0.0212
     24 N         -62.9869  -37.5737  -20.0824 N.ar    1  UNL1       -0.2250
     25 C         -64.7049  -34.8001  -18.1506 C.3     1  UNL1        0.4204
     26 F         -63.5742  -34.0119  -18.0380 F       1  UNL1       -0.1658
     27 F         -65.5934  -34.2034  -19.0264 F       1  UNL1       -0.1658
     28 F         -65.3074  -34.8720  -16.9062 F       1  UNL1       -0.1658
     29 C         -62.8706  -49.2866  -25.7120 C.3     1  UNL1        0.1535
     30 C         -63.9521  -50.1870  -25.1553 C.2     1  UNL1        0.2443
     31 O         -65.1563  -49.9586  -25.4512 O.2     1  UNL1       -0.2730
     32 N         -63.6375  -51.3779  -24.4148 N.am    1  UNL1       -0.2825
     33 H         -64.3365  -52.1547  -24.4236 H       1  UNL1        0.1549
     34 C         -62.3770  -51.6190  -23.7753 C.ar    1  UNL1        0.0535
     35 C         -61.6564  -52.7808  -24.0762 C.ar    1  UNL1        0.0353
     36 C         -60.4365  -53.0182  -23.4378 C.ar    1  UNL1        0.1002
     37 N         -59.9657  -52.1354  -22.5168 N.ar    1  UNL1       -0.2422
     38 C         -60.6583  -51.0129  -22.1871 C.ar    1  UNL1        0.1002
     39 C         -61.8827  -50.7394  -22.8015 C.ar    1  UNL1        0.0353
     40 C         -63.0041  -49.2110  -27.2439 C.3     1  UNL1        0.0569
     41 C         -62.3957  -47.9462  -27.7764 C.ar    1  UNL1       -0.0017
     42 C         -61.0798  -47.5220  -27.6169 C.ar    1  UNL1        0.0681
     43 N         -60.8670  -46.3773  -28.3060 N.ar    1  UNL1       -0.3523
     44 C         -62.0330  -46.0825  -28.9069 C.ar    1  UNL1        0.0563
     45 C         -62.3023  -45.0036  -29.7483 C.ar    1  UNL1        0.0170
     46 C         -63.5965  -44.9002  -30.2914 C.ar    1  UNL1        0.0015
     47 C         -64.5803  -45.8675  -29.9867 C.ar    1  UNL1        0.0001
     48 C         -64.2792  -46.9455  -29.1354 C.ar    1  UNL1        0.0012
     49 C         -62.9890  -47.0192  -28.6102 C.ar    1  UNL1        0.0131
     50 H         -59.9718  -45.8433  -28.3693 H       1  UNL1        0.1660
@<TRIPOS>BOND
     1     1     2    2
     2     2     3   am
     3     3    29    1
     4    29    40    1
     5    40    41    1
     6    41    42   ar
     7    42    43   ar
     8    43    44   ar
     9    44    45   ar
    10    45    46   ar
    11    46    47   ar
    12    47    48   ar
    13    48    49   ar
    14    29    30    1
    15    30    31    2
    16    30    32   am
    17    32    34    1
    18    34    35   ar
    19    35    36   ar
    20    36    37   ar
    21    37    38   ar
    22    38    39   ar
    23     2     5    1
    24     5     6   ar
    25     6     7   ar
    26     7     8   ar
    27     8    12    1
    28    12    13    1
    29    13    14    1
    30    14    15    1
    31    15    18    1
    32    18    19   ar
    33    19    20   ar
    34    20    21   ar
    35    21    25    1
    36    25    26    1
    37    25    27    1
    38    25    28    1
    39    21    22   ar
    40    22    23    1
    41    22    24   ar
    42    15    16    1
    43    16    17    1
    44     8     9   ar
    45     9    10   ar
    46    10    11    1
    47    49    41   ar
    48    39    34   ar
    49    10     5   ar
    50    49    44   ar
    51    17    12    1
    52    24    18   ar
    53     3     4    1
    54    43    50    1
    55    32    33    1
@<TRIPOS>MOLECULE
*****
 50 55 0 0 0
SMALL
GASTEIGER

@<TRIPOS>ATOM
      1 O         -59.8710  -45.1222  -27.9031 O.2     1  UNL1       -0.2701
      2 C         -61.1114  -45.2361  -27.7036 C.2     1  UNL1        0.2483
      3 N         -61.9888  -44.1449  -28.0250 N.am    1  UNL1       -0.2945
      4 H         -62.9753  -44.1761  -27.6822 H       1  UNL1        0.1501
      5 C         -61.6373  -46.4841  -27.1071 C.ar    1  UNL1        0.0808
      6 C         -61.1943  -46.8849  -25.8366 C.ar    1  UNL1        0.0080
      7 C         -61.6806  -48.0559  -25.2504 C.ar    1  UNL1        0.0148
      8 C         -62.6154  -48.8594  -25.9261 C.ar    1  UNL1        0.0502
      9 C         -63.0410  -48.4694  -27.2079 C.ar    1  UNL1        0.0443
     10 C         -62.5574  -47.2965  -27.7964 C.ar    1  UNL1        0.1457
     11 F         -62.9560  -46.9878  -29.0564 F       1  UNL1       -0.2040
     12 N         -63.1160  -50.0737  -25.3231 N.pl3   1  UNL1       -0.3040
     13 C         -62.5589  -50.5528  -24.0502 C.3     1  UNL1        0.1123
     14 C         -63.6268  -51.2857  -23.2309 C.3     1  UNL1        0.1136
     15 N         -64.3371  -52.2962  -24.0329 N.pl3   1  UNL1       -0.2897
     16 C         -64.1625  -52.3211  -25.4923 C.3     1  UNL1        0.1136
     17 C         -64.0957  -50.8963  -26.0502 C.3     1  UNL1        0.1123
     18 C         -65.0908  -53.3464  -23.3857 C.ar    1  UNL1        0.1322
     19 C         -64.4827  -54.2380  -22.4887 C.ar    1  UNL1        0.0343
     20 C         -65.2443  -55.2382  -21.8853 C.ar    1  UNL1        0.0087
     21 C         -66.6162  -55.3603  -22.1664 C.ar    1  UNL1        0.0946
     22 C         -67.1921  -54.4414  -23.0702 C.ar    1  UNL1        0.1159
     23 I         -69.2428  -54.4723  -23.6045 I       1  UNL1       -0.0212
     24 N         -66.4214  -53.4785  -23.6415 N.ar    1  UNL1       -0.2250
     25 C         -67.4444  -56.4444  -21.5125 C.3     1  UNL1        0.4204
     26 F         -68.0305  -57.2330  -22.4857 F       1  UNL1       -0.1658
     27 F         -66.6350  -57.2303  -20.7128 F       1  UNL1       -0.1658
     28 F         -68.4499  -55.9150  -20.7216 F       1  UNL1       -0.1658
     29 C         -61.5226  -42.9672  -28.7680 C.3     1  UNL1        0.1535
     30 C         -62.5272  -42.5891  -29.8347 C.2     1  UNL1        0.2443
     31 O         -63.6453  -42.1196  -29.4890 O.2     1  UNL1       -0.2730
     32 N         -62.1927  -42.6166  -31.2322 N.am    1  UNL1       -0.2825
     33 H         -62.7182  -41.9774  -31.8705 H       1  UNL1        0.1549
     34 C         -61.1017  -43.3654  -31.7844 C.ar    1  UNL1        0.0535
     35 C         -60.2699  -44.1078  -30.9379 C.ar    1  UNL1        0.0353
     36 C         -59.1987  -44.8224  -31.4801 C.ar    1  UNL1        0.1002
     37 N         -58.9567  -44.7783  -32.8175 N.ar    1  UNL1       -0.2422
     38 C         -59.7333  -44.0442  -33.6580 C.ar    1  UNL1        0.1002
     39 C         -60.8134  -43.3145  -33.1558 C.ar    1  UNL1        0.0353
     40 C         -61.3053  -41.7727  -27.8213 C.3     1  UNL1        0.0569
     41 C         -62.0263  -41.9774  -26.5207 C.ar    1  UNL1       -0.0017
     42 C         -63.3798  -41.7668  -26.2750 C.ar    1  UNL1        0.0681
     43 N         -63.6929  -42.1376  -25.0121 N.ar    1  UNL1       -0.3523
     44 C         -62.5518  -42.5901  -24.4636 C.ar    1  UNL1        0.0563
     45 C         -62.3761  -43.1049  -23.1796 C.ar    1  UNL1        0.0170
     46 C         -61.0897  -43.5468  -22.8186 C.ar    1  UNL1        0.0015
     47 C         -60.0208  -43.4673  -23.7391 C.ar    1  UNL1        0.0001
     48 C         -60.2283  -42.9441  -25.0277 C.ar    1  UNL1        0.0012
     49 C         -61.5133  -42.5114  -25.3551 C.ar    1  UNL1        0.0131
     50 H         -64.6351  -42.0951  -24.5638 H       1  UNL1        0.1660
@<TRIPOS>BOND
     1     1     2    2
     2     2     3   am
     3     3    29    1
     4    29    40    1
     5    40    41    1
     6    41    42   ar
     7    42    43   ar
     8    43    44   ar
     9    44    45   ar
    10    45    46   ar
    11    46    47   ar
    12    47    48   ar
    13    48    49   ar
    14    29    30    1
    15    30    31    2
    16    30    32   am
    17    32    34    1
    18    34    35   ar
    19    35    36   ar
    20    36    37   ar
    21    37    38   ar
    22    38    39   ar
    23     2     5    1
    24     5     6   ar
    25     6     7   ar
    26     7     8   ar
    27     8    12    1
    28    12    13    1
    29    13    14    1
    30    14    15    1
    31    15    18    1
    32    18    19   ar
    33    19    20   ar
    34    20    21   ar
    35    21    25    1
    36    25    26    1
    37    25    27    1
    38    25    28    1
    39    21    22   ar
    40    22    23    1
    41    22    24   ar
    42    15    16    1
    43    16    17    1
    44     8     9   ar
    45     9    10   ar
    46    10    11    1
    47    49    41   ar
    48    39    34   ar
    49    10     5   ar
    50    49    44   ar
    51    17    12    1
    52    24    18   ar
    53     3     4    1
    54    43    50    1
    55    32    33    1
@<TRIPOS>MOLECULE
*****
 50 55 0 0 0
SMALL
GASTEIGER

@<TRIPOS>ATOM
      1 O         -61.0321  -45.3971  -27.9701 O.2     1  UNL1       -0.2701
      2 C         -62.2172  -45.0639  -27.6943 C.2     1  UNL1        0.2483
      3 N         -63.2973  -45.5148  -28.5273 N.am    1  UNL1       -0.2945
      4 H         -64.2404  -45.0822  -28.4045 H       1  UNL1        0.1501
      5 C         -62.4698  -44.1821  -26.5329 C.ar    1  UNL1        0.0808
      6 C         -63.2714  -43.0404  -26.6914 C.ar    1  UNL1        0.0080
      7 C         -63.5289  -42.1963  -25.6087 C.ar    1  UNL1        0.0148
      8 C         -62.9823  -42.4693  -24.3427 C.ar    1  UNL1        0.0502
      9 C         -62.1610  -43.6000  -24.1904 C.ar    1  UNL1        0.0443
     10 C         -61.9032  -44.4481  -25.2721 C.ar    1  UNL1        0.1457
     11 F         -61.0621  -45.4977  -25.0907 F       1  UNL1       -0.2040
     12 N         -63.2438  -41.5944  -23.2225 N.pl3   1  UNL1       -0.3040
     13 C         -62.2692  -41.4808  -22.1282 C.3     1  UNL1        0.1123
     14 C         -62.2958  -40.0740  -21.5205 C.3     1  UNL1        0.1136
     15 N         -63.6658  -39.6410  -21.1974 N.pl3   1  UNL1       -0.2897
     16 C         -64.8107  -40.4173  -21.6948 C.3     1  UNL1        0.1136
     17 C         -64.5448  -40.9150  -23.1187 C.3     1  UNL1        0.1123
     18 C         -63.8899  -38.5440  -20.2828 C.ar    1  UNL1        0.1322
     19 C         -64.9184  -38.5846  -19.3289 C.ar    1  UNL1        0.0343
     20 C         -65.1025  -37.5057  -18.4649 C.ar    1  UNL1        0.0087
     21 C         -64.2659  -36.3785  -18.5398 C.ar    1  UNL1        0.0946
     22 C         -63.2398  -36.3778  -19.5093 C.ar    1  UNL1        0.1159
     23 I         -61.8834  -34.7686  -19.7595 I       1  UNL1       -0.0212
     24 N         -63.0877  -37.4454  -20.3367 N.ar    1  UNL1       -0.2250
     25 C         -64.4636  -35.2071  -17.6030 C.3     1  UNL1        0.4204
     26 F         -63.2340  -34.7413  -17.1744 F       1  UNL1       -0.1658
     27 F         -65.1333  -34.1921  -18.2616 F       1  UNL1       -0.1658
     28 F         -65.2044  -35.5611  -16.4883 F       1  UNL1       -0.1658
     29 C         -63.0985  -46.5197  -29.5793 C.3     1  UNL1        0.1535
     30 C         -64.1329  -47.6176  -29.4577 C.2     1  UNL1        0.2443
     31 O         -64.9841  -47.7662  -30.3760 O.2     1  UNL1       -0.2730
     32 N         -64.0874  -48.5852  -28.3960 N.am    1  UNL1       -0.2825
     33 H         -64.5167  -49.5214  -28.5728 H       1  UNL1        0.1549
     34 C         -63.3803  -48.3952  -27.1632 C.ar    1  UNL1        0.0535
     35 C         -61.9933  -48.5801  -27.1224 C.ar    1  UNL1        0.0353
     36 C         -61.3120  -48.4094  -25.9145 C.ar    1  UNL1        0.1002
     37 N         -61.9969  -48.0861  -24.7851 N.ar    1  UNL1       -0.2422
     38 C         -63.3471  -47.9265  -24.7919 C.ar    1  UNL1        0.1002
     39 C         -64.0657  -48.0896  -25.9786 C.ar    1  UNL1        0.0353
     40 C         -63.1935  -45.8776  -30.9754 C.3     1  UNL1        0.0569
     41 C         -62.8303  -44.4220  -30.9251 C.ar    1  UNL1       -0.0017
     42 C         -61.6123  -43.8531  -31.2854 C.ar    1  UNL1        0.0681
     43 N         -61.6758  -42.5049  -31.1915 N.ar    1  UNL1       -0.3523
     44 C         -62.9254  -42.2186  -30.7862 C.ar    1  UNL1        0.0563
     45 C         -63.4763  -40.9561  -30.5694 C.ar    1  UNL1        0.0170
     46 C         -64.8230  -40.8864  -30.1669 C.ar    1  UNL1        0.0015
     47 C         -65.5807  -42.0664  -29.9946 C.ar    1  UNL1        0.0001
     48 C         -64.9983  -43.3261  -30.2216 C.ar    1  UNL1        0.0012
     49 C         -63.6610  -43.3629  -30.6165 C.ar    1  UNL1        0.0131
     50 H         -60.9115  -41.8268  -31.4075 H       1  UNL1        0.1660
@<TRIPOS>BOND
     1     1     2    2
     2     2     3   am
     3     3    29    1
     4    29    40    1
     5    40    41    1
     6    41    42   ar
     7    42    43   ar
     8    43    44   ar
     9    44    45   ar
    10    45    46   ar
    11    46    47   ar
    12    47    48   ar
    13    48    49   ar
    14    29    30    1
    15    30    31    2
    16    30    32   am
    17    32    34    1
    18    34    35   ar
    19    35    36   ar
    20    36    37   ar
    21    37    38   ar
    22    38    39   ar
    23     2     5    1
    24     5     6   ar
    25     6     7   ar
    26     7     8   ar
    27     8    12    1
    28    12    13    1
    29    13    14    1
    30    14    15    1
    31    15    18    1
    32    18    19   ar
    33    19    20   ar
    34    20    21   ar
    35    21    25    1
    36    25    26    1
    37    25    27    1
    38    25    28    1
    39    21    22   ar
    40    22    23    1
    41    22    24   ar
    42    15    16    1
    43    16    17    1
    44     8     9   ar
    45     9    10   ar
    46    10    11    1
    47    49    41   ar
    48    39    34   ar
    49    10     5   ar
    50    49    44   ar
    51    17    12    1
    52    24    18   ar
    53     3     4    1
    54    43    50    1
    55    32    33    1
@<TRIPOS>MOLECULE
*****
 50 55 0 0 0
SMALL
GASTEIGER

@<TRIPOS>ATOM
      1 O         -66.6051  -40.3614  -20.8089 O.2     1  UNL1       -0.2701
      2 C         -65.5252  -39.9248  -21.2935 C.2     1  UNL1        0.2483
      3 N         -64.7684  -38.9377  -20.5749 N.am    1  UNL1       -0.2945
      4 H         -63.9869  -38.4484  -21.0664 H       1  UNL1        0.1501
      5 C         -65.0746  -40.4145  -22.6153 C.ar    1  UNL1        0.0808
      6 C         -65.9893  -40.4801  -23.6784 C.ar    1  UNL1        0.0080
      7 C         -65.5861  -40.9332  -24.9367 C.ar    1  UNL1        0.0148
      8 C         -64.2593  -41.3407  -25.1592 C.ar    1  UNL1        0.0502
      9 C         -63.3498  -41.2965  -24.0881 C.ar    1  UNL1        0.0443
     10 C         -63.7501  -40.8413  -22.8278 C.ar    1  UNL1        0.1457
     11 F         -62.8517  -40.8661  -21.8108 F       1  UNL1       -0.2040
     12 N         -63.8417  -41.8143  -26.4592 N.pl3   1  UNL1       -0.3040
     13 C         -64.6097  -41.4556  -27.6599 C.3     1  UNL1        0.1123
     14 C         -63.6896  -41.3444  -28.8806 C.3     1  UNL1        0.1136
     15 N         -62.8124  -42.5195  -29.0161 N.pl3   1  UNL1       -0.2897
     16 C         -62.7131  -43.4848  -27.9118 C.3     1  UNL1        0.1136
     17 C         -62.7195  -42.7603  -26.5624 C.3     1  UNL1        0.1123
     18 C         -62.1593  -42.8040  -30.2742 C.ar    1  UNL1        0.1322
     19 C         -62.6871  -42.3492  -31.4923 C.ar    1  UNL1        0.0343
     20 C         -62.0273  -42.6451  -32.6847 C.ar    1  UNL1        0.0087
     21 C         -60.8374  -43.3934  -32.6771 C.ar    1  UNL1        0.0946
     22 C         -60.3359  -43.8286  -31.4313 C.ar    1  UNL1        0.1159
     23 I         -58.5546  -44.9593  -31.2306 I       1  UNL1       -0.0212
     24 N         -61.0037  -43.5235  -30.2874 N.ar    1  UNL1       -0.2250
     25 C         -60.1198  -43.7152  -33.9696 C.3     1  UNL1        0.4204
     26 F         -61.0253  -43.7241  -35.0149 F       1  UNL1       -0.1658
     27 F         -59.1490  -42.7610  -34.2132 F       1  UNL1       -0.1658
     28 F         -59.5047  -44.9545  -33.9198 F       1  UNL1       -0.1658
     29 C         -65.0992  -38.5591  -19.1952 C.3     1  UNL1        0.1535
     30 C         -63.9034  -38.7714  -18.2924 C.2     1  UNL1        0.2443
     31 O         -63.2227  -37.7747  -17.9273 O.2     1  UNL1       -0.2730
     32 N         -63.6037  -40.0571  -17.7243 N.am    1  UNL1       -0.2825
     33 H         -63.0751  -40.0790  -16.8231 H       1  UNL1        0.1549
     34 C         -64.0932  -41.3007  -18.2436 C.ar    1  UNL1        0.0535
     35 C         -65.2431  -41.8789  -17.6931 C.ar    1  UNL1        0.0353
     36 C         -65.7059  -43.0989  -18.1925 C.ar    1  UNL1        0.1002
     37 N         -65.0305  -43.7271  -19.1917 N.ar    1  UNL1       -0.2422
     38 C         -63.8968  -43.2002  -19.7259 C.ar    1  UNL1        0.1002
     39 C         -63.4001  -41.9829  -19.2539 C.ar    1  UNL1        0.0353
     40 C         -65.5421  -37.0864  -19.1224 C.3     1  UNL1        0.0569
     41 C         -64.3582  -36.1734  -18.9877 C.ar    1  UNL1       -0.0017
     42 C         -64.1129  -35.2720  -17.9561 C.ar    1  UNL1        0.0681
     43 N         -62.9071  -34.6815  -18.1230 N.ar    1  UNL1       -0.3523
     44 C         -62.3858  -35.2104  -19.2438 C.ar    1  UNL1        0.0563
     45 C         -61.1438  -34.9313  -19.8129 C.ar    1  UNL1        0.0170
     46 C         -60.7868  -35.6238  -20.9849 C.ar    1  UNL1        0.0015
     47 C         -61.6679  -36.5705  -21.5536 C.ar    1  UNL1        0.0001
     48 C         -62.9140  -36.8319  -20.9567 C.ar    1  UNL1        0.0012
     49 C         -63.2409  -36.1276  -19.7979 C.ar    1  UNL1        0.0131
     50 H         -62.4670  -33.9716  -17.4963 H       1  UNL1        0.1660
@<TRIPOS>BOND
     1     1     2    2
     2     2     3   am
     3     3    29    1
     4    29    40    1
     5    40    41    1
     6    41    42   ar
     7    42    43   ar
     8    43    44   ar
     9    44    45   ar
    10    45    46   ar
    11    46    47   ar
    12    47    48   ar
    13    48    49   ar
    14    29    30    1
    15    30    31    2
    16    30    32   am
    17    32    34    1
    18    34    35   ar
    19    35    36   ar
    20    36    37   ar
    21    37    38   ar
    22    38    39   ar
    23     2     5    1
    24     5     6   ar
    25     6     7   ar
    26     7     8   ar
    27     8    12    1
    28    12    13    1
    29    13    14    1
    30    14    15    1
    31    15    18    1
    32    18    19   ar
    33    19    20   ar
    34    20    21   ar
    35    21    25    1
    36    25    26    1
    37    25    27    1
    38    25    28    1
    39    21    22   ar
    40    22    23    1
    41    22    24   ar
    42    15    16    1
    43    16    17    1
    44     8     9   ar
    45     9    10   ar
    46    10    11    1
    47    49    41   ar
    48    39    34   ar
    49    10     5   ar
    50    49    44   ar
    51    17    12    1
    52    24    18   ar
    53     3     4    1
    54    43    50    1
    55    32    33    1
@<TRIPOS>MOLECULE
*****
 50 55 0 0 0
SMALL
GASTEIGER

@<TRIPOS>ATOM
      1 O         -59.8364  -45.9542  -26.4563 O.2     1  UNL1       -0.2701
      2 C         -60.7636  -45.1475  -26.7413 C.2     1  UNL1        0.2483
      3 N         -61.3024  -45.1217  -28.0728 N.am    1  UNL1       -0.2945
      4 H         -61.9271  -44.3301  -28.3463 H       1  UNL1        0.1501
      5 C         -61.2567  -44.2151  -25.7033 C.ar    1  UNL1        0.0808
      6 C         -62.0790  -43.1389  -26.0732 C.ar    1  UNL1        0.0080
      7 C         -62.5615  -42.2489  -25.1107 C.ar    1  UNL1        0.0148
      8 C         -62.2248  -42.4091  -23.7553 C.ar    1  UNL1        0.0502
      9 C         -61.3826  -43.4735  -23.3890 C.ar    1  UNL1        0.0443
     10 C         -60.8997  -44.3673  -24.3502 C.ar    1  UNL1        0.1457
     11 F         -60.0474  -45.3478  -23.9578 F       1  UNL1       -0.2040
     12 N         -62.7192  -41.4865  -22.7588 N.pl3   1  UNL1       -0.3040
     13 C         -61.9676  -41.2670  -21.5150 C.3     1  UNL1        0.1123
     14 C         -62.1559  -39.8315  -21.0122 C.3     1  UNL1        0.1136
     15 N         -63.5765  -39.4455  -20.9715 N.pl3   1  UNL1       -0.2897
     16 C         -64.5818  -40.3008  -21.6188 C.3     1  UNL1        0.1136
     17 C         -64.0405  -40.8639  -22.9363 C.3     1  UNL1        0.1123
     18 C         -64.0044  -38.3112  -20.1840 C.ar    1  UNL1        0.1322
     19 C         -65.3155  -38.2132  -19.6934 C.ar    1  UNL1        0.0343
     20 C         -65.6894  -37.1024  -18.9379 C.ar    1  UNL1        0.0087
     21 C         -64.7642  -36.0807  -18.6619 C.ar    1  UNL1        0.0946
     22 C         -63.4538  -36.2183  -19.1688 C.ar    1  UNL1        0.1159
     23 I         -61.9298  -34.7814  -18.8458 I       1  UNL1       -0.0212
     24 N         -63.1220  -37.3135  -19.9024 N.ar    1  UNL1       -0.2250
     25 C         -65.1676  -34.8749  -17.8420 C.3     1  UNL1        0.4204
     26 F         -65.3579  -35.2504  -16.5247 F       1  UNL1       -0.1658
     27 F         -64.1741  -33.9151  -17.9054 F       1  UNL1       -0.1658
     28 F         -66.3439  -34.3103  -18.3049 F       1  UNL1       -0.1658
     29 C         -60.9540  -46.1407  -29.0709 C.3     1  UNL1        0.1535
     30 C         -59.6326  -45.8023  -29.7262 C.2     1  UNL1        0.2443
     31 O         -58.5661  -46.2625  -29.2356 O.2     1  UNL1       -0.2730
     32 N         -59.5672  -45.0888  -30.9721 N.am    1  UNL1       -0.2825
     33 H         -58.7303  -45.2446  -31.5782 H       1  UNL1        0.1549
     34 C         -60.6310  -44.2817  -31.4946 C.ar    1  UNL1        0.0535
     35 C         -61.6844  -43.8945  -30.6579 C.ar    1  UNL1        0.0353
     36 C         -62.7263  -43.1216  -31.1768 C.ar    1  UNL1        0.1002
     37 N         -62.7241  -42.7673  -32.4896 N.ar    1  UNL1       -0.2422
     38 C         -61.7267  -43.1521  -33.3296 C.ar    1  UNL1        0.1002
     39 C         -60.6673  -43.9265  -32.8506 C.ar    1  UNL1        0.0353
     40 C         -60.8632  -47.5342  -28.4226 C.3     1  UNL1        0.0569
     41 C         -62.1787  -47.9359  -27.8215 C.ar    1  UNL1       -0.0017
     42 C         -63.3978  -48.0509  -28.4830 C.ar    1  UNL1        0.0681
     43 N         -64.3483  -48.5188  -27.6415 N.ar    1  UNL1       -0.3523
     44 C         -63.7370  -48.7101  -26.4593 C.ar    1  UNL1        0.0563
     45 C         -64.3023  -49.2056  -25.2849 C.ar    1  UNL1        0.0170
     46 C         -63.4664  -49.3479  -24.1617 C.ar    1  UNL1        0.0015
     47 C         -62.0996  -48.9980  -24.2375 C.ar    1  UNL1        0.0001
     48 C         -61.5572  -48.5015  -25.4362 C.ar    1  UNL1        0.0012
     49 C         -62.4112  -48.3689  -26.5310 C.ar    1  UNL1        0.0131
     50 H         -65.3490  -48.7077  -27.8723 H       1  UNL1        0.1660
@<TRIPOS>BOND
     1     1     2    2
     2     2     3   am
     3     3    29    1
     4    29    40    1
     5    40    41    1
     6    41    42   ar
     7    42    43   ar
     8    43    44   ar
     9    44    45   ar
    10    45    46   ar
    11    46    47   ar
    12    47    48   ar
    13    48    49   ar
    14    29    30    1
    15    30    31    2
    16    30    32   am
    17    32    34    1
    18    34    35   ar
    19    35    36   ar
    20    36    37   ar
    21    37    38   ar
    22    38    39   ar
    23     2     5    1
    24     5     6   ar
    25     6     7   ar
    26     7     8   ar
    27     8    12    1
    28    12    13    1
    29    13    14    1
    30    14    15    1
    31    15    18    1
    32    18    19   ar
    33    19    20   ar
    34    20    21   ar
    35    21    25    1
    36    25    26    1
    37    25    27    1
    38    25    28    1
    39    21    22   ar
    40    22    23    1
    41    22    24   ar
    42    15    16    1
    43    16    17    1
    44     8     9   ar
    45     9    10   ar
    46    10    11    1
    47    49    41   ar
    48    39    34   ar
    49    10     5   ar
    50    49    44   ar
    51    17    12    1
    52    24    18   ar
    53     3     4    1
    54    43    50    1
    55    32    33    1
@<TRIPOS>MOLECULE
*****
 50 55 0 0 0
SMALL
GASTEIGER

@<TRIPOS>ATOM
      1 O         -63.8777  -53.4616  -22.8532 O.2     1  UNL1       -0.2701
      2 C         -64.6429  -52.7080  -23.5152 C.2     1  UNL1        0.2483
      3 N         -66.0023  -53.1054  -23.7556 N.am    1  UNL1       -0.2945
      4 H         -66.5643  -52.5732  -24.4574 H       1  UNL1        0.1501
      5 C         -64.1132  -51.4397  -24.0636 C.ar    1  UNL1        0.0808
      6 C         -64.8397  -50.7549  -25.0508 C.ar    1  UNL1        0.0080
      7 C         -64.3631  -49.5530  -25.5793 C.ar    1  UNL1        0.0148
      8 C         -63.1425  -49.0119  -25.1393 C.ar    1  UNL1        0.0502
      9 C         -62.4046  -49.7101  -24.1676 C.ar    1  UNL1        0.0443
     10 C         -62.8803  -50.9126  -23.6351 C.ar    1  UNL1        0.1457
     11 F         -62.1090  -51.5781  -22.7384 F       1  UNL1       -0.2040
     12 N         -62.6456  -47.7709  -25.6886 N.pl3   1  UNL1       -0.3040
     13 C         -61.8330  -47.7759  -26.9133 C.3     1  UNL1        0.1123
     14 C         -62.0644  -46.4962  -27.7244 C.3     1  UNL1        0.1136
     15 N         -61.9472  -45.2883  -26.8901 N.pl3   1  UNL1       -0.2897
     16 C         -61.8941  -45.4169  -25.4267 C.3     1  UNL1        0.1136
     17 C         -62.8483  -46.5154  -24.9486 C.3     1  UNL1        0.1123
     18 C         -61.7440  -43.9939  -27.5011 C.ar    1  UNL1        0.1322
     19 C         -60.5312  -43.3015  -27.3633 C.ar    1  UNL1        0.0343
     20 C         -60.3748  -42.0546  -27.9677 C.ar    1  UNL1        0.0087
     21 C         -61.4206  -41.4858  -28.7152 C.ar    1  UNL1        0.0946
     22 C         -62.6232  -42.2155  -28.8347 C.ar    1  UNL1        0.1159
     23 I         -64.2992  -41.5161  -29.9271 I       1  UNL1       -0.0212
     24 N         -62.7432  -43.4282  -28.2325 N.ar    1  UNL1       -0.2250
     25 C         -61.2529  -40.1334  -29.3722 C.3     1  UNL1        0.4204
     26 F         -60.0600  -39.5634  -28.9661 F       1  UNL1       -0.1658
     27 F         -61.2447  -40.2813  -30.7471 F       1  UNL1       -0.1658
     28 F         -62.2812  -39.2692  -29.0368 F       1  UNL1       -0.1658
     29 C         -66.6005  -54.2684  -23.0879 C.3     1  UNL1        0.1535
     30 C         -68.1037  -54.1120  -23.0097 C.2     1  UNL1        0.2443
     31 O         -68.7254  -53.6344  -23.9972 O.2     1  UNL1       -0.2730
     32 N         -68.8602  -54.6219  -21.8991 N.am    1  UNL1       -0.2825
     33 H         -69.8601  -54.8747  -22.0672 H       1  UNL1        0.1549
     34 C         -68.2995  -54.9269  -20.6152 C.ar    1  UNL1        0.0535
     35 C         -68.3546  -53.9759  -19.5894 C.ar    1  UNL1        0.0353
     36 C         -67.7921  -54.2728  -18.3454 C.ar    1  UNL1        0.1002
     37 N         -67.1787  -55.4693  -18.1425 N.ar    1  UNL1       -0.2422
     38 C         -67.0883  -56.3999  -19.1295 C.ar    1  UNL1        0.1002
     39 C         -67.6366  -56.1416  -20.3881 C.ar    1  UNL1        0.0353
     40 C         -66.2582  -55.5678  -23.8395 C.3     1  UNL1        0.0569
     41 C         -67.4757  -56.1443  -24.5017 C.ar    1  UNL1       -0.0017
     42 C         -68.4216  -56.9847  -23.9221 C.ar    1  UNL1        0.0681
     43 N         -69.4268  -57.2342  -24.7927 N.ar    1  UNL1       -0.3523
     44 C         -69.1286  -56.5502  -25.9111 C.ar    1  UNL1        0.0563
     45 C         -69.8800  -56.4763  -27.0834 C.ar    1  UNL1        0.0170
     46 C         -69.3877  -55.6756  -28.1308 C.ar    1  UNL1        0.0015
     47 C         -68.1708  -54.9729  -27.9837 C.ar    1  UNL1        0.0001
     48 C         -67.4349  -55.0659  -26.7890 C.ar    1  UNL1        0.0012
     49 C         -67.9469  -55.8697  -25.7703 C.ar    1  UNL1        0.0131
     50 H         -70.2701  -57.8254  -24.6205 H       1  UNL1        0.1660
@<TRIPOS>BOND
     1     1     2    2
     2     2     3   am
     3     3    29    1
     4    29    40    1
     5    40    41    1
     6    41    42   ar
     7    42    43   ar
     8    43    44   ar
     9    44    45   ar
    10    45    46   ar
    11    46    47   ar
    12    47    48   ar
    13    48    49   ar
    14    29    30    1
    15    30    31    2
    16    30    32   am
    17    32    34    1
    18    34    35   ar
    19    35    36   ar
    20    36    37   ar
    21    37    38   ar
    22    38    39   ar
    23     2     5    1
    24     5     6   ar
    25     6     7   ar
    26     7     8   ar
    27     8    12    1
    28    12    13    1
    29    13    14    1
    30    14    15    1
    31    15    18    1
    32    18    19   ar
    33    19    20   ar
    34    20    21   ar
    35    21    25    1
    36    25    26    1
    37    25    27    1
    38    25    28    1
    39    21    22   ar
    40    22    23    1
    41    22    24   ar
    42    15    16    1
    43    16    17    1
    44     8     9   ar
    45     9    10   ar
    46    10    11    1
    47    49    41   ar
    48    39    34   ar
    49    10     5   ar
    50    49    44   ar
    51    17    12    1
    52    24    18   ar
    53     3     4    1
    54    43    50    1
    55    32    33    1
@<TRIPOS>MOLECULE
*****
 50 55 0 0 0
SMALL
GASTEIGER

@<TRIPOS>ATOM
      1 O         -62.7143  -39.9945  -19.8928 O.2     1  UNL1       -0.2701
      2 C         -63.5306  -39.7650  -20.8269 C.2     1  UNL1        0.2483
      3 N         -64.7185  -39.0010  -20.5646 N.am    1  UNL1       -0.2945
      4 H         -65.4720  -38.9802  -21.2881 H       1  UNL1        0.1501
      5 C         -63.2649  -40.3194  -22.1731 C.ar    1  UNL1        0.0808
      6 C         -64.1438  -40.0273  -23.2283 C.ar    1  UNL1        0.0080
      7 C         -63.9109  -40.5341  -24.5089 C.ar    1  UNL1        0.0148
      8 C         -62.7973  -41.3537  -24.7625 C.ar    1  UNL1        0.0502
      9 C         -61.9306  -41.6645  -23.7002 C.ar    1  UNL1        0.0443
     10 C         -62.1601  -41.1568  -22.4174 C.ar    1  UNL1        0.1457
     11 F         -61.3269  -41.5264  -21.4120 F       1  UNL1       -0.2040
     12 N         -62.5574  -41.8828  -26.0858 N.pl3   1  UNL1       -0.3040
     13 C         -63.6604  -41.9914  -27.0512 C.3     1  UNL1        0.1123
     14 C         -63.1495  -41.8027  -28.4838 C.3     1  UNL1        0.1136
     15 N         -61.9757  -42.6468  -28.7640 N.pl3   1  UNL1       -0.2897
     16 C         -61.2911  -43.3316  -27.6580 C.3     1  UNL1        0.1136
     17 C         -61.2335  -42.4303  -26.4210 C.3     1  UNL1        0.1123
     18 C         -61.5782  -42.9180  -30.1273 C.ar    1  UNL1        0.1322
     19 C         -62.3625  -42.5040  -31.2148 C.ar    1  UNL1        0.0343
     20 C         -61.9446  -42.7855  -32.5151 C.ar    1  UNL1        0.0087
     21 C         -60.7439  -43.4788  -32.7462 C.ar    1  UNL1        0.0946
     22 C         -59.9806  -43.8742  -31.6263 C.ar    1  UNL1        0.1159
     23 I         -58.1443  -44.9201  -31.7867 I       1  UNL1       -0.0212
     24 N         -60.4166  -43.5845  -30.3719 N.ar    1  UNL1       -0.2250
     25 C         -60.2885  -43.7849  -34.1560 C.3     1  UNL1        0.4204
     26 F         -61.3706  -43.7353  -35.0158 F       1  UNL1       -0.1658
     27 F         -59.3455  -42.8546  -34.5531 F       1  UNL1       -0.1658
     28 F         -59.7195  -45.0436  -34.2493 F       1  UNL1       -0.1658
     29 C         -64.9252  -38.3006  -19.2906 C.3     1  UNL1        0.1535
     30 C         -65.6230  -36.9787  -19.5265 C.2     1  UNL1        0.2443
     31 O         -66.8759  -36.9602  -19.6677 O.2     1  UNL1       -0.2730
     32 N         -64.9184  -35.7281  -19.4539 N.am    1  UNL1       -0.2825
     33 H         -65.4667  -34.8752  -19.2008 H       1  UNL1        0.1549
     34 C         -63.4960  -35.5970  -19.5778 C.ar    1  UNL1        0.0535
     35 C         -62.7239  -35.3073  -18.4465 C.ar    1  UNL1        0.0353
     36 C         -61.3402  -35.1647  -18.5764 C.ar    1  UNL1        0.1002
     37 N         -60.7536  -35.2868  -19.7971 N.ar    1  UNL1       -0.2422
     38 C         -61.4833  -35.5418  -20.9156 C.ar    1  UNL1        0.1002
     39 C         -62.8696  -35.6900  -20.8289 C.ar    1  UNL1        0.0353
     40 C         -65.7625  -39.1575  -18.3238 C.3     1  UNL1        0.0569
     41 C         -65.2467  -40.5661  -18.2670 C.ar    1  UNL1       -0.0017
     42 C         -64.4589  -41.1263  -17.2658 C.ar    1  UNL1        0.0681
     43 N         -64.2578  -42.4426  -17.5055 N.ar    1  UNL1       -0.3523
     44 C         -64.9205  -42.7193  -18.6421 C.ar    1  UNL1        0.0563
     45 C         -65.0279  -43.9547  -19.2797 C.ar    1  UNL1        0.0170
     46 C         -65.7974  -44.0231  -20.4560 C.ar    1  UNL1        0.0015
     47 C         -66.4369  -42.8690  -20.9614 C.ar    1  UNL1        0.0001
     48 C         -66.3113  -41.6364  -20.2960 C.ar    1  UNL1        0.0012
     49 C         -65.5396  -41.5996  -19.1346 C.ar    1  UNL1        0.0131
     50 H         -63.7117  -43.1089  -16.9152 H       1  UNL1        0.1660
@<TRIPOS>BOND
     1     1     2    2
     2     2     3   am
     3     3    29    1
     4    29    40    1
     5    40    41    1
     6    41    42   ar
     7    42    43   ar
     8    43    44   ar
     9    44    45   ar
    10    45    46   ar
    11    46    47   ar
    12    47    48   ar
    13    48    49   ar
    14    29    30    1
    15    30    31    2
    16    30    32   am
    17    32    34    1
    18    34    35   ar
    19    35    36   ar
    20    36    37   ar
    21    37    38   ar
    22    38    39   ar
    23     2     5    1
    24     5     6   ar
    25     6     7   ar
    26     7     8   ar
    27     8    12    1
    28    12    13    1
    29    13    14    1
    30    14    15    1
    31    15    18    1
    32    18    19   ar
    33    19    20   ar
    34    20    21   ar
    35    21    25    1
    36    25    26    1
    37    25    27    1
    38    25    28    1
    39    21    22   ar
    40    22    23    1
    41    22    24   ar
    42    15    16    1
    43    16    17    1
    44     8     9   ar
    45     9    10   ar
    46    10    11    1
    47    49    41   ar
    48    39    34   ar
    49    10     5   ar
    50    49    44   ar
    51    17    12    1
    52    24    18   ar
    53     3     4    1
    54    43    50    1
    55    32    33    1
