@<TRIPOS>MOLECULE
*****
 28 30 0 0 0
SMALL
GASTEIGER

@<TRIPOS>ATOM
      1 C          45.9952   12.7880  -26.0859 C.ar    1  UNL1        0.1385
      2 C          45.1463   12.9546  -24.9739 C.ar    1  UNL1        0.0366
      3 C          45.5421   12.5050  -23.7108 C.ar    1  UNL1       -0.0011
      4 C          46.7888   11.8846  -23.5362 C.ar    1  UNL1       -0.0206
      5 C          47.6365   11.7257  -24.6427 C.ar    1  UNL1       -0.0011
      6 C          47.2401   12.1743  -25.9054 C.ar    1  UNL1        0.0366
      7 O          45.6518   13.2205  -27.3776 O.3     1  UNL1       -0.4750
      8 C          46.3379   14.2243  -28.1260 C.3     1  UNL1        0.2117
      9 C          46.2167   15.5866  -27.4384 C.3     1  UNL1        0.0932
     10 C          50.0580   17.3565  -26.7287 C.ar    1  UNL1        0.0308
     11 C          49.8080   16.0459  -26.2967 C.ar    1  UNL1        0.0015
     12 C          48.5669   15.4538  -26.5322 C.ar    1  UNL1        0.0147
     13 C          47.5743   16.1799  -27.2020 C.ar    1  UNL1        0.0658
     14 N          47.8242   17.4599  -27.5905 N.ar    1  UNL1       -0.2164
     15 C          49.0253   18.0617  -27.3737 C.ar    1  UNL1        0.2170
     16 O          49.2200   19.3761  -27.7900 O.3     1  UNL1       -0.4922
     17 H          48.4800   19.8902  -28.2527 H       1  UNL1        0.2937
     18 C          51.5563   18.2607  -24.9492 C.3     1  UNL1        0.0052
     19 C          51.3887   18.0046  -26.4433 C.3     1  UNL1        0.0311
     20 C          47.2273   11.4169  -22.1712 C.3     1  UNL1        0.0468
     21 C          48.5425   10.6228  -22.2263 C.3     1  UNL1        0.1369
     22 S          48.4152    9.1607  -21.1133 S.3     1  UNL1       -0.0482
     23 C          49.6856    9.8414  -20.0603 C.2     1  UNL1        0.2792
     24 O          50.0046    9.3191  -18.9608 O.2     1  UNL1       -0.2625
     25 N          50.3033   11.0188  -20.5347 N.am    1  UNL1       -0.2460
     26 C          49.7119   11.4365  -21.7496 C.2     1  UNL1        0.2392
     27 O          50.1646   12.4184  -22.3958 O.2     1  UNL1       -0.2737
     28 H          51.0929   11.5092  -20.0585 H       1  UNL1        0.1583
@<TRIPOS>BOND
     1    18    19    1
     2    19    10    1
     3    10    11   ar
     4    11    12   ar
     5    12    13   ar
     6    13     9    1
     7     9     8    1
     8     8     7    1
     9     7     1    1
    10     1     2   ar
    11     2     3   ar
    12     3     4   ar
    13     4    20    1
    14    20    21    1
    15    21    22    1
    16    22    23    1
    17    23    24    2
    18    23    25   am
    19    25    26   am
    20    26    27    2
    21     4     5   ar
    22     5     6   ar
    23    13    14   ar
    24    14    15   ar
    25    15    16    1
    26    15    10   ar
    27     6     1   ar
    28    26    21    1
    29    25    28    1
    30    16    17    1
@<TRIPOS>MOLECULE
*****
 28 30 0 0 0
SMALL
GASTEIGER

@<TRIPOS>ATOM
      1 C          46.3892   13.4600  -23.7724 C.ar    1  UNL1        0.1385
      2 C          46.4804   12.6279  -22.6392 C.ar    1  UNL1        0.0366
      3 C          47.4659   12.8559  -21.6743 C.ar    1  UNL1       -0.0011
      4 C          48.3735   13.9160  -21.8227 C.ar    1  UNL1       -0.0206
      5 C          48.2774   14.7485  -22.9478 C.ar    1  UNL1       -0.0011
      6 C          47.2929   14.5196  -23.9127 C.ar    1  UNL1        0.0366
      7 O          45.4199   13.2802  -24.7732 O.3     1  UNL1       -0.4750
      8 C          45.2479   12.1007  -25.5591 C.3     1  UNL1        0.2117
      9 C          46.5685   11.6950  -26.2186 C.3     1  UNL1        0.0932
     10 C          46.2327   11.9743  -30.4849 C.ar    1  UNL1        0.0308
     11 C          46.0847   13.1276  -29.7008 C.ar    1  UNL1        0.0015
     12 C          46.2039   13.0529  -28.3128 C.ar    1  UNL1        0.0147
     13 C          46.4712   11.8171  -27.7108 C.ar    1  UNL1        0.0658
     14 N          46.5851   10.7032  -28.4841 N.ar    1  UNL1       -0.2164
     15 C          46.4734   10.7474  -29.8396 C.ar    1  UNL1        0.2170
     16 O          46.5947    9.5727  -30.5773 O.3     1  UNL1       -0.4922
     17 H          46.7656    8.6858  -30.1189 H       1  UNL1        0.2937
     18 C          45.3013   13.3091  -32.3769 C.3     1  UNL1        0.0052
     19 C          46.0705   12.0529  -31.9815 C.3     1  UNL1        0.0311
     20 C          49.4247   14.1771  -20.7734 C.3     1  UNL1        0.0468
     21 C          50.5976   13.1880  -20.8704 C.3     1  UNL1        0.1369
     22 S          50.4677   11.9575  -19.5060 S.3     1  UNL1       -0.0482
     23 C          51.9733   12.5879  -18.7832 C.2     1  UNL1        0.2792
     24 O          52.3998   12.2017  -17.6641 O.2     1  UNL1       -0.2625
     25 N          52.6516   13.5644  -19.5442 N.am    1  UNL1       -0.2460
     26 C          51.9259   13.8732  -20.7183 C.2     1  UNL1        0.2392
     27 O          52.3889   14.6580  -21.5880 O.2     1  UNL1       -0.2737
     28 H          53.5663   13.9938  -19.2806 H       1  UNL1        0.1583
@<TRIPOS>BOND
     1    18    19    1
     2    19    10    1
     3    10    11   ar
     4    11    12   ar
     5    12    13   ar
     6    13     9    1
     7     9     8    1
     8     8     7    1
     9     7     1    1
    10     1     2   ar
    11     2     3   ar
    12     3     4   ar
    13     4    20    1
    14    20    21    1
    15    21    22    1
    16    22    23    1
    17    23    24    2
    18    23    25   am
    19    25    26   am
    20    26    27    2
    21     4     5   ar
    22     5     6   ar
    23    13    14   ar
    24    14    15   ar
    25    15    16    1
    26    15    10   ar
    27     6     1   ar
    28    26    21    1
    29    25    28    1
    30    16    17    1
@<TRIPOS>MOLECULE
*****
 28 30 0 0 0
SMALL
GASTEIGER

@<TRIPOS>ATOM
      1 C          50.3132   10.6846  -26.5650 C.ar    1  UNL1        0.1385
      2 C          51.6024   11.2511  -26.6087 C.ar    1  UNL1        0.0366
      3 C          52.5250   10.8314  -27.5715 C.ar    1  UNL1       -0.0011
      4 C          52.1771    9.8432  -28.5052 C.ar    1  UNL1       -0.0206
      5 C          50.8908    9.2847  -28.4656 C.ar    1  UNL1       -0.0011
      6 C          49.9692    9.7038  -27.5023 C.ar    1  UNL1        0.0366
      7 O          49.3448   11.0673  -25.6220 O.3     1  UNL1       -0.4750
      8 C          48.5058   12.2188  -25.7151 C.3     1  UNL1        0.2117
      9 C          47.0606   11.8102  -26.0110 C.3     1  UNL1        0.0932
     10 C          46.1939   12.0119  -30.2063 C.ar    1  UNL1        0.0308
     11 C          46.1138   13.1739  -29.4251 C.ar    1  UNL1        0.0015
     12 C          46.4053   13.1247  -28.0617 C.ar    1  UNL1        0.0147
     13 C          46.7768   11.9055  -27.4812 C.ar    1  UNL1        0.0658
     14 N          46.8234   10.7823  -28.2479 N.ar    1  UNL1       -0.2164
     15 C          46.5442   10.8018  -29.5796 C.ar    1  UNL1        0.2170
     16 O          46.6039    9.6185  -30.3112 O.3     1  UNL1       -0.4922
     17 H          46.8531    8.7436  -29.8658 H       1  UNL1        0.2937
     18 C          45.7187   13.5054  -32.1486 C.3     1  UNL1        0.0052
     19 C          45.8463   12.0622  -31.6722 C.3     1  UNL1        0.0311
     20 C          53.1632    9.4028  -29.5579 C.3     1  UNL1        0.0468
     21 C          53.2802    7.8720  -29.6373 C.3     1  UNL1        0.1369
     22 S          55.0440    7.3866  -29.4230 S.3     1  UNL1       -0.0482
     23 C          55.0883    6.7765  -31.1000 C.2     1  UNL1        0.2792
     24 O          56.1497    6.3806  -31.6480 O.2     1  UNL1       -0.2625
     25 N          53.8524    6.7805  -31.7821 N.am    1  UNL1       -0.2460
     26 C          52.8383    7.3421  -30.9718 C.2     1  UNL1        0.2392
     27 O          51.6365    7.3670  -31.3484 O.2     1  UNL1       -0.2737
     28 H          53.7056    6.4126  -32.7484 H       1  UNL1        0.1583
@<TRIPOS>BOND
     1    18    19    1
     2    19    10    1
     3    10    11   ar
     4    11    12   ar
     5    12    13   ar
     6    13     9    1
     7     9     8    1
     8     8     7    1
     9     7     1    1
    10     1     2   ar
    11     2     3   ar
    12     3     4   ar
    13     4    20    1
    14    20    21    1
    15    21    22    1
    16    22    23    1
    17    23    24    2
    18    23    25   am
    19    25    26   am
    20    26    27    2
    21     4     5   ar
    22     5     6   ar
    23    13    14   ar
    24    14    15   ar
    25    15    16    1
    26    15    10   ar
    27     6     1   ar
    28    26    21    1
    29    25    28    1
    30    16    17    1
@<TRIPOS>MOLECULE
*****
 28 30 0 0 0
SMALL
GASTEIGER

@<TRIPOS>ATOM
      1 C          51.0837   11.9399  -23.7691 C.ar    1  UNL1        0.1385
      2 C          50.6344   12.8064  -22.7532 C.ar    1  UNL1        0.0366
      3 C          50.3325   14.1397  -23.0459 C.ar    1  UNL1       -0.0011
      4 C          50.4721   14.6289  -24.3538 C.ar    1  UNL1       -0.0206
      5 C          50.9126   13.7634  -25.3663 C.ar    1  UNL1       -0.0011
      6 C          51.2153   12.4310  -25.0732 C.ar    1  UNL1        0.0366
      7 O          51.4005   10.5915  -23.5349 O.3     1  UNL1       -0.4750
      8 C          50.9508    9.4856  -24.3179 C.3     1  UNL1        0.2117
      9 C          50.2086    8.4720  -23.4433 C.3     1  UNL1        0.0932
     10 C          48.2680   10.4934  -20.1967 C.ar    1  UNL1        0.0308
     11 C          47.7261   10.5754  -21.4876 C.ar    1  UNL1        0.0015
     12 C          48.3404    9.9123  -22.5503 C.ar    1  UNL1        0.0147
     13 C          49.5023    9.1663  -22.3164 C.ar    1  UNL1        0.0658
     14 N          50.0301    9.1194  -21.0630 N.ar    1  UNL1       -0.2164
     15 C          49.4517    9.7563  -20.0087 C.ar    1  UNL1        0.2170
     16 O          50.0416    9.6755  -18.7499 O.3     1  UNL1       -0.4922
     17 H          50.8949    9.1486  -18.6082 H       1  UNL1        0.2937
     18 C          46.4116   12.0293  -19.5459 C.3     1  UNL1        0.0052
     19 C          47.6204   11.2380  -19.0573 C.3     1  UNL1        0.0311
     20 C          50.1277   16.0611  -24.6769 C.3     1  UNL1        0.0468
     21 C          50.2125   16.3511  -26.1843 C.3     1  UNL1        0.1369
     22 S          50.8634   18.0553  -26.4384 S.3     1  UNL1       -0.0482
     23 C          49.3009   18.5560  -27.1414 C.2     1  UNL1        0.2792
     24 O          49.0452   19.7516  -27.4390 O.2     1  UNL1       -0.2625
     25 N          48.3585   17.5218  -27.3292 N.am    1  UNL1       -0.2460
     26 C          48.8647   16.2930  -26.8454 C.2     1  UNL1        0.2392
     27 O          48.2246   15.2178  -26.9894 O.2     1  UNL1       -0.2737
     28 H          47.4205   17.6455  -27.7713 H       1  UNL1        0.1583
@<TRIPOS>BOND
     1    18    19    1
     2    19    10    1
     3    10    11   ar
     4    11    12   ar
     5    12    13   ar
     6    13     9    1
     7     9     8    1
     8     8     7    1
     9     7     1    1
    10     1     2   ar
    11     2     3   ar
    12     3     4   ar
    13     4    20    1
    14    20    21    1
    15    21    22    1
    16    22    23    1
    17    23    24    2
    18    23    25   am
    19    25    26   am
    20    26    27    2
    21     4     5   ar
    22     5     6   ar
    23    13    14   ar
    24    14    15   ar
    25    15    16    1
    26    15    10   ar
    27     6     1   ar
    28    26    21    1
    29    25    28    1
    30    16    17    1
@<TRIPOS>MOLECULE
*****
 28 30 0 0 0
SMALL
GASTEIGER

@<TRIPOS>ATOM
      1 C          50.3626   17.2747  -25.9102 C.ar    1  UNL1        0.1385
      2 C          50.1013   16.1333  -26.6936 C.ar    1  UNL1        0.0366
      3 C          50.2551   14.8545  -26.1501 C.ar    1  UNL1       -0.0011
      4 C          50.6698   14.6937  -24.8191 C.ar    1  UNL1       -0.0206
      5 C          50.9228   15.8308  -24.0375 C.ar    1  UNL1       -0.0011
      6 C          50.7699   17.1090  -24.5814 C.ar    1  UNL1        0.0366
      7 O          50.2240   18.5835  -26.4014 O.3     1  UNL1       -0.4750
      8 C          49.0005   19.1856  -26.8244 C.3     1  UNL1        0.2117
      9 C          48.0103   19.2697  -25.6601 C.3     1  UNL1        0.0932
     10 C          46.2367   15.4173  -25.0227 C.ar    1  UNL1        0.0308
     11 C          46.7012   16.1569  -23.9254 C.ar    1  UNL1        0.0015
     12 C          47.2688   17.4168  -24.1175 C.ar    1  UNL1        0.0147
     13 C          47.3714   17.9345  -25.4147 C.ar    1  UNL1        0.0658
     14 N          46.9405   17.1924  -26.4708 N.ar    1  UNL1       -0.2164
     15 C          46.3831   15.9612  -26.3121 C.ar    1  UNL1        0.2170
     16 O          45.9653   15.2469  -27.4320 O.3     1  UNL1       -0.4922
     17 H          46.0699   15.6316  -28.3631 H       1  UNL1        0.2937
     18 C          46.7604   13.0019  -24.6752 C.3     1  UNL1        0.0052
     19 C          45.6543   14.0427  -24.8145 C.3     1  UNL1        0.0311
     20 C          50.8170   13.3159  -24.2238 C.3     1  UNL1        0.0468
     21 C          51.6569   12.3868  -25.1153 C.3     1  UNL1        0.1369
     22 S          50.6427   10.9256  -25.5938 S.3     1  UNL1       -0.0482
     23 C          51.7272    9.8574  -24.6616 C.2     1  UNL1        0.2792
     24 O          51.4846    8.6354  -24.4844 O.2     1  UNL1       -0.2625
     25 N          52.8737   10.4773  -24.1192 N.am    1  UNL1       -0.2460
     26 C          52.8693   11.8637  -24.3987 C.2     1  UNL1        0.2392
     27 O          53.8415   12.5995  -24.0826 O.2     1  UNL1       -0.2737
     28 H          53.6249    9.9797  -23.5914 H       1  UNL1        0.1583
@<TRIPOS>BOND
     1    18    19    1
     2    19    10    1
     3    10    11   ar
     4    11    12   ar
     5    12    13   ar
     6    13     9    1
     7     9     8    1
     8     8     7    1
     9     7     1    1
    10     1     2   ar
    11     2     3   ar
    12     3     4   ar
    13     4    20    1
    14    20    21    1
    15    21    22    1
    16    22    23    1
    17    23    24    2
    18    23    25   am
    19    25    26   am
    20    26    27    2
    21     4     5   ar
    22     5     6   ar
    23    13    14   ar
    24    14    15   ar
    25    15    16    1
    26    15    10   ar
    27     6     1   ar
    28    26    21    1
    29    25    28    1
    30    16    17    1
@<TRIPOS>MOLECULE
*****
 28 30 0 0 0
SMALL
GASTEIGER

@<TRIPOS>ATOM
      1 C          46.9098   14.9433  -23.9783 C.ar    1  UNL1        0.1385
      2 C          47.5008   16.1186  -23.4743 C.ar    1  UNL1        0.0366
      3 C          48.4228   16.0507  -22.4255 C.ar    1  UNL1       -0.0011
      4 C          48.7705   14.8122  -21.8647 C.ar    1  UNL1       -0.0206
      5 C          48.1869   13.6416  -22.3719 C.ar    1  UNL1       -0.0011
      6 C          47.2646   13.7099  -23.4195 C.ar    1  UNL1        0.0366
      7 O          45.9791   14.9497  -25.0305 O.3     1  UNL1       -0.4750
      8 C          46.1215   14.2523  -26.2682 C.3     1  UNL1        0.2117
      9 C          46.4074   15.2319  -27.4092 C.3     1  UNL1        0.0932
     10 C          50.1164   17.2800  -26.7458 C.ar    1  UNL1        0.0308
     11 C          50.0055   15.9218  -26.4144 C.ar    1  UNL1        0.0015
     12 C          48.8085   15.2404  -26.6367 C.ar    1  UNL1        0.0147
     13 C          47.7202   15.9249  -27.1918 C.ar    1  UNL1        0.0658
     14 N          47.8361   17.2492  -27.4825 N.ar    1  UNL1       -0.2164
     15 C          48.9914   17.9381  -27.2760 C.ar    1  UNL1        0.2170
     16 O          49.0479   19.2938  -27.5886 O.3     1  UNL1       -0.4922
     17 H          48.2410   19.7741  -27.9683 H       1  UNL1        0.2937
     18 C          51.5979   18.2294  -24.9757 C.3     1  UNL1        0.0052
     19 C          51.4005   18.0211  -26.4736 C.3     1  UNL1        0.0311
     20 C          49.7799   14.7337  -20.7470 C.3     1  UNL1        0.0468
     21 C          50.7080   13.5164  -20.8895 C.3     1  UNL1        0.1369
     22 S          50.3688   12.3316  -19.5207 S.3     1  UNL1       -0.0482
     23 C          52.0012   12.6176  -18.8577 C.2     1  UNL1        0.2792
     24 O          52.3772   12.1397  -17.7560 O.2     1  UNL1       -0.2625
     25 N          52.8441   13.4316  -19.6451 N.am    1  UNL1       -0.2460
     26 C          52.1574   13.8987  -20.7899 C.2     1  UNL1        0.2392
     27 O          52.7446   14.5726  -21.6774 O.2     1  UNL1       -0.2737
     28 H          53.8392   13.6520  -19.4176 H       1  UNL1        0.1583
@<TRIPOS>BOND
     1    18    19    1
     2    19    10    1
     3    10    11   ar
     4    11    12   ar
     5    12    13   ar
     6    13     9    1
     7     9     8    1
     8     8     7    1
     9     7     1    1
    10     1     2   ar
    11     2     3   ar
    12     3     4   ar
    13     4    20    1
    14    20    21    1
    15    21    22    1
    16    22    23    1
    17    23    24    2
    18    23    25   am
    19    25    26   am
    20    26    27    2
    21     4     5   ar
    22     5     6   ar
    23    13    14   ar
    24    14    15   ar
    25    15    16    1
    26    15    10   ar
    27     6     1   ar
    28    26    21    1
    29    25    28    1
    30    16    17    1
@<TRIPOS>MOLECULE
*****
 28 30 0 0 0
SMALL
GASTEIGER

@<TRIPOS>ATOM
      1 C          46.9607   11.4745  -22.6782 C.ar    1  UNL1        0.1385
      2 C          47.8520   10.4380  -22.3377 C.ar    1  UNL1        0.0366
      3 C          48.3906   10.3658  -21.0496 C.ar    1  UNL1       -0.0011
      4 C          48.0486   11.3231  -20.0821 C.ar    1  UNL1       -0.0206
      5 C          47.1554   12.3507  -20.4200 C.ar    1  UNL1       -0.0011
      6 C          46.6180   12.4233  -21.7079 C.ar    1  UNL1        0.0366
      7 O          46.3874   11.5971  -23.9549 O.3     1  UNL1       -0.4750
      8 C          47.0734   12.0141  -25.1356 C.3     1  UNL1        0.2117
      9 C          46.2622   13.0746  -25.8843 C.3     1  UNL1        0.0932
     10 C          46.2210   12.2099  -30.0846 C.ar    1  UNL1        0.0308
     11 C          45.9491   13.5127  -29.6422 C.ar    1  UNL1        0.0015
     12 C          45.9716   13.8103  -28.2794 C.ar    1  UNL1        0.0147
     13 C          46.2664   12.7971  -27.3587 C.ar    1  UNL1        0.0658
     14 N          46.5012   11.5325  -27.8030 N.ar    1  UNL1       -0.2164
     15 C          46.4857   11.2145  -29.1260 C.ar    1  UNL1        0.2170
     16 O          46.7288    9.9012  -29.5196 O.3     1  UNL1       -0.4922
     17 H          46.9177    9.1794  -28.8346 H       1  UNL1        0.2937
     18 C          45.6878   13.0911  -32.3580 C.3     1  UNL1        0.0052
     19 C          46.1634   11.8846  -31.5554 C.3     1  UNL1        0.0311
     20 C          48.6119   11.2363  -18.6859 C.3     1  UNL1        0.0468
     21 C          49.4462   12.4747  -18.3201 C.3     1  UNL1        0.1369
     22 S          50.5287   12.9185  -19.7428 S.3     1  UNL1       -0.0482
     23 C          51.9759   12.5238  -18.7752 C.2     1  UNL1        0.2792
     24 O          53.1348   12.5125  -19.2653 O.2     1  UNL1       -0.2625
     25 N          51.7350   12.2080  -17.4205 N.am    1  UNL1       -0.2460
     26 C          50.3476   12.2195  -17.1458 C.2     1  UNL1        0.2392
     27 O          49.9091   12.0496  -15.9772 O.2     1  UNL1       -0.2737
     28 H          52.4786   12.0021  -16.7169 H       1  UNL1        0.1583
@<TRIPOS>BOND
     1    18    19    1
     2    19    10    1
     3    10    11   ar
     4    11    12   ar
     5    12    13   ar
     6    13     9    1
     7     9     8    1
     8     8     7    1
     9     7     1    1
    10     1     2   ar
    11     2     3   ar
    12     3     4   ar
    13     4    20    1
    14    20    21    1
    15    21    22    1
    16    22    23    1
    17    23    24    2
    18    23    25   am
    19    25    26   am
    20    26    27    2
    21     4     5   ar
    22     5     6   ar
    23    13    14   ar
    24    14    15   ar
    25    15    16    1
    26    15    10   ar
    27     6     1   ar
    28    26    21    1
    29    25    28    1
    30    16    17    1
@<TRIPOS>MOLECULE
*****
 28 30 0 0 0
SMALL
GASTEIGER

@<TRIPOS>ATOM
      1 C          48.2250   15.8620  -25.8464 C.ar    1  UNL1        0.1385
      2 C          48.0053   15.2414  -24.6009 C.ar    1  UNL1        0.0366
      3 C          48.9874   14.4202  -24.0391 C.ar    1  UNL1       -0.0011
      4 C          50.2023   14.2063  -24.7082 C.ar    1  UNL1       -0.0206
      5 C          50.4231   14.8303  -25.9450 C.ar    1  UNL1       -0.0011
      6 C          49.4408   15.6503  -26.5068 C.ar    1  UNL1        0.0366
      7 O          47.2763   16.6978  -26.4587 O.3     1  UNL1       -0.4750
      8 C          45.8830   16.4148  -26.5895 C.3     1  UNL1        0.2117
      9 C          45.5487   16.0048  -28.0259 C.3     1  UNL1        0.0932
     10 C          46.4622   11.8559  -28.6126 C.ar    1  UNL1        0.0308
     11 C          46.1366   12.6570  -29.7167 C.ar    1  UNL1        0.0015
     12 C          45.8496   14.0110  -29.5414 C.ar    1  UNL1        0.0147
     13 C          45.8884   14.5614  -28.2542 C.ar    1  UNL1        0.0658
     14 N          46.1796   13.7641  -27.1906 N.ar    1  UNL1       -0.2164
     15 C          46.4634   12.4408  -27.3330 C.ar    1  UNL1        0.2170
     16 O          46.7492   11.6746  -26.2059 O.3     1  UNL1       -0.4922
     17 H          46.7495   12.0890  -25.2817 H       1  UNL1        0.2937
     18 C          46.8585   10.0446  -30.2833 C.3     1  UNL1        0.0052
     19 C          46.7394   10.3863  -28.8017 C.3     1  UNL1        0.0311
     20 C          51.2717   13.3374  -24.0952 C.3     1  UNL1        0.0468
     21 C          51.7678   12.2563  -25.0691 C.3     1  UNL1        0.1369
     22 S          50.4936   10.9334  -25.2070 S.3     1  UNL1       -0.0482
     23 C          51.6100    9.7674  -24.4450 C.2     1  UNL1        0.2792
     24 O          51.2571    8.6024  -24.1259 O.2     1  UNL1       -0.2625
     25 N          52.9178   10.2428  -24.2074 N.am    1  UNL1       -0.2460
     26 C          53.0305   11.6007  -24.5867 C.2     1  UNL1        0.2392
     27 O          54.1350   12.2046  -24.5417 O.2     1  UNL1       -0.2737
     28 H          53.6964    9.6691  -23.8133 H       1  UNL1        0.1583
@<TRIPOS>BOND
     1    18    19    1
     2    19    10    1
     3    10    11   ar
     4    11    12   ar
     5    12    13   ar
     6    13     9    1
     7     9     8    1
     8     8     7    1
     9     7     1    1
    10     1     2   ar
    11     2     3   ar
    12     3     4   ar
    13     4    20    1
    14    20    21    1
    15    21    22    1
    16    22    23    1
    17    23    24    2
    18    23    25   am
    19    25    26   am
    20    26    27    2
    21     4     5   ar
    22     5     6   ar
    23    13    14   ar
    24    14    15   ar
    25    15    16    1
    26    15    10   ar
    27     6     1   ar
    28    26    21    1
    29    25    28    1
    30    16    17    1
@<TRIPOS>MOLECULE
*****
 28 30 0 0 0
SMALL
GASTEIGER

@<TRIPOS>ATOM
      1 C          46.1752   13.2398  -25.7083 C.ar    1  UNL1        0.1385
      2 C          47.3278   12.4303  -25.7384 C.ar    1  UNL1        0.0366
      3 C          47.7081   11.7024  -24.6071 C.ar    1  UNL1       -0.0011
      4 C          46.9460   11.7687  -23.4305 C.ar    1  UNL1       -0.0206
      5 C          45.7943   12.5695  -23.4038 C.ar    1  UNL1       -0.0011
      6 C          45.4150   13.2978  -24.5345 C.ar    1  UNL1        0.0366
      7 O          45.7438   13.9919  -26.8137 O.3     1  UNL1       -0.4750
      8 C          46.5329   14.9427  -27.5290 C.3     1  UNL1        0.2117
      9 C          46.9034   16.1230  -26.6275 C.3     1  UNL1        0.0932
     10 C          50.0822   15.0072  -23.9737 C.ar    1  UNL1        0.0308
     11 C          50.3111   15.0341  -25.3571 C.ar    1  UNL1        0.0015
     12 C          49.2893   15.4074  -26.2306 C.ar    1  UNL1        0.0147
     13 C          48.0345   15.7531  -25.7138 C.ar    1  UNL1        0.0658
     14 N          47.8213   15.6956  -24.3711 N.ar    1  UNL1       -0.2164
     15 C          48.7997   15.3351  -23.4967 C.ar    1  UNL1        0.2170
     16 O          48.5199   15.2899  -22.1334 O.3     1  UNL1       -0.4922
     17 H          47.5982   15.5224  -21.7836 H       1  UNL1        0.2937
     18 C          51.6967   13.1881  -23.4140 C.3     1  UNL1        0.0052
     19 C          51.1785   14.5716  -23.0354 C.3     1  UNL1        0.0311
     20 C          47.3421   10.9688  -22.2150 C.3     1  UNL1        0.0468
     21 C          48.8465   11.0755  -21.9169 C.3     1  UNL1        0.1369
     22 S          49.5187    9.3941  -21.5799 S.3     1  UNL1       -0.0482
     23 C          49.8639    9.8615  -19.8921 C.2     1  UNL1        0.2792
     24 O          50.2659    9.0371  -19.0306 O.2     1  UNL1       -0.2625
     25 N          49.6414   11.2199  -19.5789 N.am    1  UNL1       -0.2460
     26 C          49.1212   11.9102  -20.6984 C.2     1  UNL1        0.2392
     27 O          48.9284   13.1546  -20.6700 O.2     1  UNL1       -0.2737
     28 H          49.8405   11.6564  -18.6514 H       1  UNL1        0.1583
@<TRIPOS>BOND
     1    18    19    1
     2    19    10    1
     3    10    11   ar
     4    11    12   ar
     5    12    13   ar
     6    13     9    1
     7     9     8    1
     8     8     7    1
     9     7     1    1
    10     1     2   ar
    11     2     3   ar
    12     3     4   ar
    13     4    20    1
    14    20    21    1
    15    21    22    1
    16    22    23    1
    17    23    24    2
    18    23    25   am
    19    25    26   am
    20    26    27    2
    21     4     5   ar
    22     5     6   ar
    23    13    14   ar
    24    14    15   ar
    25    15    16    1
    26    15    10   ar
    27     6     1   ar
    28    26    21    1
    29    25    28    1
    30    16    17    1
