@<TRIPOS>MOLECULE
*****
 47 52 0 0 0
SMALL
GASTEIGER

@<TRIPOS>ATOM
      1 C           8.0344   77.4374   22.5136 C.ar    1  UNL1        0.0702
      2 C           7.6528   76.1532   22.9184 C.ar    1  UNL1        0.0191
      3 C           6.7279   75.4228   22.1704 C.ar    1  UNL1        0.0356
      4 C           6.1703   75.9878   21.0098 C.ar    1  UNL1        0.1318
      5 N           6.5400   77.2501   20.6524 N.ar    1  UNL1       -0.2279
      6 C           7.4363   77.9804   21.3660 C.ar    1  UNL1        0.1149
      7 N           5.2153   75.2615   20.2008 N.pl3   1  UNL1       -0.2932
      8 C           4.7032   73.9553   20.6369 C.3     1  UNL1        0.0923
      9 C           3.1801   74.0142   20.8150 C.3     1  UNL1        0.0252
     10 C           2.4575   74.8776   19.7389 C.3     1  UNL1        0.0472
     11 C           3.3719   75.1563   18.5237 C.3     1  UNL1        0.0252
     12 C           4.6894   75.8324   18.9483 C.3     1  UNL1        0.0923
     13 C           1.8815   76.1983   20.2987 C.3     1  UNL1        0.2054
     14 O           2.8544   76.9080   21.0709 O.3     1  UNL1       -0.4755
     15 C           2.7880   77.1802   22.4502 C.ar    1  UNL1        0.1388
     16 C           1.7103   77.9440   22.9108 C.ar    1  UNL1        0.0369
     17 C           1.5834   78.2498   24.2666 C.ar    1  UNL1        0.0033
     18 C           2.5392   77.8012   25.1796 C.ar    1  UNL1        0.0066
     19 C           3.6356   77.0387   24.7439 C.ar    1  UNL1        0.0785
     20 C           3.7439   76.7139   23.3794 C.ar    1  UNL1        0.0433
     21 C           4.6505   76.5755   25.7197 C.2     1  UNL1        0.3381
     22 O           4.3621   75.6617   26.5374 O.2     1  UNL1       -0.2451
     23 O           5.9222   77.1443   25.7759 O.3     1  UNL1       -0.4771
     24 H           6.1883   77.9414   25.2120 H       1  UNL1        0.2954
     25 C          10.3961   78.0788   23.2007 C.2     1  UNL1        0.2839
     26 O          10.9133   77.1247   22.5605 O.2     1  UNL1       -0.2665
     27 N           8.9672   78.1872   23.3116 N.am    1  UNL1       -0.2766
     28 H           8.5806   78.7892   24.0735 H       1  UNL1        0.1553
     29 C           9.5701   81.0238   24.1560 C.3     1  UNL1        0.0345
     30 C          10.9037   80.3525   24.2938 C.ar    1  UNL1        0.0202
     31 C          11.2605   79.0661   23.8746 C.ar    1  UNL1        0.1946
     32 O          12.5259   78.8284   24.1712 O.2     1  UNL1       -0.4492
     33 C          13.0085   79.8951   24.7604 C.ar    1  UNL1        0.1452
     34 C          14.3005   80.0833   25.2385 C.ar    1  UNL1        0.0375
     35 C          14.6087   81.3158   25.8402 C.ar    1  UNL1        0.0031
     36 C          13.6265   82.3364   25.9547 C.ar    1  UNL1        0.0002
     37 C          12.3225   82.1038   25.4553 C.ar    1  UNL1        0.0028
     38 C          12.0515   80.8687   24.8643 C.ar    1  UNL1        0.0337
     39 C          13.9639   83.6344   26.5922 C.ar    1  UNL1       -0.0000
     40 C          14.1733   83.7163   27.9796 C.ar    1  UNL1       -0.0003
     41 C          14.4919   84.9376   28.5792 C.ar    1  UNL1       -0.0043
     42 C          14.6075   86.1060   27.8043 C.ar    1  UNL1       -0.0225
     43 C          14.3978   86.0237   26.4178 C.ar    1  UNL1       -0.0043
     44 C          14.0802   84.8020   25.8181 C.ar    1  UNL1       -0.0003
     45 C          14.9526   87.4388   28.4421 C.3     1  UNL1        0.0224
     46 C          13.6881   88.1786   28.8945 C.3     1  UNL1        0.0047
     47 C          15.7895   88.3054   27.4938 C.3     1  UNL1        0.0047
@<TRIPOS>BOND
     1    29    30    1
     2    30    31   ar
     3    31    25    1
     4    25    26    2
     5    25    27   am
     6    27     1    1
     7     1     2   ar
     8     2     3   ar
     9     3     4   ar
    10     4     7    1
    11     7     8    1
    12     8     9    1
    13     9    10    1
    14    10    13    1
    15    13    14    1
    16    14    15    1
    17    15    16   ar
    18    16    17   ar
    19    17    18   ar
    20    18    19   ar
    21    19    21    1
    22    21    22    2
    23    21    23    1
    24    19    20   ar
    25    10    11    1
    26    11    12    1
    27     4     5   ar
    28     5     6   ar
    29    31    32   ar
    30    32    33   ar
    31    33    34   ar
    32    34    35   ar
    33    35    36   ar
    34    36    39    1
    35    39    40   ar
    36    40    41   ar
    37    41    42   ar
    38    42    45    1
    39    45    46    1
    40    45    47    1
    41    42    43   ar
    42    43    44   ar
    43    36    37   ar
    44    37    38   ar
    45    38    30   ar
    46     6     1   ar
    47    38    33   ar
    48    12     7    1
    49    44    39   ar
    50    20    15   ar
    51    27    28    1
    52    23    24    1
@<TRIPOS>MOLECULE
*****
 47 52 0 0 0
SMALL
GASTEIGER

@<TRIPOS>ATOM
      1 C          13.3299   83.3642   24.3427 C.ar    1  UNL1        0.0702
      2 C          13.7243   83.8602   23.0948 C.ar    1  UNL1        0.0191
      3 C          14.4309   85.0604   23.0033 C.ar    1  UNL1        0.0356
      4 C          14.7373   85.7784   24.1728 C.ar    1  UNL1        0.1318
      5 N          14.3190   85.2859   25.3729 N.ar    1  UNL1       -0.2279
      6 C          13.6282   84.1214   25.4861 C.ar    1  UNL1        0.1149
      7 N          15.4757   87.0218   24.1232 N.pl3   1  UNL1       -0.2932
      8 C          16.8505   87.0573   23.6062 C.3     1  UNL1        0.0923
      9 C          16.9340   87.9785   22.3816 C.3     1  UNL1        0.0252
     10 C          16.0528   89.2572   22.4996 C.3     1  UNL1        0.0472
     11 C          15.6040   89.5075   23.9578 C.3     1  UNL1        0.0252
     12 C          14.8548   88.2924   24.5372 C.3     1  UNL1        0.0923
     13 C          14.8332   89.2505   21.5500 C.3     1  UNL1        0.2054
     14 O          15.1383   88.6048   20.3105 O.3     1  UNL1       -0.4755
     15 C          14.6014   87.3884   19.8490 C.ar    1  UNL1        0.1388
     16 C          13.2084   87.2629   19.8183 C.ar    1  UNL1        0.0369
     17 C          12.6103   86.0839   19.3710 C.ar    1  UNL1        0.0033
     18 C          13.3997   85.0105   18.9553 C.ar    1  UNL1        0.0066
     19 C          14.8010   85.1062   18.9824 C.ar    1  UNL1        0.0785
     20 C          15.3965   86.3062   19.4116 C.ar    1  UNL1        0.0433
     21 C          15.6305   83.9572   18.5484 C.2     1  UNL1        0.3381
     22 O          16.0328   83.8897   17.3565 O.2     1  UNL1       -0.2451
     23 O          15.9630   82.9246   19.4243 O.3     1  UNL1       -0.4771
     24 H          15.5978   82.8702   20.3665 H       1  UNL1        0.2954
     25 C          13.1511   80.8555   24.7106 C.2     1  UNL1        0.2839
     26 O          14.4001   80.6935   24.6740 O.2     1  UNL1       -0.2665
     27 N          12.5778   82.1403   24.4168 N.am    1  UNL1       -0.2766
     28 H          11.5646   82.1767   24.1627 H       1  UNL1        0.1553
     29 C          10.4692   80.9079   26.4633 C.3     1  UNL1        0.0345
     30 C          11.0981   79.7310   25.7798 C.ar    1  UNL1        0.0202
     31 C          12.2701   79.7123   25.0155 C.ar    1  UNL1        0.1946
     32 O          12.5038   78.4885   24.5758 O.2     1  UNL1       -0.4492
     33 C          11.5441   77.7122   25.0164 C.ar    1  UNL1        0.1452
     34 C          11.3937   76.3477   24.7952 C.ar    1  UNL1        0.0375
     35 C          10.2823   75.7048   25.3672 C.ar    1  UNL1        0.0031
     36 C           9.3425   76.4309   26.1476 C.ar    1  UNL1        0.0002
     37 C           9.5323   77.8193   26.3480 C.ar    1  UNL1        0.0028
     38 C          10.6466   78.4251   25.7653 C.ar    1  UNL1        0.0337
     39 C           8.1723   75.7408   26.7471 C.ar    1  UNL1       -0.0000
     40 C           7.3487   74.9166   25.9610 C.ar    1  UNL1       -0.0003
     41 C           6.2483   74.2662   26.5254 C.ar    1  UNL1       -0.0043
     42 C           5.9455   74.4263   27.8898 C.ar    1  UNL1       -0.0225
     43 C           6.7687   75.2504   28.6749 C.ar    1  UNL1       -0.0043
     44 C           7.8699   75.8999   28.1105 C.ar    1  UNL1       -0.0003
     45 C           4.7536   73.7265   28.5158 C.3     1  UNL1        0.0224
     46 C           4.6263   74.0759   30.0033 C.3     1  UNL1        0.0047
     47 C           4.8327   72.2092   28.3101 C.3     1  UNL1        0.0047
@<TRIPOS>BOND
     1    29    30    1
     2    30    31   ar
     3    31    25    1
     4    25    26    2
     5    25    27   am
     6    27     1    1
     7     1     2   ar
     8     2     3   ar
     9     3     4   ar
    10     4     7    1
    11     7     8    1
    12     8     9    1
    13     9    10    1
    14    10    13    1
    15    13    14    1
    16    14    15    1
    17    15    16   ar
    18    16    17   ar
    19    17    18   ar
    20    18    19   ar
    21    19    21    1
    22    21    22    2
    23    21    23    1
    24    19    20   ar
    25    10    11    1
    26    11    12    1
    27     4     5   ar
    28     5     6   ar
    29    31    32   ar
    30    32    33   ar
    31    33    34   ar
    32    34    35   ar
    33    35    36   ar
    34    36    39    1
    35    39    40   ar
    36    40    41   ar
    37    41    42   ar
    38    42    45    1
    39    45    46    1
    40    45    47    1
    41    42    43   ar
    42    43    44   ar
    43    36    37   ar
    44    37    38   ar
    45    38    30   ar
    46     6     1   ar
    47    38    33   ar
    48    12     7    1
    49    44    39   ar
    50    20    15   ar
    51    27    28    1
    52    23    24    1
@<TRIPOS>MOLECULE
*****
 47 52 0 0 0
SMALL
GASTEIGER

@<TRIPOS>ATOM
      1 C          13.4589   84.0611   23.9658 C.ar    1  UNL1        0.0702
      2 C          14.2045   84.1845   22.7878 C.ar    1  UNL1        0.0191
      3 C          15.1508   85.2017   22.6546 C.ar    1  UNL1        0.0356
      4 C          15.3462   86.1127   23.7077 C.ar    1  UNL1        0.1318
      5 N          14.5886   85.9853   24.8337 N.ar    1  UNL1       -0.2279
      6 C          13.6603   85.0048   24.9848 C.ar    1  UNL1        0.1149
      7 N          16.3232   87.1760   23.6144 N.pl3   1  UNL1       -0.2932
      8 C          15.9116   88.5445   23.2732 C.3     1  UNL1        0.0923
      9 C          16.2703   89.5072   24.4132 C.3     1  UNL1        0.0252
     10 C          17.6354   89.1905   25.0928 C.3     1  UNL1        0.0472
     11 C          18.4947   88.2383   24.2295 C.3     1  UNL1        0.0252
     12 C          17.7456   86.9305   23.9106 C.3     1  UNL1        0.0923
     13 C          17.4910   88.6387   26.5295 C.3     1  UNL1        0.2054
     14 O          16.2138   88.0263   26.7292 O.3     1  UNL1       -0.4755
     15 C          15.1876   88.4922   27.5723 C.ar    1  UNL1        0.1388
     16 C          15.5297   88.8327   28.8854 C.ar    1  UNL1        0.0369
     17 C          14.5610   89.3022   29.7736 C.ar    1  UNL1        0.0033
     18 C          13.2337   89.4298   29.3611 C.ar    1  UNL1        0.0066
     19 C          12.8605   89.0883   28.0506 C.ar    1  UNL1        0.0785
     20 C          13.8467   88.6387   27.1538 C.ar    1  UNL1        0.0433
     21 C          11.4467   89.2178   27.6252 C.2     1  UNL1        0.3381
     22 O          10.5595   89.4951   28.4756 O.2     1  UNL1       -0.2451
     23 O          11.0614   89.0163   26.3005 O.3     1  UNL1       -0.4771
     24 H          11.7066   88.7024   25.5869 H       1  UNL1        0.2954
     25 C          12.7388   81.6928   24.5435 C.2     1  UNL1        0.2839
     26 O          13.9266   81.2860   24.6496 O.2     1  UNL1       -0.2665
     27 N          12.4677   83.0243   24.0754 N.am    1  UNL1       -0.2766
     28 H          11.5077   83.2302   23.7170 H       1  UNL1        0.1553
     29 C          11.1267   81.5217   27.3074 C.3     1  UNL1        0.0345
     30 C          10.9130   80.7080   26.0663 C.ar    1  UNL1        0.0202
     31 C          11.6199   80.7855   24.8611 C.ar    1  UNL1        0.1946
     32 O          11.1402   79.9075   23.9982 O.2     1  UNL1       -0.4492
     33 C          10.1592   79.2637   24.5821 C.ar    1  UNL1        0.1452
     34 C           9.3742   78.2515   24.0413 C.ar    1  UNL1        0.0375
     35 C           8.3688   77.6928   24.8493 C.ar    1  UNL1        0.0031
     36 C           8.1636   78.1514   26.1786 C.ar    1  UNL1        0.0002
     37 C           8.9847   79.1846   26.6907 C.ar    1  UNL1        0.0028
     38 C           9.9729   79.7164   25.8608 C.ar    1  UNL1        0.0337
     39 C           7.0984   77.5534   27.0229 C.ar    1  UNL1       -0.0000
     40 C           6.6050   78.2414   28.1447 C.ar    1  UNL1       -0.0003
     41 C           5.6017   77.6791   28.9384 C.ar    1  UNL1       -0.0043
     42 C           5.0695   76.4143   28.6285 C.ar    1  UNL1       -0.0225
     43 C           5.5633   75.7270   27.5074 C.ar    1  UNL1       -0.0043
     44 C           6.5658   76.2900   26.7131 C.ar    1  UNL1       -0.0003
     45 C           3.9802   75.7916   29.4818 C.3     1  UNL1        0.0224
     46 C           3.5569   76.7362   30.6129 C.3     1  UNL1        0.0047
     47 C           4.4209   74.4312   30.0347 C.3     1  UNL1        0.0047
@<TRIPOS>BOND
     1    29    30    1
     2    30    31   ar
     3    31    25    1
     4    25    26    2
     5    25    27   am
     6    27     1    1
     7     1     2   ar
     8     2     3   ar
     9     3     4   ar
    10     4     7    1
    11     7     8    1
    12     8     9    1
    13     9    10    1
    14    10    13    1
    15    13    14    1
    16    14    15    1
    17    15    16   ar
    18    16    17   ar
    19    17    18   ar
    20    18    19   ar
    21    19    21    1
    22    21    22    2
    23    21    23    1
    24    19    20   ar
    25    10    11    1
    26    11    12    1
    27     4     5   ar
    28     5     6   ar
    29    31    32   ar
    30    32    33   ar
    31    33    34   ar
    32    34    35   ar
    33    35    36   ar
    34    36    39    1
    35    39    40   ar
    36    40    41   ar
    37    41    42   ar
    38    42    45    1
    39    45    46    1
    40    45    47    1
    41    42    43   ar
    42    43    44   ar
    43    36    37   ar
    44    37    38   ar
    45    38    30   ar
    46     6     1   ar
    47    38    33   ar
    48    12     7    1
    49    44    39   ar
    50    20    15   ar
    51    27    28    1
    52    23    24    1
@<TRIPOS>MOLECULE
*****
 47 52 0 0 0
SMALL
GASTEIGER

@<TRIPOS>ATOM
      1 C           7.8395   77.1849   23.2051 C.ar    1  UNL1        0.0702
      2 C           6.6254   76.9591   23.8636 C.ar    1  UNL1        0.0191
      3 C           5.5911   76.2752   23.2227 C.ar    1  UNL1        0.0356
      4 C           5.7694   75.8212   21.9040 C.ar    1  UNL1        0.1318
      5 N           6.9524   76.0770   21.2769 N.ar    1  UNL1       -0.2279
      6 C           7.9720   76.7425   21.8798 C.ar    1  UNL1        0.1149
      7 N           4.7265   75.1004   21.2064 N.pl3   1  UNL1       -0.2932
      8 C           3.3239   75.2171   21.6276 C.3     1  UNL1        0.0923
      9 C           2.4728   75.7929   20.4877 C.3     1  UNL1        0.0252
     10 C           2.8809   75.2717   19.0780 C.3     1  UNL1        0.0472
     11 C           3.7756   74.0143   19.1721 C.3     1  UNL1        0.0252
     12 C           5.0320   74.2746   20.0248 C.3     1  UNL1        0.0923
     13 C           3.5515   76.3501   18.1967 C.3     1  UNL1        0.2054
     14 O           3.5418   77.6294   18.8365 O.3     1  UNL1       -0.4755
     15 C           4.6506   78.2901   19.3978 C.ar    1  UNL1        0.1388
     16 C           4.4925   78.8646   20.6636 C.ar    1  UNL1        0.0369
     17 C           5.5519   79.5338   21.2781 C.ar    1  UNL1        0.0033
     18 C           6.7830   79.6438   20.6296 C.ar    1  UNL1        0.0066
     19 C           6.9677   79.0829   19.3550 C.ar    1  UNL1        0.0785
     20 C           5.9028   78.3890   18.7522 C.ar    1  UNL1        0.0433
     21 C           8.2757   79.2138   18.6704 C.2     1  UNL1        0.3381
     22 O           8.3664   79.9012   17.6187 O.2     1  UNL1       -0.2451
     23 O           9.4174   78.5718   19.1484 O.3     1  UNL1       -0.4771
     24 H           9.3954   77.9327   19.9327 H       1  UNL1        0.2954
     25 C          10.1718   78.1917   23.2934 C.2     1  UNL1        0.2839
     26 O          10.5460   77.5842   22.2548 O.2     1  UNL1       -0.2665
     27 N           8.8846   77.9162   23.8701 N.am    1  UNL1       -0.2766
     28 H           8.7249   78.1952   24.8647 H       1  UNL1        0.1553
     29 C           9.4392   81.1589   24.2557 C.3     1  UNL1        0.0345
     30 C          10.7587   80.4557   24.3666 C.ar    1  UNL1        0.0202
     31 C          11.0747   79.1596   23.9444 C.ar    1  UNL1        0.1946
     32 O          12.3402   78.8920   24.2140 O.2     1  UNL1       -0.4492
     33 C          12.8615   79.9484   24.7885 C.ar    1  UNL1        0.1452
     34 C          14.1680   80.1065   25.2374 C.ar    1  UNL1        0.0375
     35 C          14.5193   81.3330   25.8276 C.ar    1  UNL1        0.0031
     36 C          13.5651   82.3776   25.9599 C.ar    1  UNL1        0.0002
     37 C          12.2451   82.1754   25.4902 C.ar    1  UNL1        0.0028
     38 C          11.9311   80.9455   24.9098 C.ar    1  UNL1        0.0337
     39 C          13.9480   83.6691   26.5850 C.ar    1  UNL1       -0.0000
     40 C          14.1737   83.7538   27.9697 C.ar    1  UNL1       -0.0003
     41 C          14.5352   84.9688   28.5576 C.ar    1  UNL1       -0.0043
     42 C          14.6782   86.1280   27.7735 C.ar    1  UNL1       -0.0225
     43 C          14.4523   86.0428   26.3897 C.ar    1  UNL1       -0.0043
     44 C          14.0918   84.8274   25.8018 C.ar    1  UNL1       -0.0003
     45 C          15.0699   87.4539   28.3987 C.3     1  UNL1        0.0224
     46 C          13.8405   88.1955   28.9367 C.3     1  UNL1        0.0047
     47 C          15.8489   88.3246   27.4058 C.3     1  UNL1        0.0047
@<TRIPOS>BOND
     1    29    30    1
     2    30    31   ar
     3    31    25    1
     4    25    26    2
     5    25    27   am
     6    27     1    1
     7     1     2   ar
     8     2     3   ar
     9     3     4   ar
    10     4     7    1
    11     7     8    1
    12     8     9    1
    13     9    10    1
    14    10    13    1
    15    13    14    1
    16    14    15    1
    17    15    16   ar
    18    16    17   ar
    19    17    18   ar
    20    18    19   ar
    21    19    21    1
    22    21    22    2
    23    21    23    1
    24    19    20   ar
    25    10    11    1
    26    11    12    1
    27     4     5   ar
    28     5     6   ar
    29    31    32   ar
    30    32    33   ar
    31    33    34   ar
    32    34    35   ar
    33    35    36   ar
    34    36    39    1
    35    39    40   ar
    36    40    41   ar
    37    41    42   ar
    38    42    45    1
    39    45    46    1
    40    45    47    1
    41    42    43   ar
    42    43    44   ar
    43    36    37   ar
    44    37    38   ar
    45    38    30   ar
    46     6     1   ar
    47    38    33   ar
    48    12     7    1
    49    44    39   ar
    50    20    15   ar
    51    27    28    1
    52    23    24    1
@<TRIPOS>MOLECULE
*****
 47 52 0 0 0
SMALL
GASTEIGER

@<TRIPOS>ATOM
      1 C           8.8308   79.2726   28.2772 C.ar    1  UNL1        0.0702
      2 C           8.8979   78.6789   29.5428 C.ar    1  UNL1        0.0191
      3 C           7.9140   77.7779   29.9531 C.ar    1  UNL1        0.0356
      4 C           6.8448   77.4753   29.0916 C.ar    1  UNL1        0.1318
      5 N           6.7899   78.0871   27.8748 N.ar    1  UNL1       -0.2279
      6 C           7.7346   78.9688   27.4552 C.ar    1  UNL1        0.1149
      7 N           5.8089   76.5400   29.4740 N.pl3   1  UNL1       -0.2932
      8 C           4.4569   76.6466   28.9092 C.3     1  UNL1        0.0923
      9 C           4.1014   75.3690   28.1369 C.3     1  UNL1        0.0252
     10 C           4.6253   74.0656   28.8092 C.3     1  UNL1        0.0472
     11 C           5.0377   74.3087   30.2793 C.3     1  UNL1        0.0252
     12 C           6.0925   75.4255   30.3953 C.3     1  UNL1        0.0923
     13 C           5.7762   73.3927   28.0270 C.3     1  UNL1        0.2054
     14 O           6.0531   74.0837   26.8054 O.3     1  UNL1       -0.4755
     15 C           7.2264   74.7977   26.4981 C.ar    1  UNL1        0.1388
     16 C           7.3052   75.4087   25.2420 C.ar    1  UNL1        0.0369
     17 C           8.4399   76.1327   24.8734 C.ar    1  UNL1        0.0033
     18 C           9.5156   76.2486   25.7553 C.ar    1  UNL1        0.0066
     19 C           9.4666   75.6392   27.0201 C.ar    1  UNL1        0.0785
     20 C           8.3099   74.9313   27.3941 C.ar    1  UNL1        0.0433
     21 C          10.6181   75.7596   27.9455 C.2     1  UNL1        0.3381
     22 O          10.8650   74.8328   28.7622 O.2     1  UNL1       -0.2451
     23 O          11.4316   76.8919   27.9553 O.3     1  UNL1       -0.4771
     24 H          11.2353   77.7090   27.3915 H       1  UNL1        0.2954
     25 C          10.7379   80.0301   26.7773 C.2     1  UNL1        0.2839
     26 O          10.8577   78.8952   26.2432 O.2     1  UNL1       -0.2665
     27 N           9.8378   80.2204   27.8814 N.am    1  UNL1       -0.2766
     28 H           9.9749   81.0634   28.4839 H       1  UNL1        0.1553
     29 C          11.0013   81.0607   23.7547 C.3     1  UNL1        0.0345
     30 C          11.6726   81.6130   24.9763 C.ar    1  UNL1        0.0202
     31 C          11.5552   81.1595   26.2949 C.ar    1  UNL1        0.1946
     32 O          12.2986   81.9017   27.0962 O.2     1  UNL1       -0.4492
     33 C          12.8929   82.8127   26.3650 C.ar    1  UNL1        0.1452
     34 C          13.7685   83.8024   26.7973 C.ar    1  UNL1        0.0375
     35 C          14.2967   84.6821   25.8366 C.ar    1  UNL1        0.0031
     36 C          13.9439   84.5605   24.4654 C.ar    1  UNL1        0.0002
     37 C          13.0484   83.5391   24.0672 C.ar    1  UNL1        0.0028
     38 C          12.5432   82.6836   25.0476 C.ar    1  UNL1        0.0337
     39 C          14.5084   85.4956   23.4594 C.ar    1  UNL1       -0.0000
     40 C          14.7202   85.0773   22.1344 C.ar    1  UNL1       -0.0003
     41 C          15.2503   85.9576   21.1875 C.ar    1  UNL1       -0.0043
     42 C          15.5819   87.2772   21.5448 C.ar    1  UNL1       -0.0225
     43 C          15.3704   87.6947   22.8693 C.ar    1  UNL1       -0.0043
     44 C          14.8392   86.8144   23.8158 C.ar    1  UNL1       -0.0003
     45 C          16.1586   88.2436   20.5271 C.3     1  UNL1        0.0224
     46 C          17.3742   88.9848   21.0961 C.3     1  UNL1        0.0047
     47 C          15.0923   89.2290   20.0344 C.3     1  UNL1        0.0047
@<TRIPOS>BOND
     1    29    30    1
     2    30    31   ar
     3    31    25    1
     4    25    26    2
     5    25    27   am
     6    27     1    1
     7     1     2   ar
     8     2     3   ar
     9     3     4   ar
    10     4     7    1
    11     7     8    1
    12     8     9    1
    13     9    10    1
    14    10    13    1
    15    13    14    1
    16    14    15    1
    17    15    16   ar
    18    16    17   ar
    19    17    18   ar
    20    18    19   ar
    21    19    21    1
    22    21    22    2
    23    21    23    1
    24    19    20   ar
    25    10    11    1
    26    11    12    1
    27     4     5   ar
    28     5     6   ar
    29    31    32   ar
    30    32    33   ar
    31    33    34   ar
    32    34    35   ar
    33    35    36   ar
    34    36    39    1
    35    39    40   ar
    36    40    41   ar
    37    41    42   ar
    38    42    45    1
    39    45    46    1
    40    45    47    1
    41    42    43   ar
    42    43    44   ar
    43    36    37   ar
    44    37    38   ar
    45    38    30   ar
    46     6     1   ar
    47    38    33   ar
    48    12     7    1
    49    44    39   ar
    50    20    15   ar
    51    27    28    1
    52    23    24    1
@<TRIPOS>MOLECULE
*****
 47 52 0 0 0
SMALL
GASTEIGER

@<TRIPOS>ATOM
      1 C           9.8734   77.4143   27.4041 C.ar    1  UNL1        0.0702
      2 C          10.1945   76.5588   28.4642 C.ar    1  UNL1        0.0191
      3 C           9.2661   75.6225   28.9220 C.ar    1  UNL1        0.0356
      4 C           7.9979   75.5482   28.3194 C.ar    1  UNL1        0.1318
      5 N           7.7020   76.4104   27.3060 N.ar    1  UNL1       -0.2279
      6 C           8.5886   77.3311   26.8455 C.ar    1  UNL1        0.1149
      7 N           7.0096   74.5862   28.7572 N.pl3   1  UNL1       -0.2932
      8 C           7.1572   73.8922   30.0437 C.3     1  UNL1        0.0923
      9 C           5.9684   74.2126   30.9598 C.3     1  UNL1        0.0252
     10 C           4.6065   74.3001   30.2095 C.3     1  UNL1        0.0472
     11 C           4.6903   73.6688   28.8007 C.3     1  UNL1        0.0252
     12 C           5.8037   74.3155   27.9547 C.3     1  UNL1        0.0923
     13 C           4.0434   75.7372   30.1276 C.3     1  UNL1        0.2054
     14 O           4.8466   76.6575   30.8721 O.3     1  UNL1       -0.4755
     15 C           5.7413   77.6045   30.3396 C.ar    1  UNL1        0.1388
     16 C           5.3333   78.3200   29.2088 C.ar    1  UNL1        0.0369
     17 C           6.1714   79.2746   28.6307 C.ar    1  UNL1        0.0033
     18 C           7.4339   79.5204   29.1728 C.ar    1  UNL1        0.0066
     19 C           7.8724   78.8114   30.3035 C.ar    1  UNL1        0.0785
     20 C           7.0127   77.8681   30.8952 C.ar    1  UNL1        0.0433
     21 C           9.2187   79.0726   30.8656 C.2     1  UNL1        0.3381
     22 O           9.4393   78.8607   32.0876 O.2     1  UNL1       -0.2451
     23 O          10.2540   79.5742   30.0779 O.3     1  UNL1       -0.4771
     24 H          10.1201   79.8521   29.1141 H       1  UNL1        0.2954
     25 C          11.2993   78.5138   25.6101 C.2     1  UNL1        0.2839
     26 O          11.0766   77.5959   24.7760 O.2     1  UNL1       -0.2665
     27 N          10.8317   78.3924   26.9636 N.am    1  UNL1       -0.2766
     28 H          11.2740   79.0004   27.6897 H       1  UNL1        0.1553
     29 C          10.1623   81.4462   24.9975 C.3     1  UNL1        0.0345
     30 C          11.5866   80.9817   24.9397 C.ar    1  UNL1        0.0202
     31 C          12.0791   79.6995   25.2075 C.ar    1  UNL1        0.1946
     32 O          13.3909   79.6772   25.0515 O.2     1  UNL1       -0.4492
     33 C          13.7745   80.8788   24.6953 C.ar    1  UNL1        0.1452
     34 C          15.0698   81.3053   24.4241 C.ar    1  UNL1        0.0375
     35 C          15.2588   82.6482   24.0542 C.ar    1  UNL1        0.0031
     36 C          14.1566   83.5403   23.9615 C.ar    1  UNL1        0.0002
     37 C          12.8538   83.0657   24.2466 C.ar    1  UNL1        0.0028
     38 C          12.7029   81.7268   24.6109 C.ar    1  UNL1        0.0337
     39 C          14.3685   84.9569   23.5696 C.ar    1  UNL1       -0.0000
     40 C          15.0250   85.2755   22.3683 C.ar    1  UNL1       -0.0003
     41 C          15.2233   86.6085   21.9990 C.ar    1  UNL1       -0.0043
     42 C          14.7701   87.6540   22.8239 C.ar    1  UNL1       -0.0225
     43 C          14.1144   87.3350   24.0245 C.ar    1  UNL1       -0.0043
     44 C          13.9152   86.0018   24.3932 C.ar    1  UNL1       -0.0003
     45 C          14.9790   89.1058   22.4355 C.3     1  UNL1        0.0224
     46 C          14.0595   89.5051   21.2753 C.3     1  UNL1        0.0047
     47 C          16.4484   89.3811   22.0950 C.3     1  UNL1        0.0047
@<TRIPOS>BOND
     1    29    30    1
     2    30    31   ar
     3    31    25    1
     4    25    26    2
     5    25    27   am
     6    27     1    1
     7     1     2   ar
     8     2     3   ar
     9     3     4   ar
    10     4     7    1
    11     7     8    1
    12     8     9    1
    13     9    10    1
    14    10    13    1
    15    13    14    1
    16    14    15    1
    17    15    16   ar
    18    16    17   ar
    19    17    18   ar
    20    18    19   ar
    21    19    21    1
    22    21    22    2
    23    21    23    1
    24    19    20   ar
    25    10    11    1
    26    11    12    1
    27     4     5   ar
    28     5     6   ar
    29    31    32   ar
    30    32    33   ar
    31    33    34   ar
    32    34    35   ar
    33    35    36   ar
    34    36    39    1
    35    39    40   ar
    36    40    41   ar
    37    41    42   ar
    38    42    45    1
    39    45    46    1
    40    45    47    1
    41    42    43   ar
    42    43    44   ar
    43    36    37   ar
    44    37    38   ar
    45    38    30   ar
    46     6     1   ar
    47    38    33   ar
    48    12     7    1
    49    44    39   ar
    50    20    15   ar
    51    27    28    1
    52    23    24    1
@<TRIPOS>MOLECULE
*****
 47 52 0 0 0
SMALL
GASTEIGER

@<TRIPOS>ATOM
      1 C          10.1601   78.6684   26.9697 C.ar    1  UNL1        0.0702
      2 C          10.5952   77.8543   28.0216 C.ar    1  UNL1        0.0191
      3 C           9.8575   76.7301   28.3960 C.ar    1  UNL1        0.0356
      4 C           8.6650   76.4227   27.7173 C.ar    1  UNL1        0.1318
      5 N           8.2508   77.2468   26.7137 N.ar    1  UNL1       -0.2279
      6 C           8.9511   78.3473   26.3336 C.ar    1  UNL1        0.1149
      7 N           7.8751   75.2620   28.0674 N.pl3   1  UNL1       -0.2932
      8 C           8.3391   74.3220   29.0968 C.3     1  UNL1        0.0923
      9 C           7.3339   74.2633   30.2549 C.3     1  UNL1        0.0252
     10 C           5.8471   74.3327   29.7966 C.3     1  UNL1        0.0472
     11 C           5.7037   74.0533   28.2827 C.3     1  UNL1        0.0252
     12 C           6.5623   75.0188   27.4438 C.3     1  UNL1        0.0923
     13 C           5.1520   75.6615   30.1713 C.3     1  UNL1        0.2054
     14 O           6.0250   76.5179   30.9134 O.3     1  UNL1       -0.4755
     15 C           6.6457   77.6890   30.4402 C.ar    1  UNL1        0.1388
     16 C           6.0906   78.3101   29.3162 C.ar    1  UNL1        0.0369
     17 C           6.6560   79.4750   28.7955 C.ar    1  UNL1        0.0033
     18 C           7.7908   80.0302   29.3890 C.ar    1  UNL1        0.0066
     19 C           8.3735   79.4236   30.5142 C.ar    1  UNL1        0.0785
     20 C           7.7839   78.2632   31.0479 C.ar    1  UNL1        0.0433
     21 C           9.5843   80.0153   31.1311 C.2     1  UNL1        0.3381
     22 O          10.7257   79.6856   30.7122 O.2     1  UNL1       -0.2451
     23 O           9.4973   80.9187   32.1895 O.3     1  UNL1       -0.4771
     24 H           8.6191   81.1554   32.6332 H       1  UNL1        0.2954
     25 C          11.7168   79.9557   25.4267 C.2     1  UNL1        0.2839
     26 O          11.9973   78.9329   24.7465 O.2     1  UNL1       -0.2665
     27 N          10.9176   79.8389   26.6155 N.am    1  UNL1       -0.2766
     28 H          10.9513   80.6230   27.3059 H       1  UNL1        0.1553
     29 C          14.7923   80.7444   24.9944 C.3     1  UNL1        0.0345
     30 C          13.5868   81.6215   24.8348 C.ar    1  UNL1        0.0202
     31 C          12.2450   81.2732   25.0251 C.ar    1  UNL1        0.1946
     32 O          11.4691   82.3160   24.7882 O.2     1  UNL1       -0.4492
     33 C          12.2388   83.3231   24.4548 C.ar    1  UNL1        0.1452
     34 C          11.8430   84.6144   24.1244 C.ar    1  UNL1        0.0375
     35 C          12.8419   85.5476   23.7971 C.ar    1  UNL1        0.0031
     36 C          14.2142   85.1787   23.8047 C.ar    1  UNL1        0.0002
     37 C          14.5745   83.8531   24.1465 C.ar    1  UNL1        0.0028
     38 C          13.5568   82.9528   24.4657 C.ar    1  UNL1        0.0337
     39 C          15.2607   86.1734   23.4573 C.ar    1  UNL1       -0.0000
     40 C          15.6563   86.3575   22.1213 C.ar    1  UNL1       -0.0003
     41 C          16.6402   87.2944   21.7944 C.ar    1  UNL1       -0.0043
     42 C          17.2520   88.0683   22.7972 C.ar    1  UNL1       -0.0225
     43 C          16.8564   87.8836   24.1323 C.ar    1  UNL1       -0.0043
     44 C          15.8716   86.9474   24.4590 C.ar    1  UNL1       -0.0003
     45 C          18.3219   89.0889   22.4566 C.3     1  UNL1        0.0224
     46 C          18.5413   89.1746   20.9415 C.3     1  UNL1        0.0047
     47 C          19.6337   88.7796   23.1876 C.3     1  UNL1        0.0047
@<TRIPOS>BOND
     1    29    30    1
     2    30    31   ar
     3    31    25    1
     4    25    26    2
     5    25    27   am
     6    27     1    1
     7     1     2   ar
     8     2     3   ar
     9     3     4   ar
    10     4     7    1
    11     7     8    1
    12     8     9    1
    13     9    10    1
    14    10    13    1
    15    13    14    1
    16    14    15    1
    17    15    16   ar
    18    16    17   ar
    19    17    18   ar
    20    18    19   ar
    21    19    21    1
    22    21    22    2
    23    21    23    1
    24    19    20   ar
    25    10    11    1
    26    11    12    1
    27     4     5   ar
    28     5     6   ar
    29    31    32   ar
    30    32    33   ar
    31    33    34   ar
    32    34    35   ar
    33    35    36   ar
    34    36    39    1
    35    39    40   ar
    36    40    41   ar
    37    41    42   ar
    38    42    45    1
    39    45    46    1
    40    45    47    1
    41    42    43   ar
    42    43    44   ar
    43    36    37   ar
    44    37    38   ar
    45    38    30   ar
    46     6     1   ar
    47    38    33   ar
    48    12     7    1
    49    44    39   ar
    50    20    15   ar
    51    27    28    1
    52    23    24    1
