@<TRIPOS>MOLECULE
*****
 47 52 0 0 0
SMALL
GASTEIGER

@<TRIPOS>ATOM
      1 C          -7.3533  -14.0177   27.7638 C.ar    1  UNL1        0.0702
      2 C          -8.6419  -14.5308   27.9772 C.ar    1  UNL1        0.0191
      3 C          -9.4579  -13.9841   28.9690 C.ar    1  UNL1        0.0356
      4 C          -8.9716  -12.9367   29.7674 C.ar    1  UNL1        0.1318
      5 N          -7.7144  -12.4615   29.5465 N.ar    1  UNL1       -0.2279
      6 C          -6.9028  -12.9782   28.5864 C.ar    1  UNL1        0.1149
      7 N          -9.7919  -12.3324   30.7852 N.pl3   1  UNL1       -0.2932
      8 C         -11.1830  -12.7542   31.0022 C.3     1  UNL1        0.0923
      9 C         -12.1208  -11.5363   31.0551 C.3     1  UNL1        0.0252
     10 C         -11.4526  -10.2683   31.6541 C.3     1  UNL1        0.0472
     11 C         -10.2461  -10.6290   32.5402 C.3     1  UNL1        0.0252
     12 C          -9.1828  -11.3651   31.7104 C.3     1  UNL1        0.0923
     13 C         -12.4672   -9.4175   32.4415 C.3     1  UNL1        0.2054
     14 O         -12.6841   -8.1567   31.8053 O.3     1  UNL1       -0.4755
     15 C         -11.6856   -7.3280   31.2669 C.ar    1  UNL1        0.1388
     16 C         -11.9293   -5.9542   31.2202 C.ar    1  UNL1        0.0382
     17 C         -10.9756   -5.0807   30.6982 C.ar    1  UNL1        0.0174
     18 C          -9.7515   -5.5637   30.2144 C.ar    1  UNL1        0.0480
     19 N          -8.7723   -4.6216   29.7546 N.pl3   1  UNL1       -0.3568
     20 C          -9.4946   -6.9568   30.2409 C.ar    1  UNL1        0.0913
     21 C         -10.4617   -7.8241   30.7801 C.ar    1  UNL1        0.0446
     22 H          -7.7764   -4.8882   29.5974 H       1  UNL1        0.1424
     23 H          -9.0141   -3.6095   29.6648 H       1  UNL1        0.1424
     24 C          -8.2561   -7.5404   29.6772 C.2     1  UNL1        0.3393
     25 O          -7.1621   -6.9252   29.7810 O.2     1  UNL1       -0.2450
     26 O          -8.2854   -8.7519   28.9899 O.3     1  UNL1       -0.4771
     27 H          -9.1338   -9.2998   28.9136 H       1  UNL1        0.2954
     28 C          -6.8773  -14.9149   25.4353 C.2     1  UNL1        0.2839
     29 O          -8.0838  -14.8119   25.0870 O.2     1  UNL1       -0.2665
     30 N          -6.4717  -14.5684   26.7713 N.am    1  UNL1       -0.2766
     31 H          -5.4667  -14.6665   27.0327 H       1  UNL1        0.1553
     32 C          -4.2951  -16.7894   25.9853 C.3     1  UNL1        0.0345
     33 C          -4.7992  -16.2458   24.6828 C.ar    1  UNL1        0.0202
     34 C          -5.9055  -15.4192   24.4498 C.ar    1  UNL1        0.1946
     35 O          -5.9736  -15.1068   23.1676 O.2     1  UNL1       -0.4492
     36 C          -4.9841  -15.7078   22.5534 C.ar    1  UNL1        0.1452
     37 C          -4.6770  -15.6617   21.1979 C.ar    1  UNL1        0.0375
     38 C          -3.5583  -16.3860   20.7497 C.ar    1  UNL1        0.0031
     39 C          -2.7671  -17.1408   21.6580 C.ar    1  UNL1        0.0002
     40 C          -3.1145  -17.1597   23.0301 C.ar    1  UNL1        0.0028
     41 C          -4.2318  -16.4310   23.4382 C.ar    1  UNL1        0.0337
     42 C          -1.5877  -17.9019   21.1733 C.ar    1  UNL1        0.0000
     43 C          -0.7460  -17.3630   20.1817 C.ar    1  UNL1        0.0000
     44 C           0.3645  -18.0815   19.7281 C.ar    1  UNL1        0.0000
     45 C           0.6469  -19.3430   20.2567 C.ar    1  UNL1        0.0000
     46 C          -0.1805  -19.8887   21.2406 C.ar    1  UNL1        0.0000
     47 C          -1.2918  -19.1742   21.6987 C.ar    1  UNL1        0.0000
@<TRIPOS>BOND
     1    32    33    1
     2    33    34   ar
     3    34    28    1
     4    28    29    2
     5    28    30   am
     6    30     1    1
     7     1     2   ar
     8     2     3   ar
     9     3     4   ar
    10     4     7    1
    11     7     8    1
    12     8     9    1
    13     9    10    1
    14    10    13    1
    15    13    14    1
    16    14    15    1
    17    15    16   ar
    18    16    17   ar
    19    17    18   ar
    20    18    19    1
    21    18    20   ar
    22    20    24    1
    23    24    25    2
    24    24    26    1
    25    20    21   ar
    26    10    11    1
    27    11    12    1
    28     4     5   ar
    29     5     6   ar
    30    34    35   ar
    31    35    36   ar
    32    36    37   ar
    33    37    38   ar
    34    38    39   ar
    35    39    42    1
    36    42    43   ar
    37    43    44   ar
    38    44    45   ar
    39    45    46   ar
    40    46    47   ar
    41    39    40   ar
    42    40    41   ar
    43    41    33   ar
    44     6     1   ar
    45    41    36   ar
    46    12     7    1
    47    47    42   ar
    48    21    15   ar
    49    30    31    1
    50    19    22    1
    51    19    23    1
    52    26    27    1
@<TRIPOS>MOLECULE
*****
 47 52 0 0 0
SMALL
GASTEIGER

@<TRIPOS>ATOM
      1 C          -7.1069  -14.1971   27.5095 C.ar    1  UNL1        0.0702
      2 C          -8.4170  -14.6562   27.7145 C.ar    1  UNL1        0.0191
      3 C          -9.2357  -14.0378   28.6609 C.ar    1  UNL1        0.0356
      4 C          -8.7314  -12.9722   29.4234 C.ar    1  UNL1        0.1318
      5 N          -7.4538  -12.5503   29.2118 N.ar    1  UNL1       -0.2279
      6 C          -6.6392  -13.1371   28.2956 C.ar    1  UNL1        0.1149
      7 N          -9.5529  -12.2950   30.3931 N.pl3   1  UNL1       -0.2932
      8 C         -11.0009  -12.5331   30.4742 C.3     1  UNL1        0.0923
      9 C         -11.7723  -11.2026   30.4995 C.3     1  UNL1        0.0252
     10 C         -10.9999  -10.0547   31.2056 C.3     1  UNL1        0.0472
     11 C          -9.9348  -10.6009   32.1740 C.3     1  UNL1        0.0252
     12 C          -8.9073  -11.4469   31.4064 C.3     1  UNL1        0.0923
     13 C         -11.9606   -9.1002   31.9401 C.3     1  UNL1        0.2054
     14 O         -11.9687   -7.8086   31.3290 O.3     1  UNL1       -0.4755
     15 C         -10.8363   -7.0208   31.0631 C.ar    1  UNL1        0.1388
     16 C         -10.9105   -6.0991   30.0171 C.ar    1  UNL1        0.0382
     17 C          -9.8195   -5.2880   29.7062 C.ar    1  UNL1        0.0174
     18 C          -8.6283   -5.3783   30.4402 C.ar    1  UNL1        0.0480
     19 N          -7.5587   -4.4735   30.1318 N.pl3   1  UNL1       -0.3568
     20 C          -8.5316   -6.3190   31.4952 C.ar    1  UNL1        0.0913
     21 C          -9.6439   -7.1225   31.8040 C.ar    1  UNL1        0.0446
     22 H          -6.7473   -4.3344   30.7721 H       1  UNL1        0.1424
     23 H          -7.6196   -3.8480   29.2976 H       1  UNL1        0.1424
     24 C          -7.2798   -6.5190   32.2601 C.2     1  UNL1        0.3393
     25 O          -6.1640   -6.3154   31.7128 O.2     1  UNL1       -0.2450
     26 O          -7.3117   -6.9733   33.5768 O.3     1  UNL1       -0.4771
     27 H          -8.1851   -7.1146   34.0698 H       1  UNL1        0.2954
     28 C          -6.5402  -15.0257   25.1760 C.2     1  UNL1        0.2839
     29 O          -7.6769  -14.7171   24.7284 O.2     1  UNL1       -0.2665
     30 N          -6.2228  -14.8217   26.5641 N.am    1  UNL1       -0.2766
     31 H          -5.2749  -15.0894   26.9074 H       1  UNL1        0.1553
     32 C          -4.0657  -16.9841   25.9007 C.3     1  UNL1        0.0345
     33 C          -4.5020  -16.4816   24.5578 C.ar    1  UNL1        0.0202
     34 C          -5.5611  -15.6190   24.2489 C.ar    1  UNL1        0.1946
     35 O          -5.5734  -15.3654   22.9520 O.2     1  UNL1       -0.4492
     36 C          -4.5931  -16.0383   22.4007 C.ar    1  UNL1        0.1452
     37 C          -4.2406  -16.0706   21.0559 C.ar    1  UNL1        0.0375
     38 C          -3.1424  -16.8643   20.6805 C.ar    1  UNL1        0.0031
     39 C          -2.4163  -17.6091   21.6494 C.ar    1  UNL1        0.0002
     40 C          -2.8084  -17.5470   23.0081 C.ar    1  UNL1        0.0028
     41 C          -3.9037  -16.7510   23.3434 C.ar    1  UNL1        0.0337
     42 C          -1.2580  -18.4438   21.2413 C.ar    1  UNL1        0.0000
     43 C          -0.2518  -17.9151   20.4106 C.ar    1  UNL1        0.0000
     44 C           0.8384  -18.7033   20.0289 C.ar    1  UNL1        0.0000
     45 C           0.9366  -20.0247   20.4700 C.ar    1  UNL1        0.0000
     46 C          -0.0550  -20.5610   21.2943 C.ar    1  UNL1        0.0000
     47 C          -1.1469  -19.7772   21.6799 C.ar    1  UNL1        0.0000
@<TRIPOS>BOND
     1    32    33    1
     2    33    34   ar
     3    34    28    1
     4    28    29    2
     5    28    30   am
     6    30     1    1
     7     1     2   ar
     8     2     3   ar
     9     3     4   ar
    10     4     7    1
    11     7     8    1
    12     8     9    1
    13     9    10    1
    14    10    13    1
    15    13    14    1
    16    14    15    1
    17    15    16   ar
    18    16    17   ar
    19    17    18   ar
    20    18    19    1
    21    18    20   ar
    22    20    24    1
    23    24    25    2
    24    24    26    1
    25    20    21   ar
    26    10    11    1
    27    11    12    1
    28     4     5   ar
    29     5     6   ar
    30    34    35   ar
    31    35    36   ar
    32    36    37   ar
    33    37    38   ar
    34    38    39   ar
    35    39    42    1
    36    42    43   ar
    37    43    44   ar
    38    44    45   ar
    39    45    46   ar
    40    46    47   ar
    41    39    40   ar
    42    40    41   ar
    43    41    33   ar
    44     6     1   ar
    45    41    36   ar
    46    12     7    1
    47    47    42   ar
    48    21    15   ar
    49    30    31    1
    50    19    22    1
    51    19    23    1
    52    26    27    1
@<TRIPOS>MOLECULE
*****
 47 52 0 0 0
SMALL
GASTEIGER

@<TRIPOS>ATOM
      1 C          -6.6032  -14.8486   26.9487 C.ar    1  UNL1        0.0702
      2 C          -7.9375  -15.2465   27.1231 C.ar    1  UNL1        0.0191
      3 C          -8.7710  -14.5403   27.9919 C.ar    1  UNL1        0.0356
      4 C          -8.2587  -13.4472   28.7086 C.ar    1  UNL1        0.1318
      5 N          -6.9580  -13.0855   28.5285 N.ar    1  UNL1       -0.2279
      6 C          -6.1286  -13.7582   27.6877 C.ar    1  UNL1        0.1149
      7 N          -9.0938  -12.6807   29.5969 N.pl3   1  UNL1       -0.2932
      8 C          -8.5275  -11.6790   30.5112 C.3     1  UNL1        0.0923
      9 C          -9.0603  -11.8810   31.9399 C.3     1  UNL1        0.0252
     10 C         -10.5111  -12.4344   31.9852 C.3     1  UNL1        0.0472
     11 C         -11.2692  -12.1433   30.6771 C.3     1  UNL1        0.0252
     12 C         -10.5548  -12.8124   29.4926 C.3     1  UNL1        0.0923
     13 C         -11.2864  -11.8791   33.1951 C.3     1  UNL1        0.2054
     14 O         -10.9449  -10.5138   33.4418 O.3     1  UNL1       -0.4755
     15 C         -11.1434   -9.4457   32.5511 C.ar    1  UNL1        0.1388
     16 C         -12.4496   -8.9973   32.3468 C.ar    1  UNL1        0.0382
     17 C         -12.7097   -7.9398   31.4755 C.ar    1  UNL1        0.0174
     18 C         -11.6648   -7.3027   30.7912 C.ar    1  UNL1        0.0480
     19 N         -11.9719   -6.1729   29.9624 N.pl3   1  UNL1       -0.3568
     20 C         -10.3351   -7.7554   30.9761 C.ar    1  UNL1        0.0913
     21 C         -10.0873   -8.8159   31.8661 C.ar    1  UNL1        0.0446
     22 H         -11.2340   -5.5248   29.6117 H       1  UNL1        0.1424
     23 H         -12.9651   -5.9101   29.7740 H       1  UNL1        0.1424
     24 C          -9.1952   -7.1781   30.2281 C.2     1  UNL1        0.3393
     25 O          -8.0193   -7.3226   30.6553 O.2     1  UNL1       -0.2450
     26 O          -9.4044   -6.4341   29.0689 O.3     1  UNL1       -0.4771
     27 H         -10.3277   -6.3229   28.6675 H       1  UNL1        0.2954
     28 C          -5.6147  -15.3540   24.6638 C.2     1  UNL1        0.2839
     29 O          -6.3983  -14.5550   24.0849 O.2     1  UNL1       -0.2665
     30 N          -5.7046  -15.5633   26.0842 N.am    1  UNL1       -0.2766
     31 H          -5.0449  -16.2330   26.5362 H       1  UNL1        0.1553
     32 C          -3.4272  -17.5198   25.6679 C.3     1  UNL1        0.0345
     33 C          -3.6932  -17.0314   24.2762 C.ar    1  UNL1        0.0202
     34 C          -4.6270  -16.0801   23.8469 C.ar    1  UNL1        0.1946
     35 O          -4.5025  -15.8798   22.5466 O.2     1  UNL1       -0.4492
     36 C          -3.5538  -16.6697   22.1064 C.ar    1  UNL1        0.1452
     37 C          -3.0934  -16.7923   20.8000 C.ar    1  UNL1        0.0375
     38 C          -2.0554  -17.7070   20.5493 C.ar    1  UNL1        0.0031
     39 C          -1.4956  -18.4807   21.6022 C.ar    1  UNL1        0.0002
     40 C          -1.9934  -18.3241   22.9181 C.ar    1  UNL1        0.0028
     41 C          -3.0248  -17.4089   23.1290 C.ar    1  UNL1        0.0337
     42 C          -0.3995  -19.4436   21.3257 C.ar    1  UNL1        0.0000
     43 C           0.8128  -19.0052   20.7596 C.ar    1  UNL1        0.0000
     44 C           1.8436  -19.9141   20.5014 C.ar    1  UNL1        0.0000
     45 C           1.6770  -21.2674   20.8035 C.ar    1  UNL1        0.0000
     46 C           0.4791  -21.7149   21.3650 C.ar    1  UNL1        0.0000
     47 C          -0.5547  -20.8103   21.6263 C.ar    1  UNL1        0.0000
@<TRIPOS>BOND
     1    32    33    1
     2    33    34   ar
     3    34    28    1
     4    28    29    2
     5    28    30   am
     6    30     1    1
     7     1     2   ar
     8     2     3   ar
     9     3     4   ar
    10     4     7    1
    11     7     8    1
    12     8     9    1
    13     9    10    1
    14    10    13    1
    15    13    14    1
    16    14    15    1
    17    15    16   ar
    18    16    17   ar
    19    17    18   ar
    20    18    19    1
    21    18    20   ar
    22    20    24    1
    23    24    25    2
    24    24    26    1
    25    20    21   ar
    26    10    11    1
    27    11    12    1
    28     4     5   ar
    29     5     6   ar
    30    34    35   ar
    31    35    36   ar
    32    36    37   ar
    33    37    38   ar
    34    38    39   ar
    35    39    42    1
    36    42    43   ar
    37    43    44   ar
    38    44    45   ar
    39    45    46   ar
    40    46    47   ar
    41    39    40   ar
    42    40    41   ar
    43    41    33   ar
    44     6     1   ar
    45    41    36   ar
    46    12     7    1
    47    47    42   ar
    48    21    15   ar
    49    30    31    1
    50    19    22    1
    51    19    23    1
    52    26    27    1
@<TRIPOS>MOLECULE
*****
 47 52 0 0 0
SMALL
GASTEIGER

@<TRIPOS>ATOM
      1 C          -6.5685  -14.7446   27.0626 C.ar    1  UNL1        0.0702
      2 C          -7.8917  -15.1646   27.2671 C.ar    1  UNL1        0.0191
      3 C          -8.7113  -14.4833   28.1685 C.ar    1  UNL1        0.0356
      4 C          -8.1954  -13.3930   28.8870 C.ar    1  UNL1        0.1318
      5 N          -6.9054  -13.0096   28.6771 N.ar    1  UNL1       -0.2279
      6 C          -6.0897  -13.6579   27.8044 C.ar    1  UNL1        0.1149
      7 N          -9.0169  -12.6517   29.8087 N.pl3   1  UNL1       -0.2932
      8 C         -10.4684  -12.8677   29.8898 C.3     1  UNL1        0.0923
      9 C         -11.2236  -11.5290   29.8316 C.3     1  UNL1        0.0252
     10 C         -10.4433  -10.3515   30.4781 C.3     1  UNL1        0.0472
     11 C          -9.3934  -10.8538   31.4861 C.3     1  UNL1        0.0252
     12 C          -8.3698  -11.7545   30.7777 C.3     1  UNL1        0.0923
     13 C         -11.3985   -9.3453   31.1478 C.3     1  UNL1        0.2054
     14 O         -11.9153   -9.8652   32.3741 O.3     1  UNL1       -0.4755
     15 C         -12.3796  -11.1755   32.5777 C.ar    1  UNL1        0.1388
     16 C         -13.4735  -11.6071   31.8254 C.ar    1  UNL1        0.0382
     17 C         -13.9788  -12.8975   31.9821 C.ar    1  UNL1        0.0174
     18 C         -13.3958  -13.7886   32.8942 C.ar    1  UNL1        0.0480
     19 N         -13.9027  -15.1285   32.9684 N.pl3   1  UNL1       -0.3568
     20 C         -12.2942  -13.3612   33.6760 C.ar    1  UNL1        0.0913
     21 C         -11.7891  -12.0605   33.4992 C.ar    1  UNL1        0.0446
     22 H         -13.3818  -15.8932   33.4495 H       1  UNL1        0.1424
     23 H         -14.7669  -15.3962   32.4465 H       1  UNL1        0.1424
     24 C         -11.6802  -14.2244   34.7104 C.2     1  UNL1        0.3393
     25 O         -12.3354  -15.1760   35.2115 O.2     1  UNL1       -0.2450
     26 O         -10.3905  -13.9758   35.1752 O.3     1  UNL1       -0.4771
     27 H          -9.8127  -13.2460   34.7760 H       1  UNL1        0.2954
     28 C          -5.6821  -15.2522   24.7367 C.2     1  UNL1        0.2839
     29 O          -6.5354  -14.5060   24.1866 O.2     1  UNL1       -0.2665
     30 N          -5.6837  -15.4336   26.1638 N.am    1  UNL1       -0.2766
     31 H          -4.9673  -16.0596   26.5915 H       1  UNL1        0.1553
     32 C          -3.4967  -17.4691   25.6274 C.3     1  UNL1        0.0345
     33 C          -3.7724  -16.9202   24.2604 C.ar    1  UNL1        0.0202
     34 C          -4.7053  -15.9471   23.8806 C.ar    1  UNL1        0.1946
     35 O          -4.5911  -15.6918   22.5891 O.2     1  UNL1       -0.4492
     36 C          -3.6502  -16.4664   22.1069 C.ar    1  UNL1        0.1452
     37 C          -3.2018  -16.5350   20.7924 C.ar    1  UNL1        0.0375
     38 C          -2.1706  -17.4428   20.4935 C.ar    1  UNL1        0.0031
     39 C          -1.6055  -18.2635   21.5072 C.ar    1  UNL1        0.0002
     40 C          -2.0910  -18.1612   22.8330 C.ar    1  UNL1        0.0028
     41 C          -3.1160  -17.2513   23.0921 C.ar    1  UNL1        0.0337
     42 C          -0.5166  -19.2187   21.1798 C.ar    1  UNL1        0.0000
     43 C          -0.5559  -20.5413   21.6606 C.ar    1  UNL1        0.0000
     44 C           0.4703  -21.4388   21.3497 C.ar    1  UNL1        0.0000
     45 C           1.5451  -21.0279   20.5582 C.ar    1  UNL1        0.0000
     46 C           1.5959  -19.7184   20.0754 C.ar    1  UNL1        0.0000
     47 C           0.5720  -18.8170   20.3823 C.ar    1  UNL1        0.0000
@<TRIPOS>BOND
     1    32    33    1
     2    33    34   ar
     3    34    28    1
     4    28    29    2
     5    28    30   am
     6    30     1    1
     7     1     2   ar
     8     2     3   ar
     9     3     4   ar
    10     4     7    1
    11     7     8    1
    12     8     9    1
    13     9    10    1
    14    10    13    1
    15    13    14    1
    16    14    15    1
    17    15    16   ar
    18    16    17   ar
    19    17    18   ar
    20    18    19    1
    21    18    20   ar
    22    20    24    1
    23    24    25    2
    24    24    26    1
    25    20    21   ar
    26    10    11    1
    27    11    12    1
    28     4     5   ar
    29     5     6   ar
    30    34    35   ar
    31    35    36   ar
    32    36    37   ar
    33    37    38   ar
    34    38    39   ar
    35    39    42    1
    36    42    43   ar
    37    43    44   ar
    38    44    45   ar
    39    45    46   ar
    40    46    47   ar
    41    39    40   ar
    42    40    41   ar
    43    41    33   ar
    44     6     1   ar
    45    41    36   ar
    46    12     7    1
    47    47    42   ar
    48    21    15   ar
    49    30    31    1
    50    19    22    1
    51    19    23    1
    52    26    27    1
@<TRIPOS>MOLECULE
*****
 47 52 0 0 0
SMALL
GASTEIGER

@<TRIPOS>ATOM
      1 C          -8.5700  -15.7332   25.3393 C.ar    1  UNL1        0.0702
      2 C          -9.4563  -16.8212   25.3266 C.ar    1  UNL1        0.0191
      3 C          -9.3035  -17.8379   24.3824 C.ar    1  UNL1        0.0356
      4 C          -8.2749  -17.7514   23.4308 C.ar    1  UNL1        0.1318
      5 N          -7.4326  -16.6814   23.4584 N.ar    1  UNL1       -0.2279
      6 C          -7.5623  -15.6804   24.3686 C.ar    1  UNL1        0.1149
      7 N          -8.0722  -18.7914   22.4555 N.pl3   1  UNL1       -0.2932
      8 C          -7.7930  -20.1775   22.8566 C.3     1  UNL1        0.0923
      9 C          -6.5728  -20.7295   22.1001 C.3     1  UNL1        0.0252
     10 C          -6.4223  -20.1513   20.6662 C.3     1  UNL1        0.0472
     11 C          -7.7615  -19.6143   20.1287 C.3     1  UNL1        0.0252
     12 C          -8.2780  -18.4839   21.0322 C.3     1  UNL1        0.0923
     13 C          -5.8303  -21.1944   19.6993 C.3     1  UNL1        0.2054
     14 O          -4.4370  -20.9628   19.4835 O.3     1  UNL1       -0.4755
     15 C          -3.6878  -19.9068   20.0287 C.ar    1  UNL1        0.1388
     16 C          -2.4603  -20.2113   20.6197 C.ar    1  UNL1        0.0382
     17 C          -1.6709  -19.2054   21.1766 C.ar    1  UNL1        0.0174
     18 C          -2.0916  -17.8683   21.1501 C.ar    1  UNL1        0.0480
     19 N          -1.2139  -16.8594   21.6693 N.pl3   1  UNL1       -0.3568
     20 C          -3.3417  -17.5444   20.5674 C.ar    1  UNL1        0.0913
     21 C          -4.1218  -18.5681   20.0002 C.ar    1  UNL1        0.0446
     22 H          -1.3608  -15.8446   21.4794 H       1  UNL1        0.1424
     23 H          -0.3373  -17.1281   22.1697 H       1  UNL1        0.1424
     24 C          -3.8801  -16.1651   20.5735 C.2     1  UNL1        0.3393
     25 O          -3.7542  -15.4409   21.5961 O.2     1  UNL1       -0.2450
     26 O          -4.5679  -15.6615   19.4715 O.3     1  UNL1       -0.4771
     27 H          -4.6613  -16.1930   18.6144 H       1  UNL1        0.2954
     28 C          -8.3180  -14.7307   27.6597 C.2     1  UNL1        0.2839
     29 O          -7.8884  -15.8123   28.1426 O.2     1  UNL1       -0.2665
     30 N          -8.7075  -14.6530   26.2771 N.am    1  UNL1       -0.2766
     31 H          -9.0625  -13.7453   25.9054 H       1  UNL1        0.1553
     32 C          -6.0253  -12.5596   28.3765 C.3     1  UNL1        0.0345
     33 C          -7.4472  -12.6122   28.8472 C.ar    1  UNL1        0.0202
     34 C          -8.4317  -13.5633   28.5509 C.ar    1  UNL1        0.1946
     35 O          -9.5392  -13.2895   29.2178 O.2     1  UNL1       -0.4492
     36 C          -9.3322  -12.1969   29.9113 C.ar    1  UNL1        0.1452
     37 C         -10.2285  -11.5459   30.7520 C.ar    1  UNL1        0.0375
     38 C          -9.7922  -10.3802   31.4060 C.ar    1  UNL1        0.0031
     39 C          -8.4738   -9.8855   31.2117 C.ar    1  UNL1        0.0002
     40 C          -7.5931  -10.5795   30.3477 C.ar    1  UNL1        0.0028
     41 C          -8.0609  -11.7310   29.7145 C.ar    1  UNL1        0.0337
     42 C          -8.0240   -8.6533   31.9077 C.ar    1  UNL1        0.0000
     43 C          -7.0049   -8.7103   32.8774 C.ar    1  UNL1        0.0000
     44 C          -6.5826   -7.5481   33.5304 C.ar    1  UNL1        0.0000
     45 C          -7.1712   -6.3190   33.2247 C.ar    1  UNL1        0.0000
     46 C          -8.1832   -6.2492   32.2648 C.ar    1  UNL1        0.0000
     47 C          -8.6087   -7.4080   31.6080 C.ar    1  UNL1        0.0000
@<TRIPOS>BOND
     1    32    33    1
     2    33    34   ar
     3    34    28    1
     4    28    29    2
     5    28    30   am
     6    30     1    1
     7     1     2   ar
     8     2     3   ar
     9     3     4   ar
    10     4     7    1
    11     7     8    1
    12     8     9    1
    13     9    10    1
    14    10    13    1
    15    13    14    1
    16    14    15    1
    17    15    16   ar
    18    16    17   ar
    19    17    18   ar
    20    18    19    1
    21    18    20   ar
    22    20    24    1
    23    24    25    2
    24    24    26    1
    25    20    21   ar
    26    10    11    1
    27    11    12    1
    28     4     5   ar
    29     5     6   ar
    30    34    35   ar
    31    35    36   ar
    32    36    37   ar
    33    37    38   ar
    34    38    39   ar
    35    39    42    1
    36    42    43   ar
    37    43    44   ar
    38    44    45   ar
    39    45    46   ar
    40    46    47   ar
    41    39    40   ar
    42    40    41   ar
    43    41    33   ar
    44     6     1   ar
    45    41    36   ar
    46    12     7    1
    47    47    42   ar
    48    21    15   ar
    49    30    31    1
    50    19    22    1
    51    19    23    1
    52    26    27    1
