@<TRIPOS>MOLECULE
*****
 45 50 0 0 0
SMALL
GASTEIGER

@<TRIPOS>ATOM
      1 C          60.9221   89.3154    9.0808 C.ar    1  UNL1        0.0702
      2 C          60.1782   90.1060    9.9704 C.ar    1  UNL1        0.0191
      3 C          60.2399   89.8642   11.3438 C.ar    1  UNL1        0.0356
      4 C          61.0669   88.8381   11.8326 C.ar    1  UNL1        0.1318
      5 N          61.7841   88.0901   10.9482 N.ar    1  UNL1       -0.2279
      6 C          61.7388   88.3071    9.6073 C.ar    1  UNL1        0.1149
      7 N          61.1521   88.5460   13.2433 N.pl3   1  UNL1       -0.2932
      8 C          61.9863   89.3689   14.1365 C.3     1  UNL1        0.0923
      9 C          62.6672   88.5423   15.2491 C.3     1  UNL1        0.0252
     10 C          61.9581   87.2088   15.5799 C.3     1  UNL1        0.0472
     11 C          60.4544   87.3177   15.2955 C.3     1  UNL1        0.0252
     12 C          60.2360   87.5348   13.7954 C.3     1  UNL1        0.0923
     13 C          62.2124   86.7571   17.0317 C.3     1  UNL1        0.2054
     14 O          63.0883   85.6270   17.0668 O.3     1  UNL1       -0.4755
     15 C          63.5169   84.8664   15.9662 C.ar    1  UNL1        0.1388
     16 C          64.6150   85.2288   15.1633 C.ar    1  UNL1        0.0369
     17 C          64.9884   84.4290   14.0814 C.ar    1  UNL1        0.0033
     18 C          64.2826   83.2595   13.7928 C.ar    1  UNL1        0.0066
     19 C          63.1933   82.8726   14.5918 C.ar    1  UNL1        0.0785
     20 C          62.8235   83.6833   15.6795 C.ar    1  UNL1        0.0433
     21 C          62.4439   81.6315   14.2959 C.2     1  UNL1        0.3381
     22 O          63.0432   80.5241   14.2285 O.2     1  UNL1       -0.2451
     23 O          61.0675   81.6748   14.0885 O.3     1  UNL1       -0.4771
     24 H          60.5450   80.8310   13.8852 H       1  UNL1        0.2954
     25 C          59.8246   90.2006    6.9746 C.2     1  UNL1        0.2839
     26 O          58.6604   90.1693    7.4566 O.2     1  UNL1       -0.2665
     27 N          60.9035   89.5496    7.6622 N.am    1  UNL1       -0.2766
     28 H          61.6647   89.1281    7.0844 H       1  UNL1        0.1553
     29 C          60.3433   92.8898    1.6244 C.ar    1  UNL1        0.0002
     30 C          61.7085   92.5966    1.8898 C.ar    1  UNL1        0.0031
     31 C          62.0877   91.9401    3.0737 C.ar    1  UNL1        0.0375
     32 C          61.0878   91.5875    3.9735 C.ar    1  UNL1        0.1452
     33 O          61.2306   90.9769    5.1244 O.2     1  UNL1       -0.4492
     34 C          60.0318   90.8405    5.6636 C.ar    1  UNL1        0.1946
     35 C          59.0587   91.3702    4.8067 C.ar    1  UNL1        0.0202
     36 C          57.5716   91.4061    4.9920 C.3     1  UNL1        0.0345
     37 C          59.7696   91.8619    3.7301 C.ar    1  UNL1        0.0337
     38 C          59.3568   92.5121    2.5669 C.ar    1  UNL1        0.0028
     39 C          56.7791   94.6562   -1.4525 C.3     1  UNL1        0.0310
     40 C          58.2287   94.4637   -1.1172 C.ar    1  UNL1       -0.0218
     41 C          59.2223   94.8877   -2.0110 C.ar    1  UNL1       -0.0043
     42 C          60.5703   94.6792   -1.7131 C.ar    1  UNL1       -0.0003
     43 C          60.9372   94.0353   -0.5291 C.ar    1  UNL1       -0.0000
     44 C          59.9548   93.5851    0.3712 C.ar    1  UNL1       -0.0003
     45 C          58.5980   93.7997    0.0633 C.ar    1  UNL1       -0.0043
@<TRIPOS>BOND
     1    39    40    1
     2    40    41   ar
     3    41    42   ar
     4    42    43   ar
     5    43    44   ar
     6    44    29    1
     7    29    30   ar
     8    30    31   ar
     9    31    32   ar
    10    32    33   ar
    11    33    34   ar
    12    34    25    1
    13    25    26    2
    14    25    27   am
    15    27     1    1
    16     1     2   ar
    17     2     3   ar
    18     3     4   ar
    19     4     7    1
    20     7     8    1
    21     8     9    1
    22     9    10    1
    23    10    13    1
    24    13    14    1
    25    14    15    1
    26    15    16   ar
    27    16    17   ar
    28    17    18   ar
    29    18    19   ar
    30    19    21    1
    31    21    22    2
    32    21    23    1
    33    19    20   ar
    34    10    11    1
    35    11    12    1
    36     4     5   ar
    37     5     6   ar
    38    34    35   ar
    39    35    36    1
    40    35    37   ar
    41    37    38   ar
    42    44    45   ar
    43    45    40   ar
    44    38    29   ar
    45    37    32   ar
    46     6     1   ar
    47    12     7    1
    48    20    15   ar
    49    27    28    1
    50    23    24    1
@<TRIPOS>MOLECULE
*****
 45 50 0 0 0
SMALL
GASTEIGER

@<TRIPOS>ATOM
      1 C          60.5073   88.1652    8.4552 C.ar    1  UNL1        0.0702
      2 C          61.1995   88.8870    9.4399 C.ar    1  UNL1        0.0191
      3 C          61.5039   88.2892   10.6640 C.ar    1  UNL1        0.0356
      4 C          61.1315   86.9541   10.8974 C.ar    1  UNL1        0.1318
      5 N          60.4667   86.2737    9.9221 N.ar    1  UNL1       -0.2279
      6 C          60.1592   86.8357    8.7235 C.ar    1  UNL1        0.1149
      7 N          61.4156   86.3004   12.1523 N.pl3   1  UNL1       -0.2932
      8 C          62.7081   86.4976   12.8315 C.3     1  UNL1        0.0923
      9 C          63.2108   85.2224   13.5429 C.3     1  UNL1        0.0252
     10 C          62.0989   84.2096   13.9013 C.3     1  UNL1        0.0472
     11 C          60.7680   84.9366   14.1340 C.3     1  UNL1        0.0252
     12 C          60.3144   85.5954   12.8282 C.3     1  UNL1        0.0923
     13 C          62.4716   83.3403   15.1186 C.3     1  UNL1        0.2054
     14 O          62.3817   81.9495   14.7972 O.3     1  UNL1       -0.4755
     15 C          61.9991   81.3994   13.5625 C.ar    1  UNL1        0.1388
     16 C          62.9252   80.9618   12.5969 C.ar    1  UNL1        0.0369
     17 C          62.4785   80.4256   11.3875 C.ar    1  UNL1        0.0033
     18 C          61.1112   80.3102   11.1299 C.ar    1  UNL1        0.0066
     19 C          60.1710   80.7271   12.0875 C.ar    1  UNL1        0.0785
     20 C          60.6288   81.2660   13.3029 C.ar    1  UNL1        0.0433
     21 C          58.7203   80.6027   11.8244 C.2     1  UNL1        0.3381
     22 O          57.9581   81.5973   11.9650 O.2     1  UNL1       -0.2451
     23 O          58.1821   79.3840   11.4188 O.3     1  UNL1       -0.4771
     24 H          57.1902   79.2881   11.2363 H       1  UNL1        0.2954
     25 C          59.8178   90.1097    6.9828 C.2     1  UNL1        0.2839
     26 O          59.2730   90.7489    7.9225 O.2     1  UNL1       -0.2665
     27 N          60.1974   88.7385    7.1733 N.am    1  UNL1       -0.2766
     28 H          60.1396   88.0987    6.3498 H       1  UNL1        0.1553
     29 C          60.1340   92.8720    1.6540 C.ar    1  UNL1        0.0002
     30 C          61.5129   92.6157    1.8845 C.ar    1  UNL1        0.0031
     31 C          61.9383   91.9574    3.0516 C.ar    1  UNL1        0.0375
     32 C          60.9703   91.5659    3.9700 C.ar    1  UNL1        0.1452
     33 O          61.1574   90.9470    5.1100 O.2     1  UNL1       -0.4492
     34 C          59.9759   90.7698    5.6749 C.ar    1  UNL1        0.1946
     35 C          58.9682   91.2805    4.8469 C.ar    1  UNL1        0.0202
     36 C          57.4854   91.2711    5.0667 C.3     1  UNL1        0.0345
     37 C          59.6393   91.8046    3.7601 C.ar    1  UNL1        0.0337
     38 C          59.1811   92.4554    2.6144 C.ar    1  UNL1        0.0028
     39 C          56.4860   94.1813   -1.5504 C.3     1  UNL1        0.0310
     40 C          57.9256   94.2263   -1.1305 C.ar    1  UNL1       -0.0218
     41 C          58.8743   94.8779   -1.9312 C.ar    1  UNL1       -0.0043
     42 C          60.2192   94.8917   -1.5563 C.ar    1  UNL1       -0.0003
     43 C          60.6299   94.2453   -0.3881 C.ar    1  UNL1       -0.0000
     44 C          59.6965   93.5696    0.4184 C.ar    1  UNL1       -0.0003
     45 C          58.3426   93.5609    0.0332 C.ar    1  UNL1       -0.0043
@<TRIPOS>BOND
     1    39    40    1
     2    40    41   ar
     3    41    42   ar
     4    42    43   ar
     5    43    44   ar
     6    44    29    1
     7    29    30   ar
     8    30    31   ar
     9    31    32   ar
    10    32    33   ar
    11    33    34   ar
    12    34    25    1
    13    25    26    2
    14    25    27   am
    15    27     1    1
    16     1     2   ar
    17     2     3   ar
    18     3     4   ar
    19     4     7    1
    20     7     8    1
    21     8     9    1
    22     9    10    1
    23    10    13    1
    24    13    14    1
    25    14    15    1
    26    15    16   ar
    27    16    17   ar
    28    17    18   ar
    29    18    19   ar
    30    19    21    1
    31    21    22    2
    32    21    23    1
    33    19    20   ar
    34    10    11    1
    35    11    12    1
    36     4     5   ar
    37     5     6   ar
    38    34    35   ar
    39    35    36    1
    40    35    37   ar
    41    37    38   ar
    42    44    45   ar
    43    45    40   ar
    44    38    29   ar
    45    37    32   ar
    46     6     1   ar
    47    12     7    1
    48    20    15   ar
    49    27    28    1
    50    23    24    1
@<TRIPOS>MOLECULE
*****
 45 50 0 0 0
SMALL
GASTEIGER

@<TRIPOS>ATOM
      1 C          60.6082   88.5126    8.6358 C.ar    1  UNL1        0.0702
      2 C          61.2729   89.3141    9.5769 C.ar    1  UNL1        0.0191
      3 C          61.5148   88.8308   10.8639 C.ar    1  UNL1        0.0356
      4 C          61.1073   87.5298   11.2060 C.ar    1  UNL1        0.1318
      5 N          60.4703   86.7700   10.2716 N.ar    1  UNL1       -0.2279
      6 C          60.2237   87.2201    9.0132 C.ar    1  UNL1        0.1149
      7 N          61.3265   86.9942   12.5281 N.pl3   1  UNL1       -0.2932
      8 C          62.3159   87.6017   13.4351 C.3     1  UNL1        0.0923
      9 C          63.0510   86.5580   14.3042 C.3     1  UNL1        0.0252
     10 C          62.2826   85.2300   14.4955 C.3     1  UNL1        0.0472
     11 C          60.7694   85.4720   14.4200 C.3     1  UNL1        0.0252
     12 C          60.4025   85.9568   13.0145 C.3     1  UNL1        0.0923
     13 C          62.6617   84.5207   15.8107 C.3     1  UNL1        0.2054
     14 O          63.2936   83.2650   15.5476 O.3     1  UNL1       -0.4755
     15 C          63.1555   82.4860   14.3868 C.ar    1  UNL1        0.1388
     16 C          62.5757   81.2032   14.3873 C.ar    1  UNL1        0.0369
     17 C          62.4701   80.4796   13.1978 C.ar    1  UNL1        0.0033
     18 C          62.9294   81.0254   11.9977 C.ar    1  UNL1        0.0066
     19 C          63.4971   82.3107   11.9739 C.ar    1  UNL1        0.0785
     20 C          63.5999   83.0330   13.1759 C.ar    1  UNL1        0.0433
     21 C          63.9809   82.8984   10.7051 C.2     1  UNL1        0.3381
     22 O          64.9515   82.3794   10.0898 O.2     1  UNL1       -0.2451
     23 O          63.3680   84.0323   10.1778 O.3     1  UNL1       -0.4771
     24 H          63.6915   84.4427    9.3099 H       1  UNL1        0.2954
     25 C          59.7600   90.2293    6.9752 C.2     1  UNL1        0.2839
     26 O          58.9893   90.7859    7.8027 O.2     1  UNL1       -0.2665
     27 N          60.3628   88.9661    7.2934 N.am    1  UNL1       -0.2766
     28 H          60.5320   88.2965    6.5099 H       1  UNL1        0.1553
     29 C          60.2390   92.8740    1.5991 C.ar    1  UNL1        0.0002
     30 C          61.6049   92.5730    1.8518 C.ar    1  UNL1        0.0031
     31 C          61.9925   91.9228    3.0365 C.ar    1  UNL1        0.0375
     32 C          61.0001   91.5842    3.9499 C.ar    1  UNL1        0.1452
     33 O          61.1512   90.9814    5.1038 O.2     1  UNL1       -0.4492
     34 C          59.9574   90.8578    5.6571 C.ar    1  UNL1        0.1946
     35 C          58.9787   91.3879    4.8069 C.ar    1  UNL1        0.0202
     36 C          57.4940   91.4359    5.0081 C.3     1  UNL1        0.0345
     37 C          59.6812   91.8663    3.7188 C.ar    1  UNL1        0.0337
     38 C          59.2603   92.5106    2.5552 C.ar    1  UNL1        0.0028
     39 C          56.7024   94.1331   -1.7472 C.3     1  UNL1        0.0310
     40 C          58.1244   94.1949   -1.2729 C.ar    1  UNL1       -0.0218
     41 C          59.0961   94.8537   -2.0394 C.ar    1  UNL1       -0.0043
     42 C          60.4254   94.8832   -1.6135 C.ar    1  UNL1       -0.0003
     43 C          60.7981   94.2453   -0.4280 C.ar    1  UNL1       -0.0000
     44 C          59.8417   93.5625    0.3449 C.ar    1  UNL1       -0.0003
     45 C          58.5036   93.5381   -0.0915 C.ar    1  UNL1       -0.0043
@<TRIPOS>BOND
     1    39    40    1
     2    40    41   ar
     3    41    42   ar
     4    42    43   ar
     5    43    44   ar
     6    44    29    1
     7    29    30   ar
     8    30    31   ar
     9    31    32   ar
    10    32    33   ar
    11    33    34   ar
    12    34    25    1
    13    25    26    2
    14    25    27   am
    15    27     1    1
    16     1     2   ar
    17     2     3   ar
    18     3     4   ar
    19     4     7    1
    20     7     8    1
    21     8     9    1
    22     9    10    1
    23    10    13    1
    24    13    14    1
    25    14    15    1
    26    15    16   ar
    27    16    17   ar
    28    17    18   ar
    29    18    19   ar
    30    19    21    1
    31    21    22    2
    32    21    23    1
    33    19    20   ar
    34    10    11    1
    35    11    12    1
    36     4     5   ar
    37     5     6   ar
    38    34    35   ar
    39    35    36    1
    40    35    37   ar
    41    37    38   ar
    42    44    45   ar
    43    45    40   ar
    44    38    29   ar
    45    37    32   ar
    46     6     1   ar
    47    12     7    1
    48    20    15   ar
    49    27    28    1
    50    23    24    1
@<TRIPOS>MOLECULE
*****
 45 50 0 0 0
SMALL
GASTEIGER

@<TRIPOS>ATOM
      1 C          61.6771   87.7607    9.4894 C.ar    1  UNL1        0.0702
      2 C          60.5719   87.8751    8.6318 C.ar    1  UNL1        0.0191
      3 C          59.8176   86.7470    8.3052 C.ar    1  UNL1        0.0356
      4 C          60.1583   85.4994    8.8559 C.ar    1  UNL1        0.1318
      5 N          61.2314   85.4172    9.6913 N.ar    1  UNL1       -0.2279
      6 C          61.9804   86.5018   10.0224 C.ar    1  UNL1        0.1149
      7 N          59.4134   84.3054    8.5364 N.pl3   1  UNL1       -0.2932
      8 C          57.9509   84.2585    8.7081 C.3     1  UNL1        0.0923
      9 C          57.4485   82.8786    9.1861 C.3     1  UNL1        0.0252
     10 C          58.4010   81.7043    8.8631 C.3     1  UNL1        0.0472
     11 C          59.2127   82.0068    7.5968 C.3     1  UNL1        0.0252
     12 C          60.1225   83.2116    7.8528 C.3     1  UNL1        0.0923
     13 C          57.6508   80.3642    8.7292 C.3     1  UNL1        0.2054
     14 O          57.4191   79.7803   10.0140 O.3     1  UNL1       -0.4755
     15 C          58.2025   79.9570   11.1666 C.ar    1  UNL1        0.1388
     16 C          58.4023   78.9427   12.1222 C.ar    1  UNL1        0.0369
     17 C          59.1918   79.1842   13.2483 C.ar    1  UNL1        0.0033
     18 C          59.7967   80.4291   13.4311 C.ar    1  UNL1        0.0066
     19 C          59.6219   81.4494   12.4808 C.ar    1  UNL1        0.0785
     20 C          58.8255   81.1985   11.3495 C.ar    1  UNL1        0.0433
     21 C          60.2645   82.7696   12.6644 C.2     1  UNL1        0.3381
     22 O          60.8328   83.0575   13.7526 O.2     1  UNL1       -0.2451
     23 O          60.2473   83.7081   11.6357 O.3     1  UNL1       -0.4771
     24 H          60.6841   84.6148   11.7512 H       1  UNL1        0.2954
     25 C          62.2394   89.6656   11.0640 C.2     1  UNL1        0.2839
     26 O          61.0929   89.6953   11.5867 O.2     1  UNL1       -0.2665
     27 N          62.4632   88.9036    9.8683 N.am    1  UNL1       -0.2766
     28 H          63.1654   89.2654    9.1850 H       1  UNL1        0.1553
     29 C          66.6367   92.7917   13.7131 C.ar    1  UNL1        0.0002
     30 C          66.4420   93.5762   12.5440 C.ar    1  UNL1        0.0031
     31 C          65.4730   93.2197   11.5898 C.ar    1  UNL1        0.0375
     32 C          64.7132   92.0792   11.8259 C.ar    1  UNL1        0.1452
     33 O          63.7690   91.5796   11.0666 O.2     1  UNL1       -0.4492
     34 C          63.3091   90.4891   11.6547 C.ar    1  UNL1        0.1946
     35 C          63.9747   90.2838   12.8699 C.ar    1  UNL1        0.0202
     36 C          63.7605   89.1967   13.8794 C.3     1  UNL1        0.0345
     37 C          64.8886   91.3157   12.9478 C.ar    1  UNL1        0.0337
     38 C          65.8406   91.6386   13.9151 C.ar    1  UNL1        0.0028
     39 C          70.1807   91.4978   17.0382 C.3     1  UNL1        0.0310
     40 C          69.4013   92.5557   16.3142 C.ar    1  UNL1       -0.0218
     41 C          69.5983   93.9101   16.6187 C.ar    1  UNL1       -0.0043
     42 C          68.8496   94.8923   15.9676 C.ar    1  UNL1       -0.0003
     43 C          67.8905   94.5314   15.0184 C.ar    1  UNL1       -0.0000
     44 C          67.6643   93.1771   14.7132 C.ar    1  UNL1       -0.0003
     45 C          68.4238   92.1932   15.3740 C.ar    1  UNL1       -0.0043
@<TRIPOS>BOND
     1    39    40    1
     2    40    41   ar
     3    41    42   ar
     4    42    43   ar
     5    43    44   ar
     6    44    29    1
     7    29    30   ar
     8    30    31   ar
     9    31    32   ar
    10    32    33   ar
    11    33    34   ar
    12    34    25    1
    13    25    26    2
    14    25    27   am
    15    27     1    1
    16     1     2   ar
    17     2     3   ar
    18     3     4   ar
    19     4     7    1
    20     7     8    1
    21     8     9    1
    22     9    10    1
    23    10    13    1
    24    13    14    1
    25    14    15    1
    26    15    16   ar
    27    16    17   ar
    28    17    18   ar
    29    18    19   ar
    30    19    21    1
    31    21    22    2
    32    21    23    1
    33    19    20   ar
    34    10    11    1
    35    11    12    1
    36     4     5   ar
    37     5     6   ar
    38    34    35   ar
    39    35    36    1
    40    35    37   ar
    41    37    38   ar
    42    44    45   ar
    43    45    40   ar
    44    38    29   ar
    45    37    32   ar
    46     6     1   ar
    47    12     7    1
    48    20    15   ar
    49    27    28    1
    50    23    24    1
@<TRIPOS>MOLECULE
*****
 45 50 0 0 0
SMALL
GASTEIGER

@<TRIPOS>ATOM
      1 C          59.8598   88.5940    7.8626 C.ar    1  UNL1        0.0702
      2 C          59.3060   87.3438    8.1791 C.ar    1  UNL1        0.0191
      3 C          59.3282   86.8796    9.4953 C.ar    1  UNL1        0.0356
      4 C          59.8898   87.6797   10.5054 C.ar    1  UNL1        0.1318
      5 N          60.4142   88.8922   10.1724 N.ar    1  UNL1       -0.2279
      6 C          60.4042   89.3639    8.8979 C.ar    1  UNL1        0.1149
      7 N          59.9444   87.2344   11.8771 N.pl3   1  UNL1       -0.2932
      8 C          58.9121   87.6424   12.8458 C.3     1  UNL1        0.0923
      9 C          59.4804   87.8779   14.2622 C.3     1  UNL1        0.0252
     10 C          60.8078   87.1389   14.5497 C.3     1  UNL1        0.0472
     11 C          60.8940   85.8517   13.7192 C.3     1  UNL1        0.0252
     12 C          60.9404   86.2100   12.2311 C.3     1  UNL1        0.0923
     13 C          60.9960   86.8396   16.0502 C.3     1  UNL1        0.2054
     14 O          62.1075   87.5682   16.5787 O.3     1  UNL1       -0.4755
     15 C          62.9468   88.4439   15.8701 C.ar    1  UNL1        0.1388
     16 C          63.6250   88.0735   14.6934 C.ar    1  UNL1        0.0369
     17 C          64.4468   88.9923   14.0375 C.ar    1  UNL1        0.0033
     18 C          64.5952   90.2874   14.5372 C.ar    1  UNL1        0.0066
     19 C          63.9144   90.6810   15.7019 C.ar    1  UNL1        0.0785
     20 C          63.0887   89.7501   16.3565 C.ar    1  UNL1        0.0433
     21 C          64.0618   92.0536   16.2345 C.2     1  UNL1        0.3381
     22 O          63.0955   92.6221   16.8115 O.2     1  UNL1       -0.2451
     23 O          65.2711   92.7317   16.1032 O.3     1  UNL1       -0.4771
     24 H          65.3825   93.6717   16.4641 H       1  UNL1        0.2954
     25 C          59.1569   90.3265    6.1513 C.2     1  UNL1        0.2839
     26 O          58.1741   90.7321    6.8283 O.2     1  UNL1       -0.2665
     27 N          59.8339   89.1167    6.5232 N.am    1  UNL1       -0.2766
     28 H          60.2369   88.5299    5.7589 H       1  UNL1        0.1553
     29 C          61.0143   93.2454    1.2365 C.ar    1  UNL1        0.0002
     30 C          59.6153   93.4824    1.1538 C.ar    1  UNL1        0.0031
     31 C          58.7394   92.9747    2.1292 C.ar    1  UNL1        0.0375
     32 C          59.2836   92.2362    3.1743 C.ar    1  UNL1        0.1452
     33 O          58.6446   91.6797    4.1741 O.2     1  UNL1       -0.4492
     34 C          59.5351   91.0692    4.9362 C.ar    1  UNL1        0.1946
     35 C          60.8213   91.2592    4.4152 C.ar    1  UNL1        0.0202
     36 C          62.1308   90.7770    4.9627 C.3     1  UNL1        0.0345
     37 C          60.6285   92.0018    3.2673 C.ar    1  UNL1        0.0337
     38 C          61.5269   92.4893    2.3179 C.ar    1  UNL1        0.0028
     39 C          65.5673   94.8895   -0.1266 C.3     1  UNL1        0.0310
     40 C          64.1443   94.5652   -0.4741 C.ar    1  UNL1       -0.0218
     41 C          63.6561   94.8232   -1.7628 C.ar    1  UNL1       -0.0043
     42 C          62.3230   94.5513   -2.0763 C.ar    1  UNL1       -0.0003
     43 C          61.4640   94.0328   -1.1045 C.ar    1  UNL1       -0.0000
     44 C          61.9296   93.7853    0.1994 C.ar    1  UNL1       -0.0003
     45 C          63.2752   94.0620    0.5069 C.ar    1  UNL1       -0.0043
@<TRIPOS>BOND
     1    39    40    1
     2    40    41   ar
     3    41    42   ar
     4    42    43   ar
     5    43    44   ar
     6    44    29    1
     7    29    30   ar
     8    30    31   ar
     9    31    32   ar
    10    32    33   ar
    11    33    34   ar
    12    34    25    1
    13    25    26    2
    14    25    27   am
    15    27     1    1
    16     1     2   ar
    17     2     3   ar
    18     3     4   ar
    19     4     7    1
    20     7     8    1
    21     8     9    1
    22     9    10    1
    23    10    13    1
    24    13    14    1
    25    14    15    1
    26    15    16   ar
    27    16    17   ar
    28    17    18   ar
    29    18    19   ar
    30    19    21    1
    31    21    22    2
    32    21    23    1
    33    19    20   ar
    34    10    11    1
    35    11    12    1
    36     4     5   ar
    37     5     6   ar
    38    34    35   ar
    39    35    36    1
    40    35    37   ar
    41    37    38   ar
    42    44    45   ar
    43    45    40   ar
    44    38    29   ar
    45    37    32   ar
    46     6     1   ar
    47    12     7    1
    48    20    15   ar
    49    27    28    1
    50    23    24    1
@<TRIPOS>MOLECULE
*****
 45 50 0 0 0
SMALL
GASTEIGER

@<TRIPOS>ATOM
      1 C          59.8498   88.1293    8.1401 C.ar    1  UNL1        0.0702
      2 C          59.9651   88.5841    9.4629 C.ar    1  UNL1        0.0191
      3 C          60.2137   87.6797   10.4965 C.ar    1  UNL1        0.0356
      4 C          60.3682   86.3137   10.2031 C.ar    1  UNL1        0.1318
      5 N          60.2586   85.8996    8.9098 N.ar    1  UNL1       -0.2279
      6 C          60.0162   86.7620    7.8878 C.ar    1  UNL1        0.1149
      7 N          60.6146   85.3425   11.2418 N.pl3   1  UNL1       -0.2932
      8 C          61.9755   85.1188   11.7599 C.3     1  UNL1        0.0923
      9 C          62.2460   83.6398   12.1123 C.3     1  UNL1        0.0252
     10 C          60.9748   82.8090   12.4032 C.3     1  UNL1        0.0472
     11 C          59.8658   83.7075   12.9660 C.3     1  UNL1        0.0252
     12 C          59.4514   84.7287   11.9028 C.3     1  UNL1        0.0923
     13 C          61.2558   81.6238   13.3481 C.3     1  UNL1        0.2054
     14 O          60.6390   80.4285   12.8622 O.3     1  UNL1       -0.4755
     15 C          59.7026   80.3349   11.8192 C.ar    1  UNL1        0.1388
     16 C          58.5388   79.5469   11.9005 C.ar    1  UNL1        0.0369
     17 C          57.6487   79.4959   10.8259 C.ar    1  UNL1        0.0033
     18 C          57.9001   80.2323    9.6668 C.ar    1  UNL1        0.0066
     19 C          59.0483   81.0369    9.5723 C.ar    1  UNL1        0.0785
     20 C          59.9398   81.0831   10.6587 C.ar    1  UNL1        0.0433
     21 C          59.3188   81.8250    8.3496 C.2     1  UNL1        0.3381
     22 O          59.0740   81.3417    7.2110 O.2     1  UNL1       -0.2451
     23 O          59.8475   83.1099    8.4449 O.3     1  UNL1       -0.4771
     24 H          60.0366   83.6577    7.6140 H       1  UNL1        0.2954
     25 C          60.3382   90.2610    6.8588 C.2     1  UNL1        0.2839
     26 O          60.8463   90.8506    7.8502 O.2     1  UNL1       -0.2665
     27 N          59.6185   89.0332    7.0459 N.am    1  UNL1       -0.2766
     28 H          58.8104   88.8416    6.4126 H       1  UNL1        0.1553
     29 C          60.3741   92.9328    1.4750 C.ar    1  UNL1        0.0002
     30 C          61.7618   92.6678    1.6314 C.ar    1  UNL1        0.0031
     31 C          62.2474   92.0249    2.7835 C.ar    1  UNL1        0.0375
     32 C          61.3298   91.6572    3.7616 C.ar    1  UNL1        0.1452
     33 O          61.5762   91.0554    4.8995 O.2     1  UNL1       -0.4492
     34 C          60.4272   90.8982    5.5332 C.ar    1  UNL1        0.1946
     35 C          59.3784   91.4044    4.7551 C.ar    1  UNL1        0.0202
     36 C          57.9104   91.4120    5.0585 C.3     1  UNL1        0.0345
     37 C          59.9911   91.9045    3.6234 C.ar    1  UNL1        0.0337
     38 C          59.4738   92.5406    2.4946 C.ar    1  UNL1        0.0028
     39 C          56.5620   94.8280   -1.2020 C.3     1  UNL1        0.0310
     40 C          58.0284   94.5550   -1.0411 C.ar    1  UNL1       -0.0218
     41 C          58.9252   94.8895   -2.0657 C.ar    1  UNL1       -0.0043
     42 C          60.2854   94.6057   -1.9288 C.ar    1  UNL1       -0.0003
     43 C          60.7595   93.9751   -0.7761 C.ar    1  UNL1       -0.0000
     44 C          59.8730   93.6140    0.2545 C.ar    1  UNL1       -0.0003
     45 C          58.5033   93.9041    0.1085 C.ar    1  UNL1       -0.0043
@<TRIPOS>BOND
     1    39    40    1
     2    40    41   ar
     3    41    42   ar
     4    42    43   ar
     5    43    44   ar
     6    44    29    1
     7    29    30   ar
     8    30    31   ar
     9    31    32   ar
    10    32    33   ar
    11    33    34   ar
    12    34    25    1
    13    25    26    2
    14    25    27   am
    15    27     1    1
    16     1     2   ar
    17     2     3   ar
    18     3     4   ar
    19     4     7    1
    20     7     8    1
    21     8     9    1
    22     9    10    1
    23    10    13    1
    24    13    14    1
    25    14    15    1
    26    15    16   ar
    27    16    17   ar
    28    17    18   ar
    29    18    19   ar
    30    19    21    1
    31    21    22    2
    32    21    23    1
    33    19    20   ar
    34    10    11    1
    35    11    12    1
    36     4     5   ar
    37     5     6   ar
    38    34    35   ar
    39    35    36    1
    40    35    37   ar
    41    37    38   ar
    42    44    45   ar
    43    45    40   ar
    44    38    29   ar
    45    37    32   ar
    46     6     1   ar
    47    12     7    1
    48    20    15   ar
    49    27    28    1
    50    23    24    1
