@<TRIPOS>MOLECULE
*****
 45 49 0 0 0
SMALL
GASTEIGER

@<TRIPOS>ATOM
      1 C          -9.3409  -11.8348   30.7398 C.3     1  UNL1        0.1584
      2 C          -9.2799  -12.8839   31.8526 C.3     1  UNL1        0.0647
      3 C         -10.1507  -12.3603   33.0291 C.3     1  UNL1        0.1537
      4 O          -9.3642  -12.3302   34.2019 O.3     1  UNL1       -0.3784
      5 C         -10.5535  -10.9100   32.6409 C.3     1  UNL1        0.2215
      6 O         -10.0039   -9.9614   33.5197 O.3     1  UNL1       -0.3650
      7 N         -10.0350  -10.6811   31.2988 N.am    1  UNL1       -0.2328
      8 C         -10.3550   -9.5115   30.5178 C.2     1  UNL1        0.3097
      9 O         -10.1051   -9.5014   29.2814 O.2     1  UNL1       -0.2522
     10 N         -10.9656   -8.3629   31.1293 N.am    1  UNL1       -0.2681
     11 H          -9.0104  -13.2459   34.3578 H       1  UNL1        0.2108
     12 H         -10.5719   -9.9661   34.3340 H       1  UNL1        0.2123
     13 H         -11.5727   -8.5061   31.9663 H       1  UNL1        0.1564
     14 C         -11.4117  -13.2207   33.2473 C.ar    1  UNL1        0.0334
     15 C         -12.4723  -13.2004   32.3122 C.ar    1  UNL1        0.0026
     16 C         -13.6074  -13.9942   32.4963 C.ar    1  UNL1        0.0295
     17 C         -13.7023  -14.8369   33.6024 C.ar    1  UNL1        0.1424
     18 F         -14.8038  -15.6081   33.7758 F       1  UNL1       -0.2041
     19 C         -12.6556  -14.8977   34.5214 C.ar    1  UNL1        0.0590
     20 C         -11.5148  -14.1079   34.3472 C.ar    1  UNL1        0.1407
     21 F         -10.5065  -14.2358   35.2431 F       1  UNL1       -0.2043
     22 C         -10.8435   -7.0256   30.6142 C.ar    1  UNL1        0.0516
     23 C         -11.6710   -6.0129   31.1248 C.ar    1  UNL1        0.0156
     24 C         -11.5519   -4.6991   30.6617 C.ar    1  UNL1        0.0127
     25 C         -10.5948   -4.3811   29.6934 C.ar    1  UNL1        0.0578
     26 CL        -10.4434   -2.7316   29.1164 Cl      1  UNL1       -0.0822
     27 C          -9.7521   -5.3781   29.1929 C.ar    1  UNL1        0.0127
     28 C          -9.8699   -6.6932   29.6528 C.ar    1  UNL1        0.0156
     29 O          -7.5683  -10.2969   30.2854 O.2     1  UNL1       -0.2729
     30 C          -7.9704  -11.4870   30.1916 C.2     1  UNL1        0.2455
     31 N          -7.0835  -12.4759   29.6499 N.am    1  UNL1       -0.2680
     32 H          -6.0780  -12.4364   29.9312 H       1  UNL1        0.1563
     33 C          -7.4842  -13.4527   28.6827 C.ar    1  UNL1        0.1346
     34 C          -6.5236  -14.0749   27.8772 C.ar    1  UNL1        0.0406
     35 C          -6.9264  -15.0241   26.9372 C.ar    1  UNL1        0.0736
     36 C          -8.2869  -15.3290   26.7849 C.ar    1  UNL1        0.2466
     37 C          -9.2191  -14.6606   27.5922 C.ar    1  UNL1        0.1691
     38 N          -8.8007  -13.7513   28.5119 N.ar    1  UNL1       -0.2228
     39 N          -8.7184  -16.3293   25.8408 N.am    1  UNL1       -0.0841
     40 C          -9.2410  -17.5020   26.3166 C.2     1  UNL1        0.2905
     41 C          -9.6612  -18.5028   25.4387 C.2     1  UNL1        0.0758
     42 C          -9.5472  -18.3009   24.0656 C.2     1  UNL1        0.0161
     43 C          -9.0202  -17.1042   23.5846 C.2     1  UNL1        0.1156
     44 C          -8.6100  -16.1173   24.4877 C.2     1  UNL1        0.4230
     45 O          -8.1553  -15.0290   24.0395 O.2     1  UNL1       -0.2135
@<TRIPOS>BOND
     1    29    30    2
     2    30    31   am
     3    31    33    1
     4    33    34   ar
     5    34    35   ar
     6    35    36   ar
     7    36    39    1
     8    39    40    1
     9    40    41    2
    10    41    42    1
    11    42    43    2
    12    43    44    1
    13    44    45    2
    14    36    37   ar
    15    37    38   ar
    16    30     1    1
    17     1     2    1
    18     2     3    1
    19     3     4    1
    20     3    14    1
    21    14    15   ar
    22    15    16   ar
    23    16    17   ar
    24    17    18    1
    25    17    19   ar
    26    19    20   ar
    27    20    21    1
    28     3     5    1
    29     5     6    1
    30     5     7    1
    31     7     8   am
    32     8     9    2
    33     8    10   am
    34    10    22    1
    35    22    23   ar
    36    23    24   ar
    37    24    25   ar
    38    25    26    1
    39    25    27   ar
    40    27    28   ar
    41    38    33   ar
    42     7     1    1
    43    28    22   ar
    44    44    39    1
    45    20    14   ar
    46    31    32    1
    47     4    11    1
    48     6    12    1
    49    10    13    1
@<TRIPOS>MOLECULE
*****
 45 49 0 0 0
SMALL
GASTEIGER

@<TRIPOS>ATOM
      1 C          -9.9048  -12.1180   33.6387 C.3     1  UNL1        0.1584
      2 C         -10.6539  -13.2088   34.4081 C.3     1  UNL1        0.0647
      3 C         -12.1160  -13.2252   33.8801 C.3     1  UNL1        0.1537
      4 O         -12.9978  -13.0615   34.9713 O.3     1  UNL1       -0.3784
      5 C         -12.2345  -11.9985   32.9327 C.3     1  UNL1        0.2215
      6 O         -13.1419  -11.0444   33.4231 O.3     1  UNL1       -0.3650
      7 N         -10.9062  -11.4052   32.8547 N.am    1  UNL1       -0.2328
      8 C         -10.5663  -10.3491   31.9331 C.2     1  UNL1        0.3097
      9 O          -9.3535  -10.0727   31.7234 O.2     1  UNL1       -0.2522
     10 N         -11.5923   -9.6165   31.2428 N.am    1  UNL1       -0.2681
     11 H         -12.8131  -13.7857   35.6265 H       1  UNL1        0.2108
     12 H         -14.0509  -11.3781   33.2042 H       1  UNL1        0.2123
     13 H         -12.4979  -10.0949   31.0408 H       1  UNL1        0.1564
     14 C         -12.4427  -14.5220   33.1124 C.ar    1  UNL1        0.0334
     15 C         -11.9084  -14.7543   31.8238 C.ar    1  UNL1        0.0026
     16 C         -12.1858  -15.9373   31.1338 C.ar    1  UNL1        0.0295
     17 C         -12.9834  -16.9197   31.7182 C.ar    1  UNL1        0.1424
     18 F         -13.2476  -18.0677   31.0469 F       1  UNL1       -0.2041
     19 C         -13.4956  -16.7270   33.0005 C.ar    1  UNL1        0.0590
     20 C         -13.2244  -15.5471   33.7004 C.ar    1  UNL1        0.1407
     21 F         -13.7077  -15.4263   34.9603 F       1  UNL1       -0.2043
     22 C         -11.4215   -8.2758   30.7510 C.ar    1  UNL1        0.0516
     23 C         -12.1089   -7.2214   31.3730 C.ar    1  UNL1        0.0156
     24 C         -11.9374   -5.9056   30.9326 C.ar    1  UNL1        0.0127
     25 C         -11.0661   -5.6283   29.8750 C.ar    1  UNL1        0.0578
     26 CL        -10.8483   -3.9765   29.3262 Cl      1  UNL1       -0.0822
     27 C         -10.3613   -6.6684   29.2617 C.ar    1  UNL1        0.0127
     28 C         -10.5320   -7.9855   29.6988 C.ar    1  UNL1        0.0156
     29 O          -9.7048  -10.6531   35.5168 O.2     1  UNL1       -0.2729
     30 C          -9.1116  -11.2022   34.5506 C.2     1  UNL1        0.2455
     31 N          -7.6979  -11.0065   34.4057 N.am    1  UNL1       -0.2680
     32 H          -7.1114  -11.0242   35.2703 H       1  UNL1        0.1563
     33 C          -7.0654  -10.7029   33.1576 C.ar    1  UNL1        0.1346
     34 C          -6.5800   -9.4130   32.9145 C.ar    1  UNL1        0.0406
     35 C          -5.9669   -9.1289   31.6937 C.ar    1  UNL1        0.0736
     36 C          -5.8647  -10.1236   30.7103 C.ar    1  UNL1        0.2466
     37 C          -6.3906  -11.3948   30.9840 C.ar    1  UNL1        0.1691
     38 N          -6.9694  -11.6516   32.1868 N.ar    1  UNL1       -0.2228
     39 N          -5.2068   -9.8569   29.4556 N.am    1  UNL1       -0.0841
     40 C          -3.8742  -10.1476   29.3358 C.2     1  UNL1        0.2905
     41 C          -3.1944   -9.8954   28.1429 C.2     1  UNL1        0.0758
     42 C          -3.8835   -9.3439   27.0658 C.2     1  UNL1        0.0161
     43 C          -5.2407   -9.0544   27.1891 C.2     1  UNL1        0.1156
     44 C          -5.8973   -9.3207   28.3957 C.2     1  UNL1        0.4230
     45 O          -7.1315   -9.0751   28.4876 O.2     1  UNL1       -0.2135
@<TRIPOS>BOND
     1    29    30    2
     2    30    31   am
     3    31    33    1
     4    33    34   ar
     5    34    35   ar
     6    35    36   ar
     7    36    39    1
     8    39    40    1
     9    40    41    2
    10    41    42    1
    11    42    43    2
    12    43    44    1
    13    44    45    2
    14    36    37   ar
    15    37    38   ar
    16    30     1    1
    17     1     2    1
    18     2     3    1
    19     3     4    1
    20     3    14    1
    21    14    15   ar
    22    15    16   ar
    23    16    17   ar
    24    17    18    1
    25    17    19   ar
    26    19    20   ar
    27    20    21    1
    28     3     5    1
    29     5     6    1
    30     5     7    1
    31     7     8   am
    32     8     9    2
    33     8    10   am
    34    10    22    1
    35    22    23   ar
    36    23    24   ar
    37    24    25   ar
    38    25    26    1
    39    25    27   ar
    40    27    28   ar
    41    38    33   ar
    42     7     1    1
    43    28    22   ar
    44    44    39    1
    45    20    14   ar
    46    31    32    1
    47     4    11    1
    48     6    12    1
    49    10    13    1
@<TRIPOS>MOLECULE
*****
 45 49 0 0 0
SMALL
GASTEIGER

@<TRIPOS>ATOM
      1 C          -7.9472   -9.5863   32.1760 C.3     1  UNL1        0.1584
      2 C          -7.5351   -8.1132   32.2306 C.3     1  UNL1        0.0647
      3 C          -7.3790   -7.6227   30.7637 C.3     1  UNL1        0.1537
      4 O          -6.0850   -7.0814   30.5980 O.3     1  UNL1       -0.3784
      5 C          -7.5244   -8.8921   29.8783 C.3     1  UNL1        0.2215
      6 O          -6.3365   -9.1877   29.1886 O.3     1  UNL1       -0.3650
      7 N          -7.8452   -9.9911   30.7792 N.am    1  UNL1       -0.2328
      8 C          -8.2309  -11.3024   30.3186 C.2     1  UNL1        0.3097
      9 O          -8.7551  -12.1166   31.1269 O.2     1  UNL1       -0.2522
     10 N          -8.0355  -11.6876   28.9476 N.am    1  UNL1       -0.2681
     11 H          -5.9687   -6.3542   31.2654 H       1  UNL1        0.2108
     12 H          -6.3004   -8.5740   28.4091 H       1  UNL1        0.2123
     13 H          -8.0535  -10.9462   28.2130 H       1  UNL1        0.1564
     14 C          -8.4516   -6.5831   30.3808 C.ar    1  UNL1        0.0334
     15 C          -9.8225   -6.9297   30.3655 C.ar    1  UNL1        0.0026
     16 C         -10.7987   -5.9847   30.0389 C.ar    1  UNL1        0.0295
     17 C         -10.4333   -4.6734   29.7397 C.ar    1  UNL1        0.1424
     18 F         -11.3837   -3.7585   29.4265 F       1  UNL1       -0.2041
     19 C          -9.0907   -4.3000   29.7790 C.ar    1  UNL1        0.0590
     20 C          -8.1052   -5.2372   30.1048 C.ar    1  UNL1        0.1407
     21 F          -6.8197   -4.8148   30.1732 F       1  UNL1       -0.2043
     22 C          -7.8820  -13.0510   28.5163 C.ar    1  UNL1        0.0516
     23 C          -9.0112  -13.8824   28.4469 C.ar    1  UNL1        0.0156
     24 C          -8.8932  -15.2029   28.0029 C.ar    1  UNL1        0.0127
     25 C          -7.6476  -15.7019   27.6104 C.ar    1  UNL1        0.0578
     26 CL         -7.5015  -17.3575   27.0494 Cl      1  UNL1       -0.0822
     27 C          -6.5202  -14.8763   27.6565 C.ar    1  UNL1        0.0127
     28 C          -6.6347  -13.5559   28.1016 C.ar    1  UNL1        0.0156
     29 O          -5.8688  -10.4714   32.9574 O.2     1  UNL1       -0.2729
     30 C          -7.1201  -10.4571   33.1019 C.2     1  UNL1        0.2455
     31 N          -7.6994  -11.1954   34.1869 N.am    1  UNL1       -0.2680
     32 H          -7.2107  -11.1707   35.1102 H       1  UNL1        0.1563
     33 C          -8.8552  -12.0290   34.0482 C.ar    1  UNL1        0.1346
     34 C          -9.1576  -12.9758   35.0335 C.ar    1  UNL1        0.0406
     35 C         -10.2858  -13.7834   34.8864 C.ar    1  UNL1        0.0736
     36 C         -11.0923  -13.6631   33.7452 C.ar    1  UNL1        0.2466
     37 C         -10.7367  -12.7218   32.7681 C.ar    1  UNL1        0.1691
     38 N          -9.6415  -11.9355   32.9416 N.ar    1  UNL1       -0.2228
     39 N         -12.2788  -14.4673   33.5913 N.am    1  UNL1       -0.0841
     40 C         -12.4383  -15.1924   32.4409 C.2     1  UNL1        0.2905
     41 C         -13.5768  -15.9761   32.2447 C.2     1  UNL1        0.0758
     42 C         -14.5568  -16.0189   33.2330 C.2     1  UNL1        0.0161
     43 C         -14.3889  -15.2844   34.4049 C.2     1  UNL1        0.1156
     44 C         -13.2361  -14.5100   34.5759 C.2     1  UNL1        0.4230
     45 O         -13.0850  -13.8671   35.6510 O.2     1  UNL1       -0.2135
@<TRIPOS>BOND
     1    29    30    2
     2    30    31   am
     3    31    33    1
     4    33    34   ar
     5    34    35   ar
     6    35    36   ar
     7    36    39    1
     8    39    40    1
     9    40    41    2
    10    41    42    1
    11    42    43    2
    12    43    44    1
    13    44    45    2
    14    36    37   ar
    15    37    38   ar
    16    30     1    1
    17     1     2    1
    18     2     3    1
    19     3     4    1
    20     3    14    1
    21    14    15   ar
    22    15    16   ar
    23    16    17   ar
    24    17    18    1
    25    17    19   ar
    26    19    20   ar
    27    20    21    1
    28     3     5    1
    29     5     6    1
    30     5     7    1
    31     7     8   am
    32     8     9    2
    33     8    10   am
    34    10    22    1
    35    22    23   ar
    36    23    24   ar
    37    24    25   ar
    38    25    26    1
    39    25    27   ar
    40    27    28   ar
    41    38    33   ar
    42     7     1    1
    43    28    22   ar
    44    44    39    1
    45    20    14   ar
    46    31    32    1
    47     4    11    1
    48     6    12    1
    49    10    13    1
