@<TRIPOS>MOLECULE
*****
 37 41 0 0 0
SMALL
GASTEIGER

@<TRIPOS>ATOM
      1 C          47.4567   13.6686  -24.5565 C.2     1  UNL1        0.2491
      2 O          47.3279   14.9234  -24.5409 O.2     1  UNL1       -0.2699
      3 N          47.7479   12.9728  -23.3287 N.am    1  UNL1       -0.2760
      4 C          47.1638   11.6499  -23.0595 C.3     1  UNL1        0.0954
      5 C          46.7749   11.5429  -21.5825 C.3     1  UNL1        0.0403
      6 C          47.9951   11.7307  -20.6220 C.3     1  UNL1        0.0707
      7 C          49.0709   12.6665  -21.2697 C.3     1  UNL1        0.0403
      8 C          48.4775   13.6723  -22.2627 C.3     1  UNL1        0.0954
      9 N          48.6338   10.4112  -20.3885 N.am    1  UNL1       -0.3019
     10 C          49.5118   10.2001  -19.2709 C.2     1  UNL1        0.2650
     11 O          50.2557    9.1858  -19.2123 O.2     1  UNL1       -0.2684
     12 C          49.4872   11.1859  -18.2000 C.ar    1  UNL1        0.1519
     13 N          50.2259   11.2093  -17.0775 N.ar    1  UNL1       -0.1651
     14 N          49.8111   12.2564  -16.3691 N.ar    1  UNL1       -0.2534
     15 C          48.8001   12.8797  -17.0254 C.ar    1  UNL1        0.0927
     16 C          48.5950   12.2153  -18.2127 C.ar    1  UNL1        0.0286
     17 C          47.5135   12.3577  -19.2491 C.3     1  UNL1        0.0994
     18 H          48.5821    9.6711  -21.1250 H       1  UNL1        0.1497
     19 C          45.7714   12.8410  -30.4018 C.ar    1  UNL1        0.2249
     20 C          46.2254   11.5274  -30.5558 C.ar    1  UNL1        0.0577
     21 C          46.8412   10.8790  -29.4832 C.ar    1  UNL1        0.0063
     22 C          47.0004   11.5484  -28.2634 C.ar    1  UNL1        0.0179
     23 C          47.6065   10.9261  -27.1643 C.ar    1  UNL1        0.0016
     24 C          47.7513   11.6199  -25.9592 C.ar    1  UNL1        0.0046
     25 C          47.3035   12.9471  -25.8399 C.ar    1  UNL1        0.0551
     26 C          46.6791   13.5638  -26.9380 C.ar    1  UNL1        0.0237
     27 C          46.5319   12.8745  -28.1462 C.ar    1  UNL1        0.0845
     28 N          45.9341   13.4787  -29.2081 N.ar    1  UNL1       -0.2117
     29 C          45.3003   13.0445  -32.8235 C.3     1  UNL1        0.2542
     30 O          45.1547   13.4847  -31.4786 O.3     1  UNL1       -0.4561
     31 C          50.3263   12.6155  -15.0328 C.3     1  UNL1        0.0867
     32 C          51.7888   13.0871  -15.1502 C.3     1  UNL1        0.0244
     33 C          50.2761   11.3967  -14.0862 C.3     1  UNL1        0.0244
     34 C          49.4622   13.7435  -14.4402 C.3     1  UNL1        0.0244
     35 C          46.2558   11.6973  -18.7134 C.2     1  UNL1        0.1564
     36 C          44.8939   12.1325  -19.1681 C.3     1  UNL1        0.0726
     37 O          46.3431   10.7941  -17.8940 O.2     1  UNL1       -0.2957
@<TRIPOS>BOND
     1    29    30    1
     2    30    19    1
     3    19    20   ar
     4    20    21   ar
     5    21    22   ar
     6    22    23   ar
     7    23    24   ar
     8    24    25   ar
     9    25     1    1
    10     1     2    2
    11     1     3   am
    12     3     4    1
    13     4     5    1
    14     5     6    1
    15     6     7    1
    16     7     8    1
    17     6     9    1
    18     9    10   am
    19    10    11    2
    20    10    12    1
    21    12    13   ar
    22    13    14   ar
    23    14    31    1
    24    31    32    1
    25    31    33    1
    26    31    34    1
    27    14    15   ar
    28    15    16   ar
    29    16    17    1
    30    17    35    1
    31    35    36    1
    32    35    37    2
    33    25    26   ar
    34    26    27   ar
    35    27    28   ar
    36    28    19   ar
    37    27    22   ar
    38     8     3    1
    39    16    12   ar
    40    17     6    1
    41     9    18    1
@<TRIPOS>MOLECULE
*****
 37 41 0 0 0
SMALL
GASTEIGER

@<TRIPOS>ATOM
      1 C          45.5318   12.5630  -24.2530 C.2     1  UNL1        0.2491
      2 O          44.3608   12.6169  -23.7868 O.2     1  UNL1       -0.2699
      3 N          46.6441   12.3972  -23.3521 N.am    1  UNL1       -0.2760
      4 C          47.8037   11.5771  -23.7350 C.3     1  UNL1        0.0954
      5 C          48.3008   10.7809  -22.5254 C.3     1  UNL1        0.0403
      6 C          48.7367   11.6989  -21.3363 C.3     1  UNL1        0.0707
      7 C          47.9208   13.0356  -21.3405 C.3     1  UNL1        0.0403
      8 C          46.5321   12.8935  -21.9740 C.3     1  UNL1        0.0954
      9 N          50.1700   12.0504  -21.4974 N.am    1  UNL1       -0.3019
     10 C          50.9416   12.5423  -20.3896 C.2     1  UNL1        0.2650
     11 O          52.0627   13.0864  -20.5702 O.2     1  UNL1       -0.2684
     12 C          50.3918   12.3624  -19.0537 C.ar    1  UNL1        0.1519
     13 N          50.9180   12.7544  -17.8809 N.ar    1  UNL1       -0.1651
     14 N          50.0996   12.3138  -16.9288 N.ar    1  UNL1       -0.2534
     15 C          49.0736   11.6264  -17.4911 C.ar    1  UNL1        0.0927
     16 C          49.2371   11.6669  -18.8568 C.ar    1  UNL1        0.0286
     17 C          48.5071   10.9493  -19.9596 C.3     1  UNL1        0.0994
     18 H          50.5886   12.1000  -22.4540 H       1  UNL1        0.1497
     19 C          46.6211   10.5923  -29.9646 C.ar    1  UNL1        0.2249
     20 C          46.5652   11.8285  -30.6158 C.ar    1  UNL1        0.0577
     21 C          46.3150   12.9875  -29.8779 C.ar    1  UNL1        0.0063
     22 C          46.1210   12.9031  -28.4935 C.ar    1  UNL1        0.0179
     23 C          45.8756   14.0458  -27.7210 C.ar    1  UNL1        0.0016
     24 C          45.6861   13.9301  -26.3407 C.ar    1  UNL1        0.0046
     25 C          45.7275   12.6713  -25.7162 C.ar    1  UNL1        0.0551
     26 C          45.9921   11.5280  -26.4900 C.ar    1  UNL1        0.0237
     27 C          46.1822   11.6378  -27.8714 C.ar    1  UNL1        0.0845
     28 N          46.4300   10.5272  -28.6166 N.ar    1  UNL1       -0.2117
     29 C          47.9927    8.5929  -30.4637 C.3     1  UNL1        0.2542
     30 O          46.8730    9.4358  -30.7082 O.3     1  UNL1       -0.4561
     31 C          50.3377   12.4823  -15.4814 C.3     1  UNL1        0.0867
     32 C          51.7952   12.9230  -15.2433 C.3     1  UNL1        0.0244
     33 C          50.0963   11.1535  -14.7332 C.3     1  UNL1        0.0244
     34 C          49.3750   13.5487  -14.9279 C.3     1  UNL1        0.0244
     35 C          48.9915    9.5107  -19.9887 C.2     1  UNL1        0.1564
     36 C          48.1998    8.4365  -20.6745 C.3     1  UNL1        0.0726
     37 O          50.0444    9.2108  -19.4443 O.2     1  UNL1       -0.2957
@<TRIPOS>BOND
     1    29    30    1
     2    30    19    1
     3    19    20   ar
     4    20    21   ar
     5    21    22   ar
     6    22    23   ar
     7    23    24   ar
     8    24    25   ar
     9    25     1    1
    10     1     2    2
    11     1     3   am
    12     3     4    1
    13     4     5    1
    14     5     6    1
    15     6     7    1
    16     7     8    1
    17     6     9    1
    18     9    10   am
    19    10    11    2
    20    10    12    1
    21    12    13   ar
    22    13    14   ar
    23    14    31    1
    24    31    32    1
    25    31    33    1
    26    31    34    1
    27    14    15   ar
    28    15    16   ar
    29    16    17    1
    30    17    35    1
    31    35    36    1
    32    35    37    2
    33    25    26   ar
    34    26    27   ar
    35    27    28   ar
    36    28    19   ar
    37    27    22   ar
    38     8     3    1
    39    16    12   ar
    40    17     6    1
    41     9    18    1
@<TRIPOS>MOLECULE
*****
 37 41 0 0 0
SMALL
GASTEIGER

@<TRIPOS>ATOM
      1 C          47.0121   14.2546  -24.6044 C.2     1  UNL1        0.2491
      2 O          46.8923   15.5037  -24.4737 O.2     1  UNL1       -0.2699
      3 N          47.3578   13.4540  -23.4573 N.am    1  UNL1       -0.2760
      4 C          46.7788   12.1140  -23.2758 C.3     1  UNL1        0.0954
      5 C          46.4611   11.8798  -21.7965 C.3     1  UNL1        0.0403
      6 C          47.7273   11.9806  -20.8839 C.3     1  UNL1        0.0707
      7 C          48.7767   12.9667  -21.4994 C.3     1  UNL1        0.0403
      8 C          48.1424   14.0565  -22.3713 C.3     1  UNL1        0.0954
      9 N          48.3681   10.6442  -20.7972 N.am    1  UNL1       -0.3019
     10 C          49.2976   10.3348  -19.7461 C.2     1  UNL1        0.2650
     11 O          50.0370    9.3176  -19.8121 O.2     1  UNL1       -0.2684
     12 C          49.3312   11.2237  -18.5938 C.ar    1  UNL1        0.1519
     13 N          50.1233   11.1477  -17.5108 N.ar    1  UNL1       -0.1651
     14 N          49.7500   12.1301  -16.6949 N.ar    1  UNL1       -0.2534
     15 C          48.7125   12.8104  -17.2445 C.ar    1  UNL1        0.0927
     16 C          48.4460   12.2522  -18.4737 C.ar    1  UNL1        0.0286
     17 C          47.3167   12.4868  -19.4399 C.3     1  UNL1        0.0994
     18 H          48.2761    9.9712  -21.5917 H       1  UNL1        0.1497
     19 C          47.4692   10.0171  -29.0234 C.ar    1  UNL1        0.2249
     20 C          46.7349   10.6801  -30.0117 C.ar    1  UNL1        0.0577
     21 C          46.1908   11.9376  -29.7415 C.ar    1  UNL1        0.0063
     22 C          46.3832   12.5240  -28.4843 C.ar    1  UNL1        0.0179
     23 C          45.8584   13.7871  -28.1813 C.ar    1  UNL1        0.0016
     24 C          46.0672   14.3470  -26.9174 C.ar    1  UNL1        0.0046
     25 C          46.7924   13.6480  -25.9366 C.ar    1  UNL1        0.0551
     26 C          47.3339   12.3889  -26.2483 C.ar    1  UNL1        0.0237
     27 C          47.1278   11.8238  -27.5111 C.ar    1  UNL1        0.0845
     28 N          47.6472   10.6015  -27.8048 N.ar    1  UNL1       -0.2117
     29 C          49.3122    8.3716  -28.8709 C.3     1  UNL1        0.2542
     30 O          48.0124    8.7592  -29.2998 O.3     1  UNL1       -0.4561
     31 C          50.3315   12.3703  -15.3590 C.3     1  UNL1        0.0867
     32 C          51.7998   12.8150  -15.5049 C.3     1  UNL1        0.0244
     33 C          50.2888   11.0822  -14.5088 C.3     1  UNL1        0.0244
     34 C          49.5243   13.4682  -14.6424 C.3     1  UNL1        0.0244
     35 C          46.0821   11.7850  -18.9029 C.2     1  UNL1        0.1564
     36 C          44.7084   12.1508  -19.3826 C.3     1  UNL1        0.0726
     37 O          46.1982   10.9052  -18.0620 O.2     1  UNL1       -0.2957
@<TRIPOS>BOND
     1    29    30    1
     2    30    19    1
     3    19    20   ar
     4    20    21   ar
     5    21    22   ar
     6    22    23   ar
     7    23    24   ar
     8    24    25   ar
     9    25     1    1
    10     1     2    2
    11     1     3   am
    12     3     4    1
    13     4     5    1
    14     5     6    1
    15     6     7    1
    16     7     8    1
    17     6     9    1
    18     9    10   am
    19    10    11    2
    20    10    12    1
    21    12    13   ar
    22    13    14   ar
    23    14    31    1
    24    31    32    1
    25    31    33    1
    26    31    34    1
    27    14    15   ar
    28    15    16   ar
    29    16    17    1
    30    17    35    1
    31    35    36    1
    32    35    37    2
    33    25    26   ar
    34    26    27   ar
    35    27    28   ar
    36    28    19   ar
    37    27    22   ar
    38     8     3    1
    39    16    12   ar
    40    17     6    1
    41     9    18    1
@<TRIPOS>MOLECULE
*****
 37 41 0 0 0
SMALL
GASTEIGER

@<TRIPOS>ATOM
      1 C          50.8708   12.0995  -25.5901 C.2     1  UNL1        0.2491
      2 O          50.8843   13.3408  -25.8147 O.2     1  UNL1       -0.2699
      3 N          50.5071   11.6223  -24.2800 N.am    1  UNL1       -0.2760
      4 C          49.7258   10.3860  -24.1222 C.3     1  UNL1        0.0954
      5 C          48.7100   10.5528  -22.9889 C.3     1  UNL1        0.0403
      6 C          49.3859   10.8695  -21.6143 C.3     1  UNL1        0.0707
      7 C          50.7313   11.6431  -21.8238 C.3     1  UNL1        0.0403
      8 C          50.7550   12.4760  -23.1106 C.3     1  UNL1        0.0954
      9 N          49.7074    9.5927  -20.9284 N.am    1  UNL1       -0.3019
     10 C          49.9663    9.5551  -19.5156 C.2     1  UNL1        0.2650
     11 O          50.4922    8.5447  -18.9788 O.2     1  UNL1       -0.2684
     12 C          49.5728   10.7144  -18.7280 C.ar    1  UNL1        0.1519
     13 N          49.7310   10.9126  -17.4083 N.ar    1  UNL1       -0.1651
     14 N          49.1590   12.0803  -17.1261 N.ar    1  UNL1       -0.2534
     15 C          48.6204   12.6089  -18.2539 C.ar    1  UNL1        0.0927
     16 C          48.8963   11.7523  -19.2947 C.ar    1  UNL1        0.0286
     17 C          48.4130   11.7429  -20.7196 C.3     1  UNL1        0.0994
     18 H          49.9104    8.7364  -21.4927 H       1  UNL1        0.1497
     19 C          49.9607    7.7610  -29.8377 C.ar    1  UNL1        0.2249
     20 C          51.2694    7.6807  -30.3239 C.ar    1  UNL1        0.0577
     21 C          52.2615    8.4961  -29.7752 C.ar    1  UNL1        0.0063
     22 C          51.9388    9.3876  -28.7444 C.ar    1  UNL1        0.0179
     23 C          52.9102   10.2148  -28.1656 C.ar    1  UNL1        0.0016
     24 C          52.5579   11.0947  -27.1379 C.ar    1  UNL1        0.0046
     25 C          51.2296   11.1683  -26.6834 C.ar    1  UNL1        0.0551
     26 C          50.2601   10.3246  -27.2527 C.ar    1  UNL1        0.0237
     27 C          50.6068    9.4426  -28.2814 C.ar    1  UNL1        0.0845
     28 N          49.6630    8.6341  -28.8342 N.ar    1  UNL1       -0.2117
     29 C          48.9927    6.5204  -31.7488 C.3     1  UNL1        0.2542
     30 O          48.9720    6.9416  -30.3900 O.3     1  UNL1       -0.4561
     31 C          49.0593   12.6532  -15.7689 C.3     1  UNL1        0.0867
     32 C          50.4665   13.0106  -15.2521 C.3     1  UNL1        0.0244
     33 C          48.4205   11.6379  -14.7967 C.3     1  UNL1        0.0244
     34 C          48.1847   13.9194  -15.8138 C.3     1  UNL1        0.0244
     35 C          46.9855   11.2260  -20.7309 C.2     1  UNL1        0.1564
     36 C          45.8471   12.0732  -20.2440 C.3     1  UNL1        0.0726
     37 O          46.7486   10.0987  -21.1407 O.2     1  UNL1       -0.2957
@<TRIPOS>BOND
     1    29    30    1
     2    30    19    1
     3    19    20   ar
     4    20    21   ar
     5    21    22   ar
     6    22    23   ar
     7    23    24   ar
     8    24    25   ar
     9    25     1    1
    10     1     2    2
    11     1     3   am
    12     3     4    1
    13     4     5    1
    14     5     6    1
    15     6     7    1
    16     7     8    1
    17     6     9    1
    18     9    10   am
    19    10    11    2
    20    10    12    1
    21    12    13   ar
    22    13    14   ar
    23    14    31    1
    24    31    32    1
    25    31    33    1
    26    31    34    1
    27    14    15   ar
    28    15    16   ar
    29    16    17    1
    30    17    35    1
    31    35    36    1
    32    35    37    2
    33    25    26   ar
    34    26    27   ar
    35    27    28   ar
    36    28    19   ar
    37    27    22   ar
    38     8     3    1
    39    16    12   ar
    40    17     6    1
    41     9    18    1
@<TRIPOS>MOLECULE
*****
 37 41 0 0 0
SMALL
GASTEIGER

@<TRIPOS>ATOM
      1 C          50.5358   11.9095  -25.5784 C.2     1  UNL1        0.2491
      2 O          50.5583   13.1447  -25.8341 O.2     1  UNL1       -0.2699
      3 N          50.2248   11.4701  -24.2418 N.am    1  UNL1       -0.2760
      4 C          49.4323   10.2512  -24.0182 C.3     1  UNL1        0.0954
      5 C          48.4720   10.4622  -22.8445 C.3     1  UNL1        0.0403
      6 C          49.2148   10.8005  -21.5102 C.3     1  UNL1        0.0707
      7 C          50.5611   11.5463  -21.7995 C.3     1  UNL1        0.0403
      8 C          50.5391   12.3475  -23.1062 C.3     1  UNL1        0.0954
      9 N          49.5474    9.5354  -20.8082 N.am    1  UNL1       -0.3019
     10 C          49.8698    9.5274  -19.4080 C.2     1  UNL1        0.2650
     11 O          50.4038    8.5216  -18.8706 O.2     1  UNL1       -0.2684
     12 C          49.5308   10.7117  -18.6324 C.ar    1  UNL1        0.1519
     13 N          49.7521   10.9389  -17.3264 N.ar    1  UNL1       -0.1651
     14 N          49.2118   12.1224  -17.0477 N.ar    1  UNL1       -0.2534
     15 C          48.6307   12.6327  -18.1627 C.ar    1  UNL1        0.0927
     16 C          48.8454   11.7468  -19.1934 C.ar    1  UNL1        0.0286
     17 C          48.2975   11.7113  -20.5944 C.3     1  UNL1        0.0994
     18 H          49.7110    8.6625  -21.3596 H       1  UNL1        0.1497
     19 C          53.9416    9.0058  -29.7809 C.ar    1  UNL1        0.2249
     20 C          52.9498    8.1642  -30.2942 C.ar    1  UNL1        0.0577
     21 C          51.6552    8.2247  -29.7739 C.ar    1  UNL1        0.0063
     22 C          51.3605    9.1254  -28.7427 C.ar    1  UNL1        0.0179
     23 C          50.0713    9.2183  -28.2024 C.ar    1  UNL1        0.0016
     24 C          49.8074   10.1273  -27.1736 C.ar    1  UNL1        0.0046
     25 C          50.8297   10.9465  -26.6634 C.ar    1  UNL1        0.0551
     26 C          52.1182   10.8650  -27.2191 C.ar    1  UNL1        0.0237
     27 C          52.3880    9.9571  -28.2484 C.ar    1  UNL1        0.0845
     28 N          53.6386    9.8767  -28.7771 N.ar    1  UNL1       -0.2117
     29 C          56.1645    7.9281  -29.9409 C.3     1  UNL1        0.2542
     30 O          55.2354    8.9416  -30.3063 O.3     1  UNL1       -0.4561
     31 C          49.1831   12.7294  -15.7020 C.3     1  UNL1        0.0867
     32 C          50.6197   13.0556  -15.2494 C.3     1  UNL1        0.0244
     33 C          48.5537   11.7569  -14.6812 C.3     1  UNL1        0.0244
     34 C          48.3452   14.0204  -15.7436 C.3     1  UNL1        0.0244
     35 C          46.8631   11.2182  -20.5283 C.2     1  UNL1        0.1564
     36 C          45.7533   12.1126  -20.0600 C.3     1  UNL1        0.0726
     37 O          46.5968   10.0716  -20.8587 O.2     1  UNL1       -0.2957
@<TRIPOS>BOND
     1    29    30    1
     2    30    19    1
     3    19    20   ar
     4    20    21   ar
     5    21    22   ar
     6    22    23   ar
     7    23    24   ar
     8    24    25   ar
     9    25     1    1
    10     1     2    2
    11     1     3   am
    12     3     4    1
    13     4     5    1
    14     5     6    1
    15     6     7    1
    16     7     8    1
    17     6     9    1
    18     9    10   am
    19    10    11    2
    20    10    12    1
    21    12    13   ar
    22    13    14   ar
    23    14    31    1
    24    31    32    1
    25    31    33    1
    26    31    34    1
    27    14    15   ar
    28    15    16   ar
    29    16    17    1
    30    17    35    1
    31    35    36    1
    32    35    37    2
    33    25    26   ar
    34    26    27   ar
    35    27    28   ar
    36    28    19   ar
    37    27    22   ar
    38     8     3    1
    39    16    12   ar
    40    17     6    1
    41     9    18    1
@<TRIPOS>MOLECULE
*****
 37 41 0 0 0
SMALL
GASTEIGER

@<TRIPOS>ATOM
      1 C          52.4959   10.7776  -27.2290 C.2     1  UNL1        0.2491
      2 O          53.3955   11.6621  -27.2240 O.2     1  UNL1       -0.2699
      3 N          51.6005   10.6741  -26.1047 N.am    1  UNL1       -0.2760
      4 C          50.1845   10.3283  -26.3029 C.3     1  UNL1        0.0954
      5 C          49.3104   11.1429  -25.3455 C.3     1  UNL1        0.0403
      6 C          49.6593   10.8854  -23.8426 C.3     1  UNL1        0.0707
      7 C          51.1704   10.5069  -23.6817 C.3     1  UNL1        0.0403
      8 C          52.0621   11.1022  -24.7775 C.3     1  UNL1        0.0954
      9 N          48.8569    9.7375  -23.3502 N.am    1  UNL1       -0.3019
     10 C          48.6668    9.5152  -21.9435 C.2     1  UNL1        0.2650
     11 O          48.2228    8.4180  -21.5138 O.2     1  UNL1       -0.2684
     12 C          48.9796   10.6131  -21.0402 C.ar    1  UNL1        0.1519
     13 N          48.9006   10.6313  -19.6988 N.ar    1  UNL1       -0.1651
     14 N          49.2181   11.8649  -19.3142 N.ar    1  UNL1       -0.2534
     15 C          49.4736   12.6312  -20.4044 C.ar    1  UNL1        0.0927
     16 C          49.3443   11.8352  -21.5193 C.ar    1  UNL1        0.0286
     17 C          49.3490   12.1800  -22.9839 C.3     1  UNL1        0.0994
     18 H          48.5604    8.9873  -24.0152 H       1  UNL1        0.1497
     19 C          49.7370    6.9987  -31.2040 C.ar    1  UNL1        0.2249
     20 C          50.8486    6.6983  -31.9975 C.ar    1  UNL1        0.0577
     21 C          52.0880    7.2656  -31.6935 C.ar    1  UNL1        0.0063
     22 C          52.2081    8.1307  -30.5987 C.ar    1  UNL1        0.0179
     23 C          53.4373    8.7114  -30.2603 C.ar    1  UNL1        0.0016
     24 C          53.5262    9.5712  -29.1614 C.ar    1  UNL1        0.0046
     25 C          52.3871    9.8710  -28.3940 C.ar    1  UNL1        0.0551
     26 C          51.1585    9.2731  -28.7239 C.ar    1  UNL1        0.0237
     27 C          51.0636    8.4124  -29.8224 C.ar    1  UNL1        0.0845
     28 N          49.8706    7.8427  -30.1421 N.ar    1  UNL1       -0.2117
     29 C          48.1516    6.0080  -32.8267 C.3     1  UNL1        0.2542
     30 O          48.4991    6.4271  -31.5124 O.3     1  UNL1       -0.4561
     31 C          49.2021   12.3312  -17.9132 C.3     1  UNL1        0.0867
     32 C          50.6370   12.6660  -17.4617 C.3     1  UNL1        0.0244
     33 C          48.6357   11.2365  -16.9832 C.3     1  UNL1        0.0244
     34 C          48.3166   13.5858  -17.8044 C.3     1  UNL1        0.0244
     35 C          48.0074   12.8023  -23.3271 C.2     1  UNL1        0.1564
     36 C          47.8733   14.2759  -23.5744 C.3     1  UNL1        0.0726
     37 O          47.0107   12.0984  -23.4039 O.2     1  UNL1       -0.2957
@<TRIPOS>BOND
     1    29    30    1
     2    30    19    1
     3    19    20   ar
     4    20    21   ar
     5    21    22   ar
     6    22    23   ar
     7    23    24   ar
     8    24    25   ar
     9    25     1    1
    10     1     2    2
    11     1     3   am
    12     3     4    1
    13     4     5    1
    14     5     6    1
    15     6     7    1
    16     7     8    1
    17     6     9    1
    18     9    10   am
    19    10    11    2
    20    10    12    1
    21    12    13   ar
    22    13    14   ar
    23    14    31    1
    24    31    32    1
    25    31    33    1
    26    31    34    1
    27    14    15   ar
    28    15    16   ar
    29    16    17    1
    30    17    35    1
    31    35    36    1
    32    35    37    2
    33    25    26   ar
    34    26    27   ar
    35    27    28   ar
    36    28    19   ar
    37    27    22   ar
    38     8     3    1
    39    16    12   ar
    40    17     6    1
    41     9    18    1
@<TRIPOS>MOLECULE
*****
 37 41 0 0 0
SMALL
GASTEIGER

@<TRIPOS>ATOM
      1 C          51.5035    9.8944  -26.9001 C.2     1  UNL1        0.2491
      2 O          52.6910   10.3205  -26.8960 O.2     1  UNL1       -0.2699
      3 N          50.6586   10.1457  -25.7602 N.am    1  UNL1       -0.2760
      4 C          49.2261   10.4298  -25.9365 C.3     1  UNL1        0.0954
      5 C          48.7836   11.5100  -24.9457 C.3     1  UNL1        0.0403
      6 C          49.0076   11.0906  -23.4556 C.3     1  UNL1        0.0707
      7 C          50.2226   10.1101  -23.3328 C.3     1  UNL1        0.0403
      8 C          51.2705   10.3061  -24.4344 C.3     1  UNL1        0.0954
      9 N          47.8031   10.3715  -22.9697 N.am    1  UNL1       -0.3019
     10 C          47.5517   10.2123  -21.5641 C.2     1  UNL1        0.2650
     11 O          46.6931    9.3909  -21.1472 O.2     1  UNL1       -0.2684
     12 C          48.3049   11.0542  -20.6459 C.ar    1  UNL1        0.1519
     13 N          48.2544   11.0684  -19.3030 N.ar    1  UNL1       -0.1651
     14 N          49.0634   12.0452  -18.9007 N.ar    1  UNL1       -0.2534
     15 C          49.6054   12.6626  -19.9807 C.ar    1  UNL1        0.0927
     16 C          49.1432   12.0235  -21.1081 C.ar    1  UNL1        0.0286
     17 C          49.2772   12.3731  -22.5655 C.3     1  UNL1        0.0994
     18 H          47.2128    9.8322  -23.6432 H       1  UNL1        0.1497
     19 C          51.8990    6.8029  -32.1896 C.ar    1  UNL1        0.2249
     20 C          50.5342    6.5722  -32.3879 C.ar    1  UNL1        0.0577
     21 C          49.6103    7.0484  -31.4552 C.ar    1  UNL1        0.0063
     22 C          50.0568    7.7516  -30.3294 C.ar    1  UNL1        0.0179
     23 C          49.1578    8.2502  -29.3776 C.ar    1  UNL1        0.0016
     24 C          49.6335    8.9486  -28.2638 C.ar    1  UNL1        0.0046
     25 C          51.0130    9.1476  -28.0803 C.ar    1  UNL1        0.0551
     26 C          51.9125    8.6626  -29.0455 C.ar    1  UNL1        0.0237
     27 C          51.4421    7.9629  -30.1616 C.ar    1  UNL1        0.0845
     28 N          52.3174    7.4889  -31.0885 N.ar    1  UNL1       -0.2117
     29 C          54.1898    6.1044  -32.8163 C.3     1  UNL1        0.2542
     30 O          52.8191    6.3248  -33.1271 O.3     1  UNL1       -0.4561
     31 C          49.2585   12.4382  -17.4909 C.3     1  UNL1        0.0867
     32 C          50.7499   12.7306  -17.2355 C.3     1  UNL1        0.0244
     33 C          48.8095   11.3042  -16.5441 C.3     1  UNL1        0.0244
     34 C          48.4234   13.6969  -17.1930 C.3     1  UNL1        0.0244
     35 C          48.3163   13.5087  -22.8691 C.2     1  UNL1        0.1564
     36 C          48.8125   14.9024  -23.1185 C.3     1  UNL1        0.0726
     37 O          47.1133   13.2946  -22.9117 O.2     1  UNL1       -0.2957
@<TRIPOS>BOND
     1    29    30    1
     2    30    19    1
     3    19    20   ar
     4    20    21   ar
     5    21    22   ar
     6    22    23   ar
     7    23    24   ar
     8    24    25   ar
     9    25     1    1
    10     1     2    2
    11     1     3   am
    12     3     4    1
    13     4     5    1
    14     5     6    1
    15     6     7    1
    16     7     8    1
    17     6     9    1
    18     9    10   am
    19    10    11    2
    20    10    12    1
    21    12    13   ar
    22    13    14   ar
    23    14    31    1
    24    31    32    1
    25    31    33    1
    26    31    34    1
    27    14    15   ar
    28    15    16   ar
    29    16    17    1
    30    17    35    1
    31    35    36    1
    32    35    37    2
    33    25    26   ar
    34    26    27   ar
    35    27    28   ar
    36    28    19   ar
    37    27    22   ar
    38     8     3    1
    39    16    12   ar
    40    17     6    1
    41     9    18    1
@<TRIPOS>MOLECULE
*****
 37 41 0 0 0
SMALL
GASTEIGER

@<TRIPOS>ATOM
      1 C          50.5223    9.4860  -25.2276 C.2     1  UNL1        0.2491
      2 O          51.6445    8.9275  -25.0853 O.2     1  UNL1       -0.2699
      3 N          49.9485   10.2109  -24.1223 N.am    1  UNL1       -0.2760
      4 C          49.1841   11.4466  -24.3516 C.3     1  UNL1        0.0954
      5 C          49.4965   12.4641  -23.2510 C.3     1  UNL1        0.0403
      6 C          49.1367   11.9380  -21.8227 C.3     1  UNL1        0.0707
      7 C          49.2662   10.3786  -21.7579 C.3     1  UNL1        0.0403
      8 C          50.2910    9.8159  -22.7495 C.3     1  UNL1        0.0954
      9 N          47.7239   12.2813  -21.5230 N.am    1  UNL1       -0.3019
     10 C          47.2315   12.2815  -20.1732 C.2     1  UNL1        0.2650
     11 O          45.9956   12.3086  -19.9331 O.2     1  UNL1       -0.2684
     12 C          48.2133   12.2778  -19.0985 C.ar    1  UNL1        0.1519
     13 N          47.9918   12.2570  -17.7731 N.ar    1  UNL1       -0.1651
     14 N          49.1832   12.3324  -17.1855 N.ar    1  UNL1       -0.2534
     15 C          50.1529   12.4246  -18.1302 C.ar    1  UNL1        0.0927
     16 C          49.5463   12.3701  -19.3640 C.ar    1  UNL1        0.0286
     17 C          50.0996   12.5888  -20.7461 C.3     1  UNL1        0.0994
     18 H          47.0328   12.3654  -22.3029 H       1  UNL1        0.1497
     19 C          46.6622   11.1107  -29.7168 C.ar    1  UNL1        0.2249
     20 C          46.9079   10.0436  -30.5865 C.ar    1  UNL1        0.0577
     21 C          47.8295    9.0577  -30.2274 C.ar    1  UNL1        0.0063
     22 C          48.5006    9.1453  -29.0013 C.ar    1  UNL1        0.0179
     23 C          49.4256    8.1704  -28.6056 C.ar    1  UNL1        0.0016
     24 C          50.0799    8.2849  -27.3753 C.ar    1  UNL1        0.0046
     25 C          49.8278    9.3799  -26.5305 C.ar    1  UNL1        0.0551
     26 C          48.8859   10.3475  -26.9209 C.ar    1  UNL1        0.0237
     27 C          48.2286   10.2381  -28.1507 C.ar    1  UNL1        0.0845
     28 N          47.3239   11.1815  -28.5272 N.ar    1  UNL1       -0.2117
     29 C          45.6495   12.6149  -31.4020 C.3     1  UNL1        0.2542
     30 O          45.7380   12.0941  -30.0811 O.3     1  UNL1       -0.4561
     31 C          49.3896   12.3942  -15.7247 C.3     1  UNL1        0.0867
     32 C          50.8990   12.4149  -15.4146 C.3     1  UNL1        0.0244
     33 C          48.7617   11.1636  -15.0353 C.3     1  UNL1        0.0244
     34 C          48.7273   13.6688  -15.1705 C.3     1  UNL1        0.0244
     35 C          50.2822   14.0821  -20.9510 C.2     1  UNL1        0.1564
     36 C          51.6475   14.6863  -21.0983 C.3     1  UNL1        0.0726
     37 O          49.3049   14.8152  -20.9962 O.2     1  UNL1       -0.2957
@<TRIPOS>BOND
     1    29    30    1
     2    30    19    1
     3    19    20   ar
     4    20    21   ar
     5    21    22   ar
     6    22    23   ar
     7    23    24   ar
     8    24    25   ar
     9    25     1    1
    10     1     2    2
    11     1     3   am
    12     3     4    1
    13     4     5    1
    14     5     6    1
    15     6     7    1
    16     7     8    1
    17     6     9    1
    18     9    10   am
    19    10    11    2
    20    10    12    1
    21    12    13   ar
    22    13    14   ar
    23    14    31    1
    24    31    32    1
    25    31    33    1
    26    31    34    1
    27    14    15   ar
    28    15    16   ar
    29    16    17    1
    30    17    35    1
    31    35    36    1
    32    35    37    2
    33    25    26   ar
    34    26    27   ar
    35    27    28   ar
    36    28    19   ar
    37    27    22   ar
    38     8     3    1
    39    16    12   ar
    40    17     6    1
    41     9    18    1
@<TRIPOS>MOLECULE
*****
 37 41 0 0 0
SMALL
GASTEIGER

@<TRIPOS>ATOM
      1 C          48.2952   10.8202  -19.9848 C.2     1  UNL1        0.2491
      2 O          47.3361   10.0079  -20.0942 O.2     1  UNL1       -0.2699
      3 N          49.1512   11.0598  -21.1189 N.am    1  UNL1       -0.2760
      4 C          49.6918   12.4027  -21.3802 C.3     1  UNL1        0.0954
      5 C          49.6924   12.6800  -22.8860 C.3     1  UNL1        0.0403
      6 C          50.5566   11.6526  -23.6886 C.3     1  UNL1        0.0707
      7 C          50.5807   10.2641  -22.9647 C.3     1  UNL1        0.0403
      8 C          49.3279   10.0007  -22.1215 C.3     1  UNL1        0.0954
      9 N          51.9553   12.1456  -23.7551 N.am    1  UNL1       -0.3019
     10 C          52.8754   11.6348  -24.7334 C.2     1  UNL1        0.2650
     11 O          54.1130   11.8437  -24.6318 O.2     1  UNL1       -0.2684
     12 C          52.3207   10.8937  -25.8568 C.ar    1  UNL1        0.1519
     13 N          52.9804   10.3111  -26.8725 N.ar    1  UNL1       -0.1651
     14 N          52.0576    9.8140  -27.6921 N.ar    1  UNL1       -0.2534
     15 C          50.8205   10.0994  -27.2130 C.ar    1  UNL1        0.0927
     16 C          50.9740   10.7748  -26.0241 C.ar    1  UNL1        0.0286
     17 C          49.9685   11.4723  -25.1486 C.3     1  UNL1        0.0994
     18 H          52.3313   12.7475  -22.9876 H       1  UNL1        0.1497
     19 C          47.3806   15.0104  -15.5918 C.ar    1  UNL1        0.2249
     20 C          48.3613   14.5757  -14.6947 C.ar    1  UNL1        0.0577
     21 C          49.1523   13.4710  -15.0177 C.ar    1  UNL1        0.0063
     22 C          48.9570   12.8070  -16.2352 C.ar    1  UNL1        0.0179
     23 C          49.7372   11.7004  -16.5950 C.ar    1  UNL1        0.0016
     24 C          49.5190   11.0580  -17.8175 C.ar    1  UNL1        0.0046
     25 C          48.5118   11.5050  -18.6904 C.ar    1  UNL1        0.0551
     26 C          47.7422   12.6266  -18.3360 C.ar    1  UNL1        0.0237
     27 C          47.9559   13.2729  -17.1141 C.ar    1  UNL1        0.0845
     28 N          47.2030   14.3530  -16.7726 N.ar    1  UNL1       -0.2117
     29 C          45.2247   16.2261  -15.6390 C.3     1  UNL1        0.2542
     30 O          46.5926   16.1173  -15.2636 O.3     1  UNL1       -0.4561
     31 C          52.3556    9.1355  -28.9692 C.3     1  UNL1        0.0867
     32 C          51.0891    8.4271  -29.4881 C.3     1  UNL1        0.0244
     33 C          53.4665    8.0806  -28.7770 C.3     1  UNL1        0.0244
     34 C          52.8287   10.1763  -30.0003 C.3     1  UNL1        0.0244
     35 C          49.6095   12.7947  -25.8024 C.2     1  UNL1        0.1564
     36 C          48.2023   13.0972  -26.2254 C.3     1  UNL1        0.0726
     37 O          50.4765   13.6351  -25.9942 O.2     1  UNL1       -0.2957
@<TRIPOS>BOND
     1    29    30    1
     2    30    19    1
     3    19    20   ar
     4    20    21   ar
     5    21    22   ar
     6    22    23   ar
     7    23    24   ar
     8    24    25   ar
     9    25     1    1
    10     1     2    2
    11     1     3   am
    12     3     4    1
    13     4     5    1
    14     5     6    1
    15     6     7    1
    16     7     8    1
    17     6     9    1
    18     9    10   am
    19    10    11    2
    20    10    12    1
    21    12    13   ar
    22    13    14   ar
    23    14    31    1
    24    31    32    1
    25    31    33    1
    26    31    34    1
    27    14    15   ar
    28    15    16   ar
    29    16    17    1
    30    17    35    1
    31    35    36    1
    32    35    37    2
    33    25    26   ar
    34    26    27   ar
    35    27    28   ar
    36    28    19   ar
    37    27    22   ar
    38     8     3    1
    39    16    12   ar
    40    17     6    1
    41     9    18    1
