@<TRIPOS>MOLECULE
*****
 29 32 0 0 0
SMALL
GASTEIGER

@<TRIPOS>ATOM
      1 N         -21.8337  -12.6116  -14.8236 N.ar    1  UNL1       -0.3243
      2 C         -22.2036  -11.5140  -15.5332 C.ar    1  UNL1        0.0600
      3 C         -22.7163  -11.4608  -16.8336 C.ar    1  UNL1        0.0177
      4 C         -23.0348  -10.2001  -17.3704 C.ar    1  UNL1        0.0082
      5 C         -22.8425   -9.0250  -16.6105 C.ar    1  UNL1        0.0347
      6 BR        -23.2829   -7.3254  -17.3611 Br      1  UNL1       -0.0490
      7 C         -22.3304   -9.0989  -15.3028 C.ar    1  UNL1        0.0082
      8 C         -22.0231  -10.3602  -14.7962 C.ar    1  UNL1        0.0177
      9 C         -21.5215  -10.7529  -13.5771 C.ar    1  UNL1        0.0177
     10 C         -21.1541  -10.0162  -12.4528 C.ar    1  UNL1        0.0082
     11 C         -20.6649  -10.7209  -11.3388 C.ar    1  UNL1        0.0347
     12 BR        -20.1436   -9.7679   -9.7685 Br      1  UNL1       -0.0490
     13 C         -20.5574  -12.1288  -11.3745 C.ar    1  UNL1        0.0082
     14 C         -20.9366  -12.8479  -12.5224 C.ar    1  UNL1        0.0177
     15 C         -21.4185  -12.1297  -13.6227 C.ar    1  UNL1        0.0600
     16 C         -21.8454  -14.0092  -15.2763 C.3     1  UNL1        0.1429
     17 C         -23.2732  -14.5118  -15.5463 C.3     1  UNL1        0.2027
     18 F         -23.2347  -15.7523  -16.1595 F       1  UNL1       -0.2334
     19 C         -24.1149  -14.5989  -14.2661 C.3     1  UNL1        0.1259
     20 N         -25.2287  -13.6530  -14.3180 N.pl3   1  UNL1       -0.3157
     21 H         -26.1322  -13.9770  -14.7322 H       1  UNL1        0.1483
     22 C         -24.5438  -10.9146  -11.9369 C.ar    1  UNL1        0.2261
     23 C         -24.9874   -9.7922  -12.6412 C.ar    1  UNL1        0.0578
     24 C         -25.5197   -9.9537  -13.9216 C.ar    1  UNL1        0.0077
     25 C         -25.6032  -11.2283  -14.4856 C.ar    1  UNL1        0.0343
     26 C         -25.1493  -12.3347  -13.7554 C.ar    1  UNL1        0.1317
     27 N         -24.6371  -12.1486  -12.5067 N.ar    1  UNL1       -0.1969
     28 C         -24.1347   -9.5504   -9.9136 C.3     1  UNL1        0.2542
     29 O         -24.0079  -10.7579  -10.6557 O.3     1  UNL1       -0.4561
@<TRIPOS>BOND
     1    28    29    1
     2    29    22    1
     3    22    23   ar
     4    23    24   ar
     5    24    25   ar
     6    25    26   ar
     7    26    20    1
     8    20    19    1
     9    19    17    1
    10    17    18    1
    11    17    16    1
    12    16     1    1
    13     1     2   ar
    14     2     3   ar
    15     3     4   ar
    16     4     5   ar
    17     5     6    1
    18     5     7   ar
    19     7     8   ar
    20     8     9   ar
    21     9    10   ar
    22    10    11   ar
    23    11    12    1
    24    11    13   ar
    25    13    14   ar
    26    14    15   ar
    27    26    27   ar
    28    27    22   ar
    29    15     1   ar
    30     8     2   ar
    31    15     9   ar
    32    20    21    1
@<TRIPOS>MOLECULE
*****
 29 32 0 0 0
SMALL
GASTEIGER

@<TRIPOS>ATOM
      1 N         -21.8264  -12.6424  -14.8154 N.ar    1  UNL1       -0.3243
      2 C         -21.4131  -12.1517  -13.6180 C.ar    1  UNL1        0.0600
      3 C         -20.9178  -12.8627  -12.5198 C.ar    1  UNL1        0.0177
      4 C         -20.5452  -12.1379  -11.3732 C.ar    1  UNL1        0.0082
      5 C         -20.6676  -10.7310  -11.3399 C.ar    1  UNL1        0.0347
      6 BR        -20.1547   -9.7696   -9.7720 Br      1  UNL1       -0.0490
      7 C         -21.1632  -10.0332  -12.4558 C.ar    1  UNL1        0.0082
      8 C         -21.5251  -10.7759  -13.5779 C.ar    1  UNL1        0.0177
      9 C         -22.0273  -10.3917  -14.7995 C.ar    1  UNL1        0.0177
     10 C         -22.3410   -9.1340  -15.3110 C.ar    1  UNL1        0.0082
     11 C         -22.8479   -9.0672  -16.6208 C.ar    1  UNL1        0.0347
     12 BR        -23.2978   -7.3730  -17.3776 Br      1  UNL1       -0.0490
     13 C         -23.0255  -10.2452  -17.3794 C.ar    1  UNL1        0.0082
     14 C         -22.6997  -11.5022  -16.8386 C.ar    1  UNL1        0.0177
     15 C         -22.1992  -11.5499  -15.5325 C.ar    1  UNL1        0.0600
     16 C         -21.8907  -14.0518  -15.2249 C.3     1  UNL1        0.1429
     17 C         -23.3314  -14.4948  -15.5285 C.3     1  UNL1        0.2027
     18 F         -23.3315  -15.7470  -16.1186 F       1  UNL1       -0.2334
     19 C         -24.2128  -14.5202  -14.2725 C.3     1  UNL1        0.1259
     20 N         -25.2724  -13.5170  -14.3679 N.pl3   1  UNL1       -0.3157
     21 H         -26.1597  -13.7812  -14.8534 H       1  UNL1        0.1483
     22 C         -24.5246  -10.8815  -11.8916 C.ar    1  UNL1        0.2261
     23 C         -24.9561   -9.7265  -12.5493 C.ar    1  UNL1        0.0578
     24 C         -25.5013   -9.8312  -13.8302 C.ar    1  UNL1        0.0077
     25 C         -25.6096  -11.0822  -14.4409 C.ar    1  UNL1        0.0343
     26 C         -25.1674  -12.2223  -13.7569 C.ar    1  UNL1        0.1317
     27 N         -24.6421  -12.0915  -12.5066 N.ar    1  UNL1       -0.1969
     28 C         -24.1598   -9.6377   -9.7840 C.3     1  UNL1        0.2542
     29 O         -23.9759  -10.7816  -10.6101 O.3     1  UNL1       -0.4561
@<TRIPOS>BOND
     1    28    29    1
     2    29    22    1
     3    22    23   ar
     4    23    24   ar
     5    24    25   ar
     6    25    26   ar
     7    26    20    1
     8    20    19    1
     9    19    17    1
    10    17    18    1
    11    17    16    1
    12    16     1    1
    13     1     2   ar
    14     2     3   ar
    15     3     4   ar
    16     4     5   ar
    17     5     6    1
    18     5     7   ar
    19     7     8   ar
    20     8     9   ar
    21     9    10   ar
    22    10    11   ar
    23    11    12    1
    24    11    13   ar
    25    13    14   ar
    26    14    15   ar
    27    26    27   ar
    28    27    22   ar
    29    15     1   ar
    30     8     2   ar
    31    15     9   ar
    32    20    21    1
@<TRIPOS>MOLECULE
*****
 29 32 0 0 0
SMALL
GASTEIGER

@<TRIPOS>ATOM
      1 N         -23.0941   -8.9956  -14.1300 N.ar    1  UNL1       -0.3243
      2 C         -22.1685   -9.0154  -13.1360 C.ar    1  UNL1        0.0600
      3 C         -21.1703   -8.0726  -12.8687 C.ar    1  UNL1        0.0177
      4 C         -20.3175   -8.3012  -11.7737 C.ar    1  UNL1        0.0082
      5 C         -20.4726   -9.4516  -10.9687 C.ar    1  UNL1        0.0347
      6 BR        -19.3026   -9.7394   -9.4874 Br      1  UNL1       -0.0490
      7 C         -21.4852  -10.3860  -11.2502 C.ar    1  UNL1        0.0082
      8 C         -22.3154  -10.1349  -12.3409 C.ar    1  UNL1        0.0177
      9 C         -23.3758  -10.8420  -12.8582 C.ar    1  UNL1        0.0177
     10 C         -23.9628  -12.0418  -12.4614 C.ar    1  UNL1        0.0082
     11 C         -25.0546  -12.5162  -13.2098 C.ar    1  UNL1        0.0347
     12 BR        -25.9010  -14.1552  -12.7170 Br      1  UNL1       -0.0490
     13 C         -25.5287  -11.7873  -14.3228 C.ar    1  UNL1        0.0082
     14 C         -24.9180  -10.5779  -14.7009 C.ar    1  UNL1        0.0177
     15 C         -23.8308  -10.1227  -13.9463 C.ar    1  UNL1        0.0600
     16 C         -23.2369   -7.9912  -15.1927 C.3     1  UNL1        0.1429
     17 C         -22.5186   -8.4172  -16.4836 C.3     1  UNL1        0.2027
     18 F         -21.8754   -7.3315  -17.0526 F       1  UNL1       -0.2334
     19 C         -21.5061   -9.5454  -16.2450 C.3     1  UNL1        0.1259
     20 N         -22.0124  -10.8109  -16.7745 N.pl3   1  UNL1       -0.3157
     21 H         -22.3703  -10.8268  -17.7566 H       1  UNL1        0.1483
     22 C         -22.7990  -14.2360  -15.6400 C.ar    1  UNL1        0.2261
     23 C         -21.8915  -14.4165  -14.5929 C.ar    1  UNL1        0.0578
     24 C         -21.0108  -13.3844  -14.2645 C.ar    1  UNL1        0.0077
     25 C         -21.0429  -12.1867  -14.9817 C.ar    1  UNL1        0.0343
     26 C         -21.9634  -12.0355  -16.0272 C.ar    1  UNL1        0.1317
     27 N         -22.8133  -13.0580  -16.3244 N.ar    1  UNL1       -0.1969
     28 C         -25.0490  -15.0344  -16.2897 C.3     1  UNL1        0.2542
     29 O         -23.6812  -15.2672  -15.9741 O.3     1  UNL1       -0.4561
@<TRIPOS>BOND
     1    28    29    1
     2    29    22    1
     3    22    23   ar
     4    23    24   ar
     5    24    25   ar
     6    25    26   ar
     7    26    20    1
     8    20    19    1
     9    19    17    1
    10    17    18    1
    11    17    16    1
    12    16     1    1
    13     1     2   ar
    14     2     3   ar
    15     3     4   ar
    16     4     5   ar
    17     5     6    1
    18     5     7   ar
    19     7     8   ar
    20     8     9   ar
    21     9    10   ar
    22    10    11   ar
    23    11    12    1
    24    11    13   ar
    25    13    14   ar
    26    14    15   ar
    27    26    27   ar
    28    27    22   ar
    29    15     1   ar
    30     8     2   ar
    31    15     9   ar
    32    20    21    1
@<TRIPOS>MOLECULE
*****
 29 32 0 0 0
SMALL
GASTEIGER

@<TRIPOS>ATOM
      1 N         -23.0946   -9.0505  -14.1551 N.ar    1  UNL1       -0.3243
      2 C         -23.8350  -10.1718  -13.9564 C.ar    1  UNL1        0.0600
      3 C         -24.9105  -10.6408  -14.7182 C.ar    1  UNL1        0.0177
      4 C         -25.5318  -11.8390  -14.3221 C.ar    1  UNL1        0.0082
      5 C         -25.0750  -12.5456  -13.1874 C.ar    1  UNL1        0.0347
      6 BR        -25.9347  -14.1702  -12.6702 Br      1  UNL1       -0.0490
      7 C         -23.9891  -12.0609  -12.4367 C.ar    1  UNL1        0.0082
      8 C         -23.3926  -10.8716  -12.8511 C.ar    1  UNL1        0.0177
      9 C         -22.3327  -10.1595  -12.3397 C.ar    1  UNL1        0.0177
     10 C         -21.5125  -10.3944  -11.2380 C.ar    1  UNL1        0.0082
     11 C         -20.4947   -9.4625  -10.9682 C.ar    1  UNL1        0.0347
     12 BR        -19.3387   -9.7280   -9.4720 Br      1  UNL1       -0.0490
     13 C         -20.3225   -8.3323  -11.7976 C.ar    1  UNL1        0.0082
     14 C         -21.1643   -8.1200  -12.9043 C.ar    1  UNL1        0.0177
     15 C         -22.1737   -9.0563  -13.1557 C.ar    1  UNL1        0.0600
     16 C         -23.2797   -8.0360  -15.2015 C.3     1  UNL1        0.1429
     17 C         -22.5603   -8.4199  -16.5050 C.3     1  UNL1        0.2027
     18 F         -21.9341   -7.3116  -17.0490 F       1  UNL1       -0.2334
     19 C         -21.5315   -9.5396  -16.2978 C.3     1  UNL1        0.1259
     20 N         -22.0495  -10.8124  -16.7977 N.pl3   1  UNL1       -0.3157
     21 H         -22.4335  -10.8411  -17.7696 H       1  UNL1        0.1483
     22 C         -22.7945  -14.2268  -15.6045 C.ar    1  UNL1        0.2261
     23 C         -21.8634  -14.3903  -14.5755 C.ar    1  UNL1        0.0578
     24 C         -20.9806  -13.3502  -14.2792 C.ar    1  UNL1        0.0077
     25 C         -21.0343  -12.1616  -15.0100 C.ar    1  UNL1        0.0343
     26 C         -21.9782  -12.0275  -16.0368 C.ar    1  UNL1        0.1317
     27 N         -22.8295  -13.0574  -16.3027 N.ar    1  UNL1       -0.1969
     28 C         -25.0218  -15.0357  -16.3165 C.3     1  UNL1        0.2542
     29 O         -23.6788  -15.2660  -15.9065 O.3     1  UNL1       -0.4561
@<TRIPOS>BOND
     1    28    29    1
     2    29    22    1
     3    22    23   ar
     4    23    24   ar
     5    24    25   ar
     6    25    26   ar
     7    26    20    1
     8    20    19    1
     9    19    17    1
    10    17    18    1
    11    17    16    1
    12    16     1    1
    13     1     2   ar
    14     2     3   ar
    15     3     4   ar
    16     4     5   ar
    17     5     6    1
    18     5     7   ar
    19     7     8   ar
    20     8     9   ar
    21     9    10   ar
    22    10    11   ar
    23    11    12    1
    24    11    13   ar
    25    13    14   ar
    26    14    15   ar
    27    26    27   ar
    28    27    22   ar
    29    15     1   ar
    30     8     2   ar
    31    15     9   ar
    32    20    21    1
@<TRIPOS>MOLECULE
*****
 29 32 0 0 0
SMALL
GASTEIGER

@<TRIPOS>ATOM
      1 N         -23.6961   -8.5247  -11.6704 N.ar    1  UNL1       -0.3243
      2 C         -24.5538   -7.6415  -12.2445 C.ar    1  UNL1        0.0600
      3 C         -24.6841   -6.2732  -11.9842 C.ar    1  UNL1        0.0177
      4 C         -25.6483   -5.5487  -12.7083 C.ar    1  UNL1        0.0082
      5 C         -26.4569   -6.1911  -13.6722 C.ar    1  UNL1        0.0347
      6 BR        -27.7584   -5.1859  -14.6425 Br      1  UNL1       -0.0490
      7 C         -26.3080   -7.5667  -13.9234 C.ar    1  UNL1        0.0082
      8 C         -25.3457   -8.2600  -13.1917 C.ar    1  UNL1        0.0177
      9 C         -24.9668   -9.5821  -13.2109 C.ar    1  UNL1        0.0177
     10 C         -25.4248  -10.6596  -13.9666 C.ar    1  UNL1        0.0082
     11 C         -24.8250  -11.9129  -13.7514 C.ar    1  UNL1        0.0347
     12 BR        -25.4097  -13.4284  -14.7548 Br      1  UNL1       -0.0490
     13 C         -23.7927  -12.0570  -12.7982 C.ar    1  UNL1        0.0082
     14 C         -23.3487  -10.9519  -12.0496 C.ar    1  UNL1        0.0177
     15 C         -23.9592   -9.7130  -12.2750 C.ar    1  UNL1        0.0600
     16 C         -22.7254   -8.2552  -10.6012 C.3     1  UNL1        0.1429
     17 C         -21.3054   -8.0518  -11.1547 C.3     1  UNL1        0.2027
     18 F         -20.7815   -9.2603  -11.5808 F       1  UNL1       -0.2334
     19 C         -21.2663   -7.0410  -12.3086 C.3     1  UNL1        0.1259
     20 N         -20.6783   -7.6466  -13.5026 N.pl3   1  UNL1       -0.3157
     21 H         -19.6370   -7.6436  -13.5955 H       1  UNL1        0.1483
     22 C         -22.0903  -10.3161  -15.6280 C.ar    1  UNL1        0.2261
     23 C         -22.9851   -9.6091  -16.4356 C.ar    1  UNL1        0.0578
     24 C         -23.1160   -8.2294  -16.2674 C.ar    1  UNL1        0.0077
     25 C         -22.3567   -7.5707  -15.2983 C.ar    1  UNL1        0.0343
     26 C         -21.4685   -8.3067  -14.5028 C.ar    1  UNL1        0.1317
     27 N         -21.3586   -9.6517  -14.6903 N.ar    1  UNL1       -0.1969
     28 C         -22.3407  -12.3697  -16.9851 C.3     1  UNL1        0.2542
     29 O         -21.9574  -11.6978  -15.7909 O.3     1  UNL1       -0.4561
@<TRIPOS>BOND
     1    28    29    1
     2    29    22    1
     3    22    23   ar
     4    23    24   ar
     5    24    25   ar
     6    25    26   ar
     7    26    20    1
     8    20    19    1
     9    19    17    1
    10    17    18    1
    11    17    16    1
    12    16     1    1
    13     1     2   ar
    14     2     3   ar
    15     3     4   ar
    16     4     5   ar
    17     5     6    1
    18     5     7   ar
    19     7     8   ar
    20     8     9   ar
    21     9    10   ar
    22    10    11   ar
    23    11    12    1
    24    11    13   ar
    25    13    14   ar
    26    14    15   ar
    27    26    27   ar
    28    27    22   ar
    29    15     1   ar
    30     8     2   ar
    31    15     9   ar
    32    20    21    1
@<TRIPOS>MOLECULE
*****
 29 32 0 0 0
SMALL
GASTEIGER

@<TRIPOS>ATOM
      1 N         -23.7911   -8.3404  -11.6900 N.ar    1  UNL1       -0.3243
      2 C         -24.0342   -9.5503  -12.2576 C.ar    1  UNL1        0.0600
      3 C         -23.3973  -10.7683  -11.9968 C.ar    1  UNL1        0.0177
      4 C         -23.8202  -11.9044  -12.7104 C.ar    1  UNL1        0.0082
      5 C         -24.8617  -11.8113  -13.6602 C.ar    1  UNL1        0.0347
      6 BR        -25.4182  -13.3679  -14.6157 Br      1  UNL1       -0.0490
      7 C         -25.4933  -10.5789  -13.9052 C.ar    1  UNL1        0.0082
      8 C         -25.0544   -9.4697  -13.1847 C.ar    1  UNL1        0.0177
      9 C         -25.4658   -8.1572  -13.1959 C.ar    1  UNL1        0.0177
     10 C         -26.4538   -7.5089  -13.9344 C.ar    1  UNL1        0.0082
     11 C         -26.6378   -6.1322  -13.7160 C.ar    1  UNL1        0.0347
     12 BR        -27.9748   -5.1871  -14.6983 Br      1  UNL1       -0.0490
     13 C         -25.8401   -5.4450  -12.7745 C.ar    1  UNL1        0.0082
     14 C         -24.8503   -6.1244  -12.0416 C.ar    1  UNL1        0.0177
     15 C         -24.6792   -7.4939  -12.2742 C.ar    1  UNL1        0.0600
     16 C         -22.7635   -8.0166  -10.6912 C.3     1  UNL1        0.1429
     17 C         -21.6575   -7.1230  -11.2763 C.3     1  UNL1        0.2027
     18 F         -20.9719   -6.4834  -10.2579 F       1  UNL1       -0.2334
     19 C         -20.6673   -7.9103  -12.1450 C.3     1  UNL1        0.1259
     20 N         -20.7853   -7.5131  -13.5473 N.pl3   1  UNL1       -0.3157
     21 H         -20.2530   -6.6725  -13.8684 H       1  UNL1        0.1483
     22 C         -22.0412  -10.3775  -15.5107 C.ar    1  UNL1        0.2261
     23 C         -22.9756   -9.7710  -16.3543 C.ar    1  UNL1        0.0578
     24 C         -23.1861   -8.3938  -16.2652 C.ar    1  UNL1        0.0077
     25 C         -22.4659   -7.6377  -15.3382 C.ar    1  UNL1        0.0343
     26 C         -21.5363   -8.2742  -14.5050 C.ar    1  UNL1        0.1317
     27 N         -21.3488   -9.6191  -14.6154 N.ar    1  UNL1       -0.1969
     28 C         -22.2255  -12.5264  -16.7232 C.3     1  UNL1        0.2542
     29 O         -21.8286  -11.7563  -15.5945 O.3     1  UNL1       -0.4561
@<TRIPOS>BOND
     1    28    29    1
     2    29    22    1
     3    22    23   ar
     4    23    24   ar
     5    24    25   ar
     6    25    26   ar
     7    26    20    1
     8    20    19    1
     9    19    17    1
    10    17    18    1
    11    17    16    1
    12    16     1    1
    13     1     2   ar
    14     2     3   ar
    15     3     4   ar
    16     4     5   ar
    17     5     6    1
    18     5     7   ar
    19     7     8   ar
    20     8     9   ar
    21     9    10   ar
    22    10    11   ar
    23    11    12    1
    24    11    13   ar
    25    13    14   ar
    26    14    15   ar
    27    26    27   ar
    28    27    22   ar
    29    15     1   ar
    30     8     2   ar
    31    15     9   ar
    32    20    21    1
@<TRIPOS>MOLECULE
*****
 29 32 0 0 0
SMALL
GASTEIGER

@<TRIPOS>ATOM
      1 N         -24.3129   -9.6533  -11.1261 N.ar    1  UNL1       -0.3243
      2 C         -23.7158  -10.5498  -11.9537 C.ar    1  UNL1        0.0600
      3 C         -24.2830  -11.2394  -13.0306 C.ar    1  UNL1        0.0177
      4 C         -23.4660  -12.1259  -13.7554 C.ar    1  UNL1        0.0082
      5 C         -22.1104  -12.3074  -13.4019 C.ar    1  UNL1        0.0347
      6 BR        -21.0216  -13.5161  -14.4015 Br      1  UNL1       -0.0490
      7 C         -21.5566  -11.6016  -12.3189 C.ar    1  UNL1        0.0082
      8 C         -22.3885  -10.7304  -11.6182 C.ar    1  UNL1        0.0177
      9 C         -22.1465   -9.9132  -10.5386 C.ar    1  UNL1        0.0177
     10 C         -20.9907   -9.6933   -9.7919 C.ar    1  UNL1        0.0082
     11 C         -21.0631   -8.7790   -8.7261 C.ar    1  UNL1        0.0347
     12 BR        -19.5135   -8.4358   -7.6647 Br      1  UNL1       -0.0490
     13 C         -22.2747   -8.1132   -8.4369 C.ar    1  UNL1        0.0082
     14 C         -23.4265   -8.3532   -9.2077 C.ar    1  UNL1        0.0177
     15 C         -23.3366   -9.2685  -10.2625 C.ar    1  UNL1        0.0600
     16 C         -25.7186   -9.2268  -11.1420 C.3     1  UNL1        0.1429
     17 C         -25.9948   -8.2058  -12.2580 C.3     1  UNL1        0.2027
     18 F         -27.1681   -8.5265  -12.9188 F       1  UNL1       -0.2334
     19 C         -26.0818   -6.7684  -11.7277 C.3     1  UNL1        0.1259
     20 N         -25.0679   -5.9253  -12.3596 N.pl3   1  UNL1       -0.3157
     21 H         -25.3819   -5.0494  -12.8362 H       1  UNL1        0.1483
     22 C         -21.7806   -7.4558  -13.0585 C.ar    1  UNL1        0.2261
     23 C         -20.9487   -6.7985  -12.1482 C.ar    1  UNL1        0.0578
     24 C         -21.4924   -5.8368  -11.2946 C.ar    1  UNL1        0.0077
     25 C         -22.8554   -5.5404  -11.3576 C.ar    1  UNL1        0.0343
     26 C         -23.6642   -6.2153  -12.2816 C.ar    1  UNL1        0.1317
     27 N         -23.1079   -7.1513  -13.1005 N.ar    1  UNL1       -0.1969
     28 C         -21.8301   -8.7449  -15.1697 C.3     1  UNL1        0.2542
     29 O         -21.2406   -8.4176  -13.9167 O.3     1  UNL1       -0.4561
@<TRIPOS>BOND
     1    28    29    1
     2    29    22    1
     3    22    23   ar
     4    23    24   ar
     5    24    25   ar
     6    25    26   ar
     7    26    20    1
     8    20    19    1
     9    19    17    1
    10    17    18    1
    11    17    16    1
    12    16     1    1
    13     1     2   ar
    14     2     3   ar
    15     3     4   ar
    16     4     5   ar
    17     5     6    1
    18     5     7   ar
    19     7     8   ar
    20     8     9   ar
    21     9    10   ar
    22    10    11   ar
    23    11    12    1
    24    11    13   ar
    25    13    14   ar
    26    14    15   ar
    27    26    27   ar
    28    27    22   ar
    29    15     1   ar
    30     8     2   ar
    31    15     9   ar
    32    20    21    1
@<TRIPOS>MOLECULE
*****
 29 32 0 0 0
SMALL
GASTEIGER

@<TRIPOS>ATOM
      1 N         -24.3475   -9.7410  -11.0897 N.ar    1  UNL1       -0.3243
      2 C         -23.3711   -9.3482  -10.2309 C.ar    1  UNL1        0.0600
      3 C         -23.4728   -8.4511   -9.1623 C.ar    1  UNL1        0.0177
      4 C         -22.3192   -8.1940   -8.3996 C.ar    1  UNL1        0.0082
      5 C         -21.0961   -8.8300   -8.7078 C.ar    1  UNL1        0.0347
      6 BR        -19.5441   -8.4649   -7.6572 Br      1  UNL1       -0.0490
      7 C         -21.0146   -9.7327   -9.7831 C.ar    1  UNL1        0.0082
      8 C         -22.1723   -9.9686  -10.5221 C.ar    1  UNL1        0.0177
      9 C         -22.4095  -10.7823  -11.6054 C.ar    1  UNL1        0.0177
     10 C         -21.5678  -11.6334  -12.3187 C.ar    1  UNL1        0.0082
     11 C         -22.1182  -12.3449  -13.3993 C.ar    1  UNL1        0.0347
     12 BR        -21.0154  -13.5259  -14.4167 Br      1  UNL1       -0.0490
     13 C         -23.4812  -12.1915  -13.7360 C.ar    1  UNL1        0.0082
     14 C         -24.3090  -11.3261  -12.9981 C.ar    1  UNL1        0.0177
     15 C         -23.7434  -10.6239  -11.9278 C.ar    1  UNL1        0.0600
     16 C         -25.7414   -9.2780  -11.1239 C.3     1  UNL1        0.1429
     17 C         -25.9871   -8.2852  -12.2719 C.3     1  UNL1        0.2027
     18 F         -27.2485   -8.4786  -12.8085 F       1  UNL1       -0.2334
     19 C         -25.8391   -6.8248  -11.8244 C.3     1  UNL1        0.1259
     20 N         -24.8035   -6.1503  -12.6059 N.pl3   1  UNL1       -0.3157
     21 H         -25.0574   -5.2656  -13.1017 H       1  UNL1        0.1483
     22 C         -21.7817   -7.9888  -13.6670 C.ar    1  UNL1        0.2261
     23 C         -20.8228   -7.5304  -12.7599 C.ar    1  UNL1        0.0578
     24 C         -21.1907   -6.5999  -11.7864 C.ar    1  UNL1        0.0077
     25 C         -22.5066   -6.1365  -11.7278 C.ar    1  UNL1        0.0343
     26 C         -23.4457   -6.6138  -12.6517 C.ar    1  UNL1        0.1317
     27 N         -23.0600   -7.5238  -13.5894 N.ar    1  UNL1       -0.1969
     28 C         -22.2434   -9.2170  -15.7647 C.3     1  UNL1        0.2542
     29 O         -21.4177   -8.9185  -14.6450 O.3     1  UNL1       -0.4561
@<TRIPOS>BOND
     1    28    29    1
     2    29    22    1
     3    22    23   ar
     4    23    24   ar
     5    24    25   ar
     6    25    26   ar
     7    26    20    1
     8    20    19    1
     9    19    17    1
    10    17    18    1
    11    17    16    1
    12    16     1    1
    13     1     2   ar
    14     2     3   ar
    15     3     4   ar
    16     4     5   ar
    17     5     6    1
    18     5     7   ar
    19     7     8   ar
    20     8     9   ar
    21     9    10   ar
    22    10    11   ar
    23    11    12    1
    24    11    13   ar
    25    13    14   ar
    26    14    15   ar
    27    26    27   ar
    28    27    22   ar
    29    15     1   ar
    30     8     2   ar
    31    15     9   ar
    32    20    21    1
@<TRIPOS>MOLECULE
*****
 29 32 0 0 0
SMALL
GASTEIGER

@<TRIPOS>ATOM
      1 N         -22.9244  -12.2827  -13.5544 N.ar    1  UNL1       -0.3243
      2 C         -21.9534  -11.9658  -12.6590 C.ar    1  UNL1        0.0600
      3 C         -20.7807  -12.6729  -12.3729 C.ar    1  UNL1        0.0177
      4 C         -19.9109  -12.1495  -11.3991 C.ar    1  UNL1        0.0082
      5 C         -20.2180  -10.9412  -10.7348 C.ar    1  UNL1        0.0347
      6 BR        -19.0211  -10.2509   -9.4170 Br      1  UNL1       -0.0490
      7 C         -21.3995  -10.2420  -11.0394 C.ar    1  UNL1        0.0082
      8 C         -22.2431  -10.7832  -12.0075 C.ar    1  UNL1        0.0177
      9 C         -23.4425  -10.3431  -12.5173 C.ar    1  UNL1        0.0177
     10 C         -24.2061   -9.2138  -12.2284 C.ar    1  UNL1        0.0082
     11 C         -25.4106   -9.0396  -12.9326 C.ar    1  UNL1        0.0347
     12 BR        -26.5019   -7.5129  -12.5807 Br      1  UNL1       -0.0490
     13 C         -25.8172   -9.9867  -13.8983 C.ar    1  UNL1        0.0082
     14 C         -25.0264  -11.1175  -14.1710 C.ar    1  UNL1        0.0177
     15 C         -23.8323  -11.2760  -13.4585 C.ar    1  UNL1        0.0600
     16 C         -22.9916  -13.4759  -14.4089 C.3     1  UNL1        0.1429
     17 C         -21.9944  -13.4008  -15.5768 C.3     1  UNL1        0.2027
     18 F         -21.7816  -14.6627  -16.1047 F       1  UNL1       -0.2334
     19 C         -22.4651  -12.4531  -16.6883 C.3     1  UNL1        0.1259
     20 N         -21.5864  -11.2877  -16.7762 N.pl3   1  UNL1       -0.3157
     21 H         -20.7052  -11.3750  -17.3319 H       1  UNL1        0.1483
     22 C         -21.5105   -8.3348  -14.5599 C.ar    1  UNL1        0.2261
     23 C         -22.5664   -7.5655  -15.0558 C.ar    1  UNL1        0.0578
     24 C         -23.3088   -8.0390  -16.1391 C.ar    1  UNL1        0.0077
     25 C         -22.9914   -9.2703  -16.7159 C.ar    1  UNL1        0.0343
     26 C         -21.9263  -10.0188  -16.1975 C.ar    1  UNL1        0.1317
     27 N         -21.2205   -9.5340  -15.1378 N.ar    1  UNL1       -0.1969
     28 C         -21.2891   -6.9519  -12.5202 C.3     1  UNL1        0.2542
     29 O         -20.7627   -7.8640  -13.4771 O.3     1  UNL1       -0.4561
@<TRIPOS>BOND
     1    28    29    1
     2    29    22    1
     3    22    23   ar
     4    23    24   ar
     5    24    25   ar
     6    25    26   ar
     7    26    20    1
     8    20    19    1
     9    19    17    1
    10    17    18    1
    11    17    16    1
    12    16     1    1
    13     1     2   ar
    14     2     3   ar
    15     3     4   ar
    16     4     5   ar
    17     5     6    1
    18     5     7   ar
    19     7     8   ar
    20     8     9   ar
    21     9    10   ar
    22    10    11   ar
    23    11    12    1
    24    11    13   ar
    25    13    14   ar
    26    14    15   ar
    27    26    27   ar
    28    27    22   ar
    29    15     1   ar
    30     8     2   ar
    31    15     9   ar
    32    20    21    1
