@<TRIPOS>MOLECULE
*****
 53 59 0 0 0
SMALL
GASTEIGER

@<TRIPOS>ATOM
      1 C          60.1856   85.5700   10.6138 C.ar    1  UNL1        0.0487
      2 C          59.0826   84.7991   11.0324 C.ar    1  UNL1        0.0176
      3 C          59.1720   83.9675   12.1519 C.ar    1  UNL1        0.0382
      4 C          60.3741   83.8764   12.8771 C.ar    1  UNL1        0.1388
      5 C          61.4665   84.6488   12.4735 C.ar    1  UNL1        0.0382
      6 C          61.3799   85.4811   11.3549 C.ar    1  UNL1        0.0176
      7 N          60.0934   88.0131    7.0657 N.pl3   1  UNL1       -0.3034
      8 C          58.9285   87.1677    7.3596 C.3     1  UNL1        0.1123
      9 C          59.2919   85.9984    8.2855 C.3     1  UNL1        0.1129
     10 N          60.0923   86.4299    9.4476 N.pl3   1  UNL1       -0.2974
     11 C          60.9226   87.6459    9.3541 C.3     1  UNL1        0.1377
     12 S          60.0176   89.0725   10.0538 S.3     1  UNL1       -0.1475
     13 C          61.3008   87.9266    7.8952 C.3     1  UNL1        0.1217
     14 H          61.1398   89.9204    9.9900 H       1  UNL1        0.1039
     15 C          59.8957   90.8433    3.8911 C.ar    1  UNL1        0.0699
     16 C          61.0819   90.1308    4.1397 C.ar    1  UNL1        0.0190
     17 C          61.1454   89.2014    5.1816 C.ar    1  UNL1        0.0160
     18 C          60.0247   88.9651    5.9911 C.ar    1  UNL1        0.0481
     19 C          58.8380   89.6693    5.7425 C.ar    1  UNL1        0.0160
     20 C          58.7725   90.5972    4.6995 C.ar    1  UNL1        0.0190
     21 N          59.6871   92.7433    0.8074 N.ar    1  UNL1       -0.2024
     22 N          59.7808   93.7299    1.6874 N.ar    1  UNL1       -0.1442
     23 C          59.8593   93.1477    2.9039 C.ar    1  UNL1        0.2073
     24 N          59.8209   91.7984    2.8148 N.ar    1  UNL1       -0.2398
     25 C          59.7240   91.5836    1.4877 C.ar    1  UNL1        0.3522
     26 O          59.7125   90.4449    0.9466 O.2     1  UNL1       -0.2444
     27 C          59.6409   92.9263   -0.6468 C.3     1  UNL1        0.1099
     28 C          60.7895   93.8454   -1.0785 C.3     1  UNL1        0.0265
     29 C          57.1687   92.4153   -1.0665 C.3     1  UNL1        0.0021
     30 C          58.2624   93.4836   -1.0579 C.3     1  UNL1        0.0245
     31 O          60.5299   83.0570   14.0080 O.3     1  UNL1       -0.4727
     32 C          61.0312   81.7183   14.0212 C.3     1  UNL1        0.2374
     33 C          60.4722   80.9124   12.8412 C.3     1  UNL1        0.1909
     34 C          60.8040   79.4504   12.8918 C.3     1  UNL1        0.1783
     35 O          60.9383   79.0505   11.5665 O.3     1  UNL1       -0.3266
     36 C          61.1510   80.2306   10.8155 C.3     1  UNL1        0.2314
     37 O          61.0194   81.3705   11.6464 O.3     1  UNL1       -0.3254
     38 C          60.1379   80.2957    9.6690 C.ar    1  UNL1        0.0410
     39 C          60.5734   80.1038    8.3388 C.ar    1  UNL1        0.0022
     40 C          59.6705   80.1367    7.2747 C.ar    1  UNL1        0.0113
     41 C          58.3129   80.3426    7.5132 C.ar    1  UNL1        0.0585
     42 CL         57.1816   80.3804    6.1730 Cl      1  UNL1       -0.0822
     43 C          57.8534   80.5037    8.8206 C.ar    1  UNL1        0.0226
     44 C          58.7459   80.4724    9.8996 C.ar    1  UNL1        0.0591
     45 CL         58.0523   80.6319   11.5128 Cl      1  UNL1       -0.0824
     46 C          62.5773   80.2205   10.2272 C.3     1  UNL1        0.1893
     47 N          63.0415   81.5802    9.9465 N.ar    1  UNL1       -0.2313
     48 N          62.6552   82.2859    8.8993 N.ar    1  UNL1       -0.1532
     49 C          63.2420   83.4907    9.0374 C.ar    1  UNL1        0.1604
     50 C          63.0182   84.6255    8.0971 C.3     1  UNL1        0.0756
     51 N          63.9805   83.5901   10.1646 N.ar    1  UNL1       -0.2146
     52 C          63.8343   82.3642   10.7055 C.ar    1  UNL1        0.1381
     53 C          64.4708   81.9543   11.9958 C.3     1  UNL1        0.0734
@<TRIPOS>BOND
     1    29    30    1
     2    30    27    1
     3    27    28    1
     4    27    21    1
     5    21    22   ar
     6    22    23   ar
     7    23    24   ar
     8    24    15    1
     9    15    16   ar
    10    16    17   ar
    11    17    18   ar
    12    18     7    1
    13     7     8    1
    14     8     9    1
    15     9    10    1
    16    10     1    1
    17     1     2   ar
    18     2     3   ar
    19     3     4   ar
    20     4    31    1
    21    31    32    1
    22    32    33    1
    23    33    34    1
    24    34    35    1
    25    35    36    1
    26    36    46    1
    27    46    47    1
    28    47    48   ar
    29    48    49   ar
    30    49    50    1
    31    49    51   ar
    32    51    52   ar
    33    52    53    1
    34    36    38    1
    35    38    39   ar
    36    39    40   ar
    37    40    41   ar
    38    41    42    1
    39    41    43   ar
    40    43    44   ar
    41    44    45    1
    42    36    37    1
    43     4     5   ar
    44     5     6   ar
    45    10    11    1
    46    11    12    1
    47    11    13    1
    48    18    19   ar
    49    19    20   ar
    50    24    25   ar
    51    25    26    2
    52    25    21   ar
    53    20    15   ar
    54    13     7    1
    55     6     1   ar
    56    37    33    1
    57    52    47   ar
    58    44    38   ar
    59    12    14    1
@<TRIPOS>MOLECULE
*****
 53 59 0 0 0
SMALL
GASTEIGER

@<TRIPOS>ATOM
      1 C          60.1641   85.7580   10.6377 C.ar    1  UNL1        0.0487
      2 C          61.3634   85.5015   11.3319 C.ar    1  UNL1        0.0176
      3 C          61.3842   84.6455   12.4363 C.ar    1  UNL1        0.0382
      4 C          60.2003   84.0311   12.8833 C.ar    1  UNL1        0.1388
      5 C          59.0110   84.2721   12.1903 C.ar    1  UNL1        0.0382
      6 C          58.9873   85.1272   11.0859 C.ar    1  UNL1        0.0176
      7 N          59.8779   88.4452    7.2817 N.pl3   1  UNL1       -0.3034
      8 C          60.7910   88.7950    8.3781 C.3     1  UNL1        0.1123
      9 C          60.4067   88.0903    9.6866 C.3     1  UNL1        0.1129
     10 N          60.1435   86.6513    9.4933 N.pl3   1  UNL1       -0.2974
     11 C          59.6994   86.1586    8.1754 C.3     1  UNL1        0.1377
     12 S          61.1340   85.5339    7.2291 S.3     1  UNL1       -0.1475
     13 C          58.9988   87.2756    7.3932 C.3     1  UNL1        0.1217
     14 H          60.3290   84.9912    6.2093 H       1  UNL1        0.1039
     15 C          59.9129   90.7694    3.7146 C.ar    1  UNL1        0.0699
     16 C          61.0689   90.0883    4.1345 C.ar    1  UNL1        0.0190
     17 C          61.0561   89.3249    5.3051 C.ar    1  UNL1        0.0160
     18 C          59.8879   89.2260    6.0751 C.ar    1  UNL1        0.0481
     19 C          58.7312   89.8990    5.6564 C.ar    1  UNL1        0.0160
     20 C          58.7421   90.6606    4.4846 C.ar    1  UNL1        0.0190
     21 N          59.9699   92.1890    0.3763 N.ar    1  UNL1       -0.2024
     22 N          59.9150   93.2959    1.1033 N.ar    1  UNL1       -0.1442
     23 C          59.8807   92.9009    2.3947 C.ar    1  UNL1        0.2073
     24 N          59.9170   91.5530    2.5054 N.ar    1  UNL1       -0.2398
     25 C          59.9835   91.1440    1.2229 C.ar    1  UNL1        0.3522
     26 O          60.0883   89.9409    0.8606 O.2     1  UNL1       -0.2444
     27 C          60.0825   92.1577   -1.0854 C.3     1  UNL1        0.1099
     28 C          61.2110   93.0969   -1.5269 C.3     1  UNL1        0.0265
     29 C          57.6174   91.5393   -1.3854 C.3     1  UNL1        0.0021
     30 C          58.7281   92.5353   -1.7200 C.3     1  UNL1        0.0245
     31 O          60.1535   83.1642   13.9883 O.3     1  UNL1       -0.4727
     32 C          60.6796   81.8363   14.0458 C.3     1  UNL1        0.2374
     33 C          60.1976   81.0039   12.8503 C.3     1  UNL1        0.1909
     34 C          60.5778   79.5548   12.9254 C.3     1  UNL1        0.1783
     35 O          60.7800   79.1517   11.6098 O.3     1  UNL1       -0.3266
     36 C          60.9818   80.3339   10.8590 C.3     1  UNL1        0.2314
     37 O          60.7768   81.4736   11.6752 O.3     1  UNL1       -0.3254
     38 C          60.0146   80.3563    9.6720 C.ar    1  UNL1        0.0410
     39 C          60.4557   80.8374    8.4190 C.ar    1  UNL1        0.0022
     40 C          59.6037   80.8509    7.3133 C.ar    1  UNL1        0.0113
     41 C          58.3010   80.3687    7.4262 C.ar    1  UNL1        0.0585
     42 CL         57.2348   80.3851    6.0332 Cl      1  UNL1       -0.0822
     43 C          57.8513   79.8595    8.6446 C.ar    1  UNL1        0.0226
     44 C          58.6936   79.8379    9.7635 C.ar    1  UNL1        0.0591
     45 CL         58.0425   79.1231   11.2379 Cl      1  UNL1       -0.0824
     46 C          62.4304   80.3703   10.3290 C.3     1  UNL1        0.1893
     47 N          63.2223   81.3837   11.0283 N.ar    1  UNL1       -0.2313
     48 N          63.6492   81.2526   12.2709 N.ar    1  UNL1       -0.1532
     49 C          64.3894   82.3509   12.5179 C.ar    1  UNL1        0.1604
     50 C          65.1210   82.5772   13.7968 C.3     1  UNL1        0.0756
     51 N          64.4725   83.1796   11.4538 N.ar    1  UNL1       -0.2146
     52 C          63.7185   82.5385   10.5388 C.ar    1  UNL1        0.1381
     53 C          63.4887   83.0573    9.1546 C.3     1  UNL1        0.0734
@<TRIPOS>BOND
     1    29    30    1
     2    30    27    1
     3    27    28    1
     4    27    21    1
     5    21    22   ar
     6    22    23   ar
     7    23    24   ar
     8    24    15    1
     9    15    16   ar
    10    16    17   ar
    11    17    18   ar
    12    18     7    1
    13     7     8    1
    14     8     9    1
    15     9    10    1
    16    10     1    1
    17     1     2   ar
    18     2     3   ar
    19     3     4   ar
    20     4    31    1
    21    31    32    1
    22    32    33    1
    23    33    34    1
    24    34    35    1
    25    35    36    1
    26    36    46    1
    27    46    47    1
    28    47    48   ar
    29    48    49   ar
    30    49    50    1
    31    49    51   ar
    32    51    52   ar
    33    52    53    1
    34    36    38    1
    35    38    39   ar
    36    39    40   ar
    37    40    41   ar
    38    41    42    1
    39    41    43   ar
    40    43    44   ar
    41    44    45    1
    42    36    37    1
    43     4     5   ar
    44     5     6   ar
    45    10    11    1
    46    11    12    1
    47    11    13    1
    48    18    19   ar
    49    19    20   ar
    50    24    25   ar
    51    25    26    2
    52    25    21   ar
    53    20    15   ar
    54    13     7    1
    55     6     1   ar
    56    37    33    1
    57    52    47   ar
    58    44    38   ar
    59    12    14    1
@<TRIPOS>MOLECULE
*****
 53 59 0 0 0
SMALL
GASTEIGER

@<TRIPOS>ATOM
      1 C          60.1301   85.5583   10.7878 C.ar    1  UNL1        0.0487
      2 C          58.9473   84.9360   11.2347 C.ar    1  UNL1        0.0176
      3 C          58.9611   84.0760   12.3360 C.ar    1  UNL1        0.0382
      4 C          60.1639   83.8064   13.0139 C.ar    1  UNL1        0.1388
      5 C          61.3371   84.4313   12.5826 C.ar    1  UNL1        0.0382
      6 C          61.3262   85.2916   11.4819 C.ar    1  UNL1        0.0176
      7 N          59.8576   88.2280    7.4167 N.pl3   1  UNL1       -0.3034
      8 C          60.7293   88.6072    8.5366 C.3     1  UNL1        0.1123
      9 C          60.3300   87.8946    9.8363 C.3     1  UNL1        0.1129
     10 N          60.1148   86.4480    9.6404 N.pl3   1  UNL1       -0.2974
     11 C          59.7221   85.9392    8.3123 C.3     1  UNL1        0.1377
     12 S          61.2000   85.3550    7.4079 S.3     1  UNL1       -0.1475
     13 C          59.0107   87.0331    7.5076 C.3     1  UNL1        0.1217
     14 H          60.4399   84.7863    6.3680 H       1  UNL1        0.1039
     15 C          59.9119   90.5214    3.8299 C.ar    1  UNL1        0.0699
     16 C          58.7534   90.4658    4.6244 C.ar    1  UNL1        0.0190
     17 C          58.7370   89.7134    5.8021 C.ar    1  UNL1        0.0160
     18 C          59.8779   89.0059    6.2083 C.ar    1  UNL1        0.0481
     19 C          61.0372   89.0637    5.4217 C.ar    1  UNL1        0.0160
     20 C          61.0557   89.8178    4.2451 C.ar    1  UNL1        0.0190
     21 N          60.5803   92.5878    0.9237 N.ar    1  UNL1       -0.2024
     22 N          59.2920   92.3341    0.7425 N.ar    1  UNL1       -0.1442
     23 C          58.9106   91.5498    1.7742 C.ar    1  UNL1        0.2073
     24 N          59.9382   91.3002    2.6179 N.ar    1  UNL1       -0.2398
     25 C          60.9621   91.9749    2.0584 C.ar    1  UNL1        0.3522
     26 O          62.1186   92.0589    2.5536 O.2     1  UNL1       -0.2444
     27 C          61.3866   93.4583    0.0622 C.3     1  UNL1        0.1099
     28 C          60.5671   93.8479   -1.1736 C.3     1  UNL1        0.0265
     29 C          62.6913   92.1871   -1.7353 C.3     1  UNL1        0.0021
     30 C          62.7027   92.7458   -0.3122 C.3     1  UNL1        0.0245
     31 O          60.2455   82.9491   14.1244 O.3     1  UNL1       -0.4727
     32 C          60.7697   81.6192   14.1308 C.3     1  UNL1        0.2374
     33 C          60.2867   80.8340   12.9042 C.3     1  UNL1        0.1909
     34 C          60.7009   79.3923   12.9033 C.3     1  UNL1        0.1783
     35 O          60.8900   79.0576   11.5667 O.3     1  UNL1       -0.3266
     36 C          61.0524   80.2788   10.8708 C.3     1  UNL1        0.2314
     37 O          60.8353   81.3730   11.7442 O.3     1  UNL1       -0.3254
     38 C          60.0652   80.3354    9.7015 C.ar    1  UNL1        0.0410
     39 C          60.4968   80.8133    8.4440 C.ar    1  UNL1        0.0022
     40 C          59.6259   80.8573    7.3539 C.ar    1  UNL1        0.0113
     41 C          58.3129   80.4095    7.4870 C.ar    1  UNL1        0.0585
     42 CL         57.2229   80.4642    6.1135 Cl      1  UNL1       -0.0822
     43 C          57.8714   79.9040    8.7100 C.ar    1  UNL1        0.0226
     44 C          58.7326   79.8520    9.8134 C.ar    1  UNL1        0.0591
     45 CL         58.0888   79.1447   11.2946 Cl      1  UNL1       -0.0824
     46 C          62.4907   80.3745   10.3206 C.3     1  UNL1        0.1893
     47 N          63.2618   81.3932   11.0352 N.ar    1  UNL1       -0.2313
     48 N          63.6720   81.2616   12.2835 N.ar    1  UNL1       -0.1532
     49 C          64.3971   82.3664   12.5454 C.ar    1  UNL1        0.1604
     50 C          65.1077   82.5952   13.8357 C.3     1  UNL1        0.0756
     51 N          64.4871   83.2001   11.4858 N.ar    1  UNL1       -0.2146
     52 C          63.7532   82.5549   10.5574 C.ar    1  UNL1        0.1381
     53 C          63.5381   83.0769    9.1720 C.3     1  UNL1        0.0734
@<TRIPOS>BOND
     1    29    30    1
     2    30    27    1
     3    27    28    1
     4    27    21    1
     5    21    22   ar
     6    22    23   ar
     7    23    24   ar
     8    24    15    1
     9    15    16   ar
    10    16    17   ar
    11    17    18   ar
    12    18     7    1
    13     7     8    1
    14     8     9    1
    15     9    10    1
    16    10     1    1
    17     1     2   ar
    18     2     3   ar
    19     3     4   ar
    20     4    31    1
    21    31    32    1
    22    32    33    1
    23    33    34    1
    24    34    35    1
    25    35    36    1
    26    36    46    1
    27    46    47    1
    28    47    48   ar
    29    48    49   ar
    30    49    50    1
    31    49    51   ar
    32    51    52   ar
    33    52    53    1
    34    36    38    1
    35    38    39   ar
    36    39    40   ar
    37    40    41   ar
    38    41    42    1
    39    41    43   ar
    40    43    44   ar
    41    44    45    1
    42    36    37    1
    43     4     5   ar
    44     5     6   ar
    45    10    11    1
    46    11    12    1
    47    11    13    1
    48    18    19   ar
    49    19    20   ar
    50    24    25   ar
    51    25    26    2
    52    25    21   ar
    53    20    15   ar
    54    13     7    1
    55     6     1   ar
    56    37    33    1
    57    52    47   ar
    58    44    38   ar
    59    12    14    1
@<TRIPOS>MOLECULE
*****
 53 59 0 0 0
SMALL
GASTEIGER

@<TRIPOS>ATOM
      1 C          58.5566   83.9390   10.4866 C.ar    1  UNL1        0.0487
      2 C          58.3832   84.2060   11.8595 C.ar    1  UNL1        0.0176
      3 C          58.1305   83.1722   12.7651 C.ar    1  UNL1        0.0382
      4 C          58.0330   81.8419   12.3181 C.ar    1  UNL1        0.1388
      5 C          58.2172   81.5706   10.9597 C.ar    1  UNL1        0.0382
      6 C          58.4701   82.6022   10.0521 C.ar    1  UNL1        0.0176
      7 N          59.0983   87.1899    7.7109 N.pl3   1  UNL1       -0.3034
      8 C          59.8530   87.2169    8.9710 C.3     1  UNL1        0.1123
      9 C          59.1909   86.3496   10.0507 C.3     1  UNL1        0.1129
     10 N          58.8145   85.0149    9.5464 N.pl3   1  UNL1       -0.2974
     11 C          58.5411   84.8255    8.1089 C.3     1  UNL1        0.1377
     12 S          60.0372   84.1933    7.2690 S.3     1  UNL1       -0.1475
     13 C          58.0962   86.1456    7.4689 C.3     1  UNL1        0.1217
     14 H          59.3562   83.9502    6.0609 H       1  UNL1        0.1039
     15 C          59.9430   90.0628    4.6843 C.ar    1  UNL1        0.0699
     16 C          58.6283   89.8788    5.1473 C.ar    1  UNL1        0.0190
     17 C          58.3523   88.9361    6.1415 C.ar    1  UNL1        0.0160
     18 C          59.3846   88.1630    6.6926 C.ar    1  UNL1        0.0481
     19 C          60.6980   88.3477    6.2378 C.ar    1  UNL1        0.0160
     20 C          60.9756   89.2919    5.2455 C.ar    1  UNL1        0.0190
     21 N          61.2302   92.2163    2.0636 N.ar    1  UNL1       -0.2024
     22 N          60.0599   92.7951    2.2921 N.ar    1  UNL1       -0.1442
     23 C          59.4615   92.0717    3.2635 C.ar    1  UNL1        0.2073
     24 N          60.2359   91.0373    3.6642 N.ar    1  UNL1       -0.2398
     25 C          61.3377   91.1676    2.8989 C.ar    1  UNL1        0.3522
     26 O          62.3571   90.4303    2.9817 O.2     1  UNL1       -0.2444
     27 C          62.2356   92.7150    1.1199 C.3     1  UNL1        0.1099
     28 C          62.3096   91.7721   -0.0868 C.3     1  UNL1        0.0265
     29 C          64.7504   92.2483    1.0369 C.3     1  UNL1        0.0021
     30 C          63.5957   92.8555    1.8341 C.3     1  UNL1        0.0245
     31 O          57.7773   80.7590   13.1763 O.3     1  UNL1       -0.4727
     32 C          58.7019   79.7322   13.5428 C.3     1  UNL1        0.2374
     33 C          60.0555   79.9415   12.8511 C.3     1  UNL1        0.1909
     34 C          61.1354   79.0205   13.3365 C.3     1  UNL1        0.1783
     35 O          62.3166   79.7497   13.2506 O.3     1  UNL1       -0.3266
     36 C          61.9385   81.1118   13.1888 C.3     1  UNL1        0.2314
     37 O          60.5289   81.2257   13.1041 O.3     1  UNL1       -0.3254
     38 C          62.5933   81.7687   11.9703 C.ar    1  UNL1        0.0410
     39 C          61.7989   82.4964   11.0563 C.ar    1  UNL1        0.0022
     40 C          62.3700   83.1236    9.9477 C.ar    1  UNL1        0.0113
     41 C          63.7457   83.0559    9.7352 C.ar    1  UNL1        0.0585
     42 CL         64.4591   83.8481    8.3421 Cl      1  UNL1       -0.0822
     43 C          64.5559   82.3696   10.6401 C.ar    1  UNL1        0.0226
     44 C          63.9991   81.7356   11.7580 C.ar    1  UNL1        0.0591
     45 CL         65.1192   80.9437   12.8657 Cl      1  UNL1       -0.0824
     46 C          62.4086   81.8386   14.4660 C.3     1  UNL1        0.1893
     47 N          62.1631   83.2788   14.3737 N.ar    1  UNL1       -0.2313
     48 N          60.9579   83.8183   14.3590 N.ar    1  UNL1       -0.1532
     49 C          61.1572   85.1505   14.3374 C.ar    1  UNL1        0.1604
     50 C          60.0495   86.1471   14.3820 C.3     1  UNL1        0.0756
     51 N          62.4655   85.4874   14.3632 N.ar    1  UNL1       -0.2146
     52 C          63.0661   84.2808   14.3785 C.ar    1  UNL1        0.1381
     53 C          64.5511   84.1026   14.4116 C.3     1  UNL1        0.0734
@<TRIPOS>BOND
     1    29    30    1
     2    30    27    1
     3    27    28    1
     4    27    21    1
     5    21    22   ar
     6    22    23   ar
     7    23    24   ar
     8    24    15    1
     9    15    16   ar
    10    16    17   ar
    11    17    18   ar
    12    18     7    1
    13     7     8    1
    14     8     9    1
    15     9    10    1
    16    10     1    1
    17     1     2   ar
    18     2     3   ar
    19     3     4   ar
    20     4    31    1
    21    31    32    1
    22    32    33    1
    23    33    34    1
    24    34    35    1
    25    35    36    1
    26    36    46    1
    27    46    47    1
    28    47    48   ar
    29    48    49   ar
    30    49    50    1
    31    49    51   ar
    32    51    52   ar
    33    52    53    1
    34    36    38    1
    35    38    39   ar
    36    39    40   ar
    37    40    41   ar
    38    41    42    1
    39    41    43   ar
    40    43    44   ar
    41    44    45    1
    42    36    37    1
    43     4     5   ar
    44     5     6   ar
    45    10    11    1
    46    11    12    1
    47    11    13    1
    48    18    19   ar
    49    19    20   ar
    50    24    25   ar
    51    25    26    2
    52    25    21   ar
    53    20    15   ar
    54    13     7    1
    55     6     1   ar
    56    37    33    1
    57    52    47   ar
    58    44    38   ar
    59    12    14    1
@<TRIPOS>MOLECULE
*****
 53 59 0 0 0
SMALL
GASTEIGER

@<TRIPOS>ATOM
      1 C          59.9620   84.8234    9.8010 C.ar    1  UNL1        0.0487
      2 C          58.7951   84.4892   10.5170 C.ar    1  UNL1        0.0176
      3 C          58.7990   83.4490   11.4501 C.ar    1  UNL1        0.0382
      4 C          59.9708   82.7063   11.6837 C.ar    1  UNL1        0.1388
      5 C          61.1338   83.0425   10.9857 C.ar    1  UNL1        0.0382
      6 C          61.1328   84.0820   10.0524 C.ar    1  UNL1        0.0176
      7 N          59.7222   88.0681    6.9761 N.pl3   1  UNL1       -0.3034
      8 C          60.7209   88.1522    8.0502 C.3     1  UNL1        0.1123
      9 C          60.3504   87.2610    9.2439 C.3     1  UNL1        0.1129
     10 N          59.9549   85.9015    8.8285 N.pl3   1  UNL1       -0.2974
     11 C          59.3985   85.6805    7.4800 C.3     1  UNL1        0.1377
     12 S          60.7200   85.1248    6.3450 S.3     1  UNL1       -0.1475
     13 C          58.7539   86.9659    6.9483 C.3     1  UNL1        0.1217
     14 H          59.8167   84.8298    5.3060 H       1  UNL1        0.1039
     15 C          59.7463   90.9503    3.8425 C.ar    1  UNL1        0.0699
     16 C          58.6112   90.7899    4.6564 C.ar    1  UNL1        0.0190
     17 C          58.6048   89.8440    5.6853 C.ar    1  UNL1        0.0160
     18 C          59.7325   89.0443    5.9212 C.ar    1  UNL1        0.0481
     19 C          60.8687   89.2055    5.1154 C.ar    1  UNL1        0.0160
     20 C          60.8773   90.1527    4.0878 C.ar    1  UNL1        0.0190
     21 N          59.5612   92.9472    0.8191 N.ar    1  UNL1       -0.2024
     22 N          60.0793   93.8339    1.6570 N.ar    1  UNL1       -0.1442
     23 C          60.1961   93.2077    2.8483 C.ar    1  UNL1        0.2073
     24 N          59.7625   91.9278    2.7839 N.ar    1  UNL1       -0.2398
     25 C          59.3838   91.7991    1.4969 C.ar    1  UNL1        0.3522
     26 O          58.9580   90.7308    0.9802 O.2     1  UNL1       -0.2444
     27 C          59.3212   93.1905   -0.6069 C.3     1  UNL1        0.1099
     28 C          57.8313   92.9936   -0.9107 C.3     1  UNL1        0.0265
     29 C          61.7082   92.5119   -1.2320 C.3     1  UNL1        0.0021
     30 C          60.2161   92.2603   -1.4516 C.3     1  UNL1        0.0245
     31 O          60.0394   81.6472   12.6046 O.3     1  UNL1       -0.4727
     32 C          61.1583   81.3130   13.4291 C.3     1  UNL1        0.2374
     33 C          62.0346   82.5454   13.6892 C.3     1  UNL1        0.1909
     34 C          62.8110   82.4800   14.9710 C.3     1  UNL1        0.1783
     35 O          62.8978   83.7922   15.4240 O.3     1  UNL1       -0.3266
     36 C          61.8757   84.5100   14.7591 C.3     1  UNL1        0.2314
     37 O          61.2403   83.6829   13.8003 O.3     1  UNL1       -0.3254
     38 C          62.4782   85.7406   14.0752 C.ar    1  UNL1        0.0410
     39 C          62.1952   85.9936   12.7143 C.ar    1  UNL1        0.0022
     40 C          62.7127   87.1181   12.0691 C.ar    1  UNL1        0.0113
     41 C          63.5072   88.0243   12.7690 C.ar    1  UNL1        0.0585
     42 CL         64.1530   89.4375   11.9546 Cl      1  UNL1       -0.0822
     43 C          63.7756   87.8135   14.1216 C.ar    1  UNL1        0.0226
     44 C          63.2634   86.6908   14.7842 C.ar    1  UNL1        0.0591
     45 CL         63.6184   86.5501   16.5056 Cl      1  UNL1       -0.0824
     46 C          60.8162   84.9704   15.7818 C.3     1  UNL1        0.1893
     47 N          59.7222   85.6852   15.1220 N.ar    1  UNL1       -0.2313
     48 N          58.7558   85.0877   14.4490 N.ar    1  UNL1       -0.1532
     49 C          57.9208   86.0718   14.0628 C.ar    1  UNL1        0.1604
     50 C          56.6483   85.8267   13.3259 C.3     1  UNL1        0.0756
     51 N          58.3113   87.2921   14.4922 N.ar    1  UNL1       -0.2146
     52 C          59.4532   87.0066   15.1490 C.ar    1  UNL1        0.1381
     53 C          60.2916   88.0432   15.8277 C.3     1  UNL1        0.0734
@<TRIPOS>BOND
     1    29    30    1
     2    30    27    1
     3    27    28    1
     4    27    21    1
     5    21    22   ar
     6    22    23   ar
     7    23    24   ar
     8    24    15    1
     9    15    16   ar
    10    16    17   ar
    11    17    18   ar
    12    18     7    1
    13     7     8    1
    14     8     9    1
    15     9    10    1
    16    10     1    1
    17     1     2   ar
    18     2     3   ar
    19     3     4   ar
    20     4    31    1
    21    31    32    1
    22    32    33    1
    23    33    34    1
    24    34    35    1
    25    35    36    1
    26    36    46    1
    27    46    47    1
    28    47    48   ar
    29    48    49   ar
    30    49    50    1
    31    49    51   ar
    32    51    52   ar
    33    52    53    1
    34    36    38    1
    35    38    39   ar
    36    39    40   ar
    37    40    41   ar
    38    41    42    1
    39    41    43   ar
    40    43    44   ar
    41    44    45    1
    42    36    37    1
    43     4     5   ar
    44     5     6   ar
    45    10    11    1
    46    11    12    1
    47    11    13    1
    48    18    19   ar
    49    19    20   ar
    50    24    25   ar
    51    25    26    2
    52    25    21   ar
    53    20    15   ar
    54    13     7    1
    55     6     1   ar
    56    37    33    1
    57    52    47   ar
    58    44    38   ar
    59    12    14    1
@<TRIPOS>MOLECULE
*****
 53 59 0 0 0
SMALL
GASTEIGER

@<TRIPOS>ATOM
      1 C          60.7868   86.5110   11.2026 C.ar    1  UNL1        0.0487
      2 C          62.0627   86.1450   11.6760 C.ar    1  UNL1        0.0176
      3 C          62.2087   85.4418   12.8747 C.ar    1  UNL1        0.0382
      4 C          61.0797   85.0954   13.6391 C.ar    1  UNL1        0.1388
      5 C          59.8115   85.4447   13.1673 C.ar    1  UNL1        0.0382
      6 C          59.6626   86.1475   11.9691 C.ar    1  UNL1        0.0176
      7 N          60.1180   88.7149    7.5610 N.pl3   1  UNL1       -0.3034
      8 C          61.0501   89.2715    8.5507 C.3     1  UNL1        0.1123
      9 C          60.7888   88.7134    9.9566 C.3     1  UNL1        0.1129
     10 N          60.6373   87.2456    9.9592 N.pl3   1  UNL1       -0.2974
     11 C          60.1734   86.5552    8.7406 C.3     1  UNL1        0.1377
     12 S          61.6081   85.9256    7.7978 S.3     1  UNL1       -0.1475
     13 C          59.3456   87.5055    7.8676 C.3     1  UNL1        0.1217
     14 H          60.8033   85.1964    6.9016 H       1  UNL1        0.1039
     15 C          59.7890   90.5573    3.7368 C.ar    1  UNL1        0.0699
     16 C          61.0163   90.0258    4.1701 C.ar    1  UNL1        0.0190
     17 C          61.1229   89.4204    5.4253 C.ar    1  UNL1        0.0160
     18 C          60.0053   89.3327    6.2681 C.ar    1  UNL1        0.0481
     19 C          58.7781   89.8564    5.8371 C.ar    1  UNL1        0.0160
     20 C          58.6696   90.4597    4.5811 C.ar    1  UNL1        0.0190
     21 N          60.0821   92.3042    0.5705 N.ar    1  UNL1       -0.2024
     22 N          58.8237   91.8944    0.4991 N.ar    1  UNL1       -0.1442
     23 C          58.5822   91.2089    1.6379 C.ar    1  UNL1        0.2073
     24 N          59.6701   91.1772    2.4414 N.ar    1  UNL1       -0.2398
     25 C          60.5837   91.8819    1.7448 C.ar    1  UNL1        0.3522
     26 O          61.7453   92.1495    2.1556 O.2     1  UNL1       -0.2444
     27 C          60.7435   93.1412   -0.4356 C.3     1  UNL1        0.1099
     28 C          59.6807   93.8291   -1.3005 C.3     1  UNL1        0.0265
     29 C          63.1723   92.6954   -1.1073 C.3     1  UNL1        0.0021
     30 C          61.7103   92.2806   -1.2749 C.3     1  UNL1        0.0245
     31 O          61.1591   84.3931   14.8536 O.3     1  UNL1       -0.4727
     32 C          62.1562   83.4341   15.2136 C.3     1  UNL1        0.2374
     33 C          62.0011   82.1477   14.3918 C.3     1  UNL1        0.1909
     34 C          63.2911   81.6222   13.8352 C.3     1  UNL1        0.1783
     35 O          62.9617   81.0302   12.6206 O.3     1  UNL1       -0.3266
     36 C          61.7055   81.5633   12.2469 C.3     1  UNL1        0.2314
     37 O          61.1930   82.3823   13.2832 O.3     1  UNL1       -0.3254
     38 C          60.7324   80.4184   11.9515 C.ar    1  UNL1        0.0410
     39 C          59.5192   80.3284   12.6697 C.ar    1  UNL1        0.0022
     40 C          58.6028   79.3083   12.4085 C.ar    1  UNL1        0.0113
     41 C          58.8655   78.3674   11.4145 C.ar    1  UNL1        0.0585
     42 CL         57.7095   77.0889   11.0880 Cl      1  UNL1       -0.0822
     43 C          60.0422   78.4528   10.6700 C.ar    1  UNL1        0.0226
     44 C          60.9717   79.4706   10.9187 C.ar    1  UNL1        0.0591
     45 CL         62.3983   79.5178    9.8836 Cl      1  UNL1       -0.0824
     46 C          61.8658   82.4278   10.9790 C.3     1  UNL1        0.1893
     47 N          60.5723   82.6653   10.3359 N.ar    1  UNL1       -0.2313
     48 N          59.4634   82.9409   10.9978 N.ar    1  UNL1       -0.1532
     49 C          58.5240   83.1584   10.0569 C.ar    1  UNL1        0.1604
     50 C          57.1260   83.5688   10.3721 C.3     1  UNL1        0.0756
     51 N          59.0055   83.0544    8.7987 N.ar    1  UNL1       -0.2146
     52 C          60.2969   82.7359    9.0174 C.ar    1  UNL1        0.1381
     53 C          61.2847   82.5088    7.9172 C.3     1  UNL1        0.0734
@<TRIPOS>BOND
     1    29    30    1
     2    30    27    1
     3    27    28    1
     4    27    21    1
     5    21    22   ar
     6    22    23   ar
     7    23    24   ar
     8    24    15    1
     9    15    16   ar
    10    16    17   ar
    11    17    18   ar
    12    18     7    1
    13     7     8    1
    14     8     9    1
    15     9    10    1
    16    10     1    1
    17     1     2   ar
    18     2     3   ar
    19     3     4   ar
    20     4    31    1
    21    31    32    1
    22    32    33    1
    23    33    34    1
    24    34    35    1
    25    35    36    1
    26    36    46    1
    27    46    47    1
    28    47    48   ar
    29    48    49   ar
    30    49    50    1
    31    49    51   ar
    32    51    52   ar
    33    52    53    1
    34    36    38    1
    35    38    39   ar
    36    39    40   ar
    37    40    41   ar
    38    41    42    1
    39    41    43   ar
    40    43    44   ar
    41    44    45    1
    42    36    37    1
    43     4     5   ar
    44     5     6   ar
    45    10    11    1
    46    11    12    1
    47    11    13    1
    48    18    19   ar
    49    19    20   ar
    50    24    25   ar
    51    25    26    2
    52    25    21   ar
    53    20    15   ar
    54    13     7    1
    55     6     1   ar
    56    37    33    1
    57    52    47   ar
    58    44    38   ar
    59    12    14    1
@<TRIPOS>MOLECULE
*****
 53 59 0 0 0
SMALL
GASTEIGER

@<TRIPOS>ATOM
      1 C          60.6756   86.8281   10.8537 C.ar    1  UNL1        0.0487
      2 C          61.9342   86.5291   11.4127 C.ar    1  UNL1        0.0176
      3 C          62.0358   85.8470   12.6281 C.ar    1  UNL1        0.0382
      4 C          60.8775   85.4550   13.3236 C.ar    1  UNL1        0.1388
      5 C          59.6273   85.7376   12.7669 C.ar    1  UNL1        0.0382
      6 C          59.5228   86.4193   11.5520 C.ar    1  UNL1        0.0176
      7 N          60.1691   89.0356    7.1882 N.pl3   1  UNL1       -0.3034
      8 C          61.3559   89.3114    8.0090 C.3     1  UNL1        0.1123
      9 C          61.1467   88.8946    9.4715 C.3     1  UNL1        0.1129
     10 N          60.5719   87.5411    9.5932 N.pl3   1  UNL1       -0.2974
     11 C          59.7553   86.9907    8.4945 C.3     1  UNL1        0.1377
     12 S          60.7901   85.9343    7.4190 S.3     1  UNL1       -0.1475
     13 C          59.1275   88.1230    7.6734 C.3     1  UNL1        0.1217
     14 H          59.6863   85.4580    6.6859 H       1  UNL1        0.1039
     15 C          59.8471   90.7933    3.3237 C.ar    1  UNL1        0.0699
     16 C          61.0726   90.2677    3.7692 C.ar    1  UNL1        0.0190
     17 C          61.1769   89.6901    5.0376 C.ar    1  UNL1        0.0160
     18 C          60.0588   89.6247    5.8818 C.ar    1  UNL1        0.0481
     19 C          58.8334   90.1425    5.4388 C.ar    1  UNL1        0.0160
     20 C          58.7271   90.7181    4.1697 C.ar    1  UNL1        0.0190
     21 N          59.9862   92.6887    0.2333 N.ar    1  UNL1       -0.2024
     22 N          59.0483   91.8039   -0.0737 N.ar    1  UNL1       -0.1442
     23 C          58.9007   91.0144    1.0125 C.ar    1  UNL1        0.2073
     24 N          59.7305   91.3845    2.0149 N.ar    1  UNL1       -0.2398
     25 C          60.3849   92.4412    1.4937 C.ar    1  UNL1        0.3522
     26 O          61.2310   93.1370    2.1179 O.2     1  UNL1       -0.2444
     27 C          60.4200   93.7806   -0.6442 C.3     1  UNL1        0.1099
     28 C          59.5480   93.7940   -1.9052 C.3     1  UNL1        0.0265
     29 C          62.2605   92.2341   -1.5215 C.3     1  UNL1        0.0021
     30 C          61.9185   93.6198   -0.9734 C.3     1  UNL1        0.0245
     31 O          60.9116   84.7706   14.5504 O.3     1  UNL1       -0.4727
     32 C          61.8651   83.7798   14.9411 C.3     1  UNL1        0.2374
     33 C          61.7594   82.5359   14.0489 C.3     1  UNL1        0.1909
     34 C          62.9796   82.2804   13.2148 C.3     1  UNL1        0.1783
     35 O          62.5142   81.7106   12.0345 O.3     1  UNL1       -0.3266
     36 C          61.1390   82.0335   11.9532 C.3     1  UNL1        0.2314
     37 O          60.7185   82.6874   13.1376 O.3     1  UNL1       -0.3254
     38 C          60.3256   80.7534   11.7420 C.ar    1  UNL1        0.0410
     39 C          59.0539   80.6252   12.3439 C.ar    1  UNL1        0.0022
     40 C          58.2800   79.4792   12.1529 C.ar    1  UNL1        0.0113
     41 C          58.7470   78.4447   11.3442 C.ar    1  UNL1        0.0585
     42 CL         57.7697   77.0076   11.1050 Cl      1  UNL1       -0.0822
     43 C          59.9860   78.5604   10.7136 C.ar    1  UNL1        0.0226
     44 C          60.7745   79.7039   10.8939 C.ar    1  UNL1        0.0591
     45 CL         62.2973   79.7702   10.0077 Cl      1  UNL1       -0.0824
     46 C          60.8995   82.9845   10.7621 C.3     1  UNL1        0.1893
     47 N          59.8556   82.4669    9.8759 N.ar    1  UNL1       -0.2313
     48 N          60.0941   81.6807    8.8421 N.ar    1  UNL1       -0.1532
     49 C          58.8849   81.3720    8.3346 C.ar    1  UNL1        0.1604
     50 C          58.6897   80.4421    7.1860 C.3     1  UNL1        0.0756
     51 N          57.8659   81.9208    9.0320 N.ar    1  UNL1       -0.2146
     52 C          58.5191   82.6082    9.9899 C.ar    1  UNL1        0.1381
     53 C          57.8239   83.4085   11.0455 C.3     1  UNL1        0.0734
@<TRIPOS>BOND
     1    29    30    1
     2    30    27    1
     3    27    28    1
     4    27    21    1
     5    21    22   ar
     6    22    23   ar
     7    23    24   ar
     8    24    15    1
     9    15    16   ar
    10    16    17   ar
    11    17    18   ar
    12    18     7    1
    13     7     8    1
    14     8     9    1
    15     9    10    1
    16    10     1    1
    17     1     2   ar
    18     2     3   ar
    19     3     4   ar
    20     4    31    1
    21    31    32    1
    22    32    33    1
    23    33    34    1
    24    34    35    1
    25    35    36    1
    26    36    46    1
    27    46    47    1
    28    47    48   ar
    29    48    49   ar
    30    49    50    1
    31    49    51   ar
    32    51    52   ar
    33    52    53    1
    34    36    38    1
    35    38    39   ar
    36    39    40   ar
    37    40    41   ar
    38    41    42    1
    39    41    43   ar
    40    43    44   ar
    41    44    45    1
    42    36    37    1
    43     4     5   ar
    44     5     6   ar
    45    10    11    1
    46    11    12    1
    47    11    13    1
    48    18    19   ar
    49    19    20   ar
    50    24    25   ar
    51    25    26    2
    52    25    21   ar
    53    20    15   ar
    54    13     7    1
    55     6     1   ar
    56    37    33    1
    57    52    47   ar
    58    44    38   ar
    59    12    14    1
@<TRIPOS>MOLECULE
*****
 53 59 0 0 0
SMALL
GASTEIGER

@<TRIPOS>ATOM
      1 C          60.7765   86.5712   11.0373 C.ar    1  UNL1        0.0487
      2 C          59.6698   86.2018   11.8277 C.ar    1  UNL1        0.0176
      3 C          59.8448   85.5051   13.0263 C.ar    1  UNL1        0.0382
      4 C          61.1344   85.1485   13.4609 C.ar    1  UNL1        0.1388
      5 C          62.2358   85.5239   12.6871 C.ar    1  UNL1        0.0382
      6 C          62.0638   86.2207   11.4886 C.ar    1  UNL1        0.0176
      7 N          60.2525   88.5062    7.2232 N.pl3   1  UNL1       -0.3034
      8 C          59.1571   88.5825    8.1992 C.3     1  UNL1        0.1123
      9 C          59.2353   87.4507    9.2333 C.3     1  UNL1        0.1129
     10 N          60.5926   87.2911    9.7898 N.pl3   1  UNL1       -0.2974
     11 C          61.7633   87.7147    8.9981 C.3     1  UNL1        0.1377
     12 S          62.2756   89.3977    9.4967 S.3     1  UNL1       -0.1475
     13 C          61.4370   87.6857    7.5004 C.3     1  UNL1        0.1217
     14 H          63.4591   89.3518    8.7354 H       1  UNL1        0.1039
     15 C          60.0349   90.7955    3.6400 C.ar    1  UNL1        0.0699
     16 C          58.9182   90.6878    4.4875 C.ar    1  UNL1        0.0190
     17 C          58.9911   89.9367    5.6639 C.ar    1  UNL1        0.0160
     18 C          60.1809   89.2829    6.0159 C.ar    1  UNL1        0.0481
     19 C          61.2985   89.3928    5.1764 C.ar    1  UNL1        0.0160
     20 C          61.2277   90.1456    4.0010 C.ar    1  UNL1        0.0190
     21 N          59.9099   92.1996    0.2971 N.ar    1  UNL1       -0.2024
     22 N          59.8738   93.3091    1.0213 N.ar    1  UNL1       -0.1442
     23 C          59.9077   92.9199    2.3145 C.ar    1  UNL1        0.2073
     24 N          59.9691   91.5733    2.4289 N.ar    1  UNL1       -0.2398
     25 C          59.9797   91.1590    1.1464 C.ar    1  UNL1        0.3522
     26 O          60.0845   89.9559    0.7844 O.2     1  UNL1       -0.2444
     27 C          59.9522   92.1629   -1.1682 C.3     1  UNL1        0.1099
     28 C          61.0387   93.1223   -1.6680 C.3     1  UNL1        0.0265
     29 C          57.4548   91.6047   -1.1955 C.3     1  UNL1        0.0021
     30 C          58.5613   92.5097   -1.7381 C.3     1  UNL1        0.0245
     31 O          61.3772   84.4453   14.6531 O.3     1  UNL1       -0.4727
     32 C          62.4461   83.5267   14.8917 C.3     1  UNL1        0.2374
     33 C          62.1726   82.1790   14.2109 C.3     1  UNL1        0.1909
     34 C          63.4082   81.3735   13.9382 C.3     1  UNL1        0.1783
     35 O          63.1490   80.6758   12.7633 O.3     1  UNL1       -0.3266
     36 C          62.0785   81.3498   12.1294 C.3     1  UNL1        0.2314
     37 O          61.5860   82.3822   12.9653 O.3     1  UNL1       -0.3254
     38 C          60.9616   80.3508   11.8139 C.ar    1  UNL1        0.0410
     39 C          59.7319   80.4350   12.5042 C.ar    1  UNL1        0.0022
     40 C          58.6878   79.5519   12.2240 C.ar    1  UNL1        0.0113
     41 C          58.8385   78.5784   11.2381 C.ar    1  UNL1        0.0585
     42 CL         57.5226   77.4726   10.8875 Cl      1  UNL1       -0.0822
     43 C          60.0320   78.4946   10.5206 C.ar    1  UNL1        0.0226
     44 C          61.0890   79.3735   10.7887 C.ar    1  UNL1        0.0591
     45 CL         62.5311   79.2155    9.7865 Cl      1  UNL1       -0.0824
     46 C          62.5728   81.9849   10.8130 C.3     1  UNL1        0.1893
     47 N          61.4827   82.6702   10.1165 N.ar    1  UNL1       -0.2313
     48 N          60.2105   82.5539   10.4508 N.ar    1  UNL1       -0.1532
     49 C          59.5416   83.3831    9.6263 C.ar    1  UNL1        0.1604
     50 C          58.0706   83.6105    9.7070 C.3     1  UNL1        0.0756
     51 N          60.3550   84.0537    8.7810 N.ar    1  UNL1       -0.2146
     52 C          61.5682   83.5715    9.1166 C.ar    1  UNL1        0.1381
     53 C          62.8374   84.0091    8.4568 C.3     1  UNL1        0.0734
@<TRIPOS>BOND
     1    29    30    1
     2    30    27    1
     3    27    28    1
     4    27    21    1
     5    21    22   ar
     6    22    23   ar
     7    23    24   ar
     8    24    15    1
     9    15    16   ar
    10    16    17   ar
    11    17    18   ar
    12    18     7    1
    13     7     8    1
    14     8     9    1
    15     9    10    1
    16    10     1    1
    17     1     2   ar
    18     2     3   ar
    19     3     4   ar
    20     4    31    1
    21    31    32    1
    22    32    33    1
    23    33    34    1
    24    34    35    1
    25    35    36    1
    26    36    46    1
    27    46    47    1
    28    47    48   ar
    29    48    49   ar
    30    49    50    1
    31    49    51   ar
    32    51    52   ar
    33    52    53    1
    34    36    38    1
    35    38    39   ar
    36    39    40   ar
    37    40    41   ar
    38    41    42    1
    39    41    43   ar
    40    43    44   ar
    41    44    45    1
    42    36    37    1
    43     4     5   ar
    44     5     6   ar
    45    10    11    1
    46    11    12    1
    47    11    13    1
    48    18    19   ar
    49    19    20   ar
    50    24    25   ar
    51    25    26    2
    52    25    21   ar
    53    20    15   ar
    54    13     7    1
    55     6     1   ar
    56    37    33    1
    57    52    47   ar
    58    44    38   ar
    59    12    14    1
@<TRIPOS>MOLECULE
*****
 53 59 0 0 0
SMALL
GASTEIGER

@<TRIPOS>ATOM
      1 C          59.8133   86.0034   10.3744 C.ar    1  UNL1        0.0487
      2 C          60.7665   86.0931   11.4085 C.ar    1  UNL1        0.0176
      3 C          60.7084   85.2400   12.5138 C.ar    1  UNL1        0.0382
      4 C          59.6855   84.2799   12.6193 C.ar    1  UNL1        0.1388
      5 C          58.7457   84.1785   11.5902 C.ar    1  UNL1        0.0382
      6 C          58.8015   85.0299   10.4840 C.ar    1  UNL1        0.0176
      7 N          59.7662   88.6967    7.0114 N.pl3   1  UNL1       -0.3034
      8 C          60.6819   88.9865    8.1230 C.3     1  UNL1        0.1123
      9 C          60.2287   88.3121    9.4254 C.3     1  UNL1        0.1129
     10 N          59.8725   86.8937    9.2290 N.pl3   1  UNL1       -0.2974
     11 C          59.4189   86.4292    7.9041 C.3     1  UNL1        0.1377
     12 S          60.8241   85.7073    6.9832 S.3     1  UNL1       -0.1475
     13 C          58.8086   87.5891    7.1088 C.3     1  UNL1        0.1217
     14 H          60.0020   85.2179    5.9502 H       1  UNL1        0.1039
     15 C          60.0184   91.0059    3.4433 C.ar    1  UNL1        0.0699
     16 C          61.1294   90.2765    3.9019 C.ar    1  UNL1        0.0190
     17 C          61.0452   89.5182    5.0728 C.ar    1  UNL1        0.0160
     18 C          59.8494   89.4725    5.8044 C.ar    1  UNL1        0.0481
     19 C          58.7374   90.1938    5.3470 C.ar    1  UNL1        0.0160
     20 C          58.8195   90.9505    4.1749 C.ar    1  UNL1        0.0190
     21 N          60.1426   92.4164    0.1030 N.ar    1  UNL1       -0.2024
     22 N          60.3303   93.5096    0.8287 N.ar    1  UNL1       -0.1442
     23 C          60.2982   93.1177    2.1211 C.ar    1  UNL1        0.2073
     24 N          60.0959   91.7848    2.2336 N.ar    1  UNL1       -0.2398
     25 C          60.0145   91.3800    0.9506 C.ar    1  UNL1        0.3522
     26 O          59.8790   90.1805    0.5865 O.2     1  UNL1       -0.2444
     27 C          60.1646   92.3761   -1.3627 C.3     1  UNL1        0.1099
     28 C          61.4082   93.1147   -1.8712 C.3     1  UNL1        0.0265
     29 C          57.6144   92.2045   -1.4888 C.3     1  UNL1        0.0021
     30 C          58.8593   92.9805   -1.9198 C.3     1  UNL1        0.0245
     31 O          59.5693   83.3961   13.7056 O.3     1  UNL1       -0.4727
     32 C          59.3142   81.9915   13.6311 C.3     1  UNL1        0.2374
     33 C          59.2349   81.5259   12.1712 C.3     1  UNL1        0.1909
     34 C          58.8539   80.0838   12.0126 C.3     1  UNL1        0.1783
     35 O          59.5238   79.6418   10.8768 O.3     1  UNL1       -0.3266
     36 C          60.5742   80.5628   10.6519 C.3     1  UNL1        0.2314
     37 O          60.4810   81.6441   11.5626 O.3     1  UNL1       -0.3254
     38 C          60.5005   81.0798    9.2124 C.ar    1  UNL1        0.0410
     39 C          59.7420   80.3726    8.2529 C.ar    1  UNL1        0.0022
     40 C          59.6389   80.8303    6.9382 C.ar    1  UNL1        0.0113
     41 C          60.2727   82.0109    6.5550 C.ar    1  UNL1        0.0585
     42 CL         60.1379   82.5835    4.9023 Cl      1  UNL1       -0.0822
     43 C          61.0019   82.7440    7.4915 C.ar    1  UNL1        0.0226
     44 C          61.1146   82.2993    8.8149 C.ar    1  UNL1        0.0591
     45 CL         62.0131   83.3296    9.9284 Cl      1  UNL1       -0.0824
     46 C          61.9322   79.8627   10.8666 C.3     1  UNL1        0.1893
     47 N          62.6505   80.4424   12.0028 N.ar    1  UNL1       -0.2313
     48 N          62.3986   80.1380   13.2628 N.ar    1  UNL1       -0.1532
     49 C          63.3069   80.8183   13.9889 C.ar    1  UNL1        0.1604
     50 C          63.4220   80.7084   15.4710 C.3     1  UNL1        0.0756
     51 N          64.1587   81.5378   13.2255 N.ar    1  UNL1       -0.2146
     52 C          63.7075   81.2800   11.9818 C.ar    1  UNL1        0.1381
     53 C          64.3290   81.8527   10.7474 C.3     1  UNL1        0.0734
@<TRIPOS>BOND
     1    29    30    1
     2    30    27    1
     3    27    28    1
     4    27    21    1
     5    21    22   ar
     6    22    23   ar
     7    23    24   ar
     8    24    15    1
     9    15    16   ar
    10    16    17   ar
    11    17    18   ar
    12    18     7    1
    13     7     8    1
    14     8     9    1
    15     9    10    1
    16    10     1    1
    17     1     2   ar
    18     2     3   ar
    19     3     4   ar
    20     4    31    1
    21    31    32    1
    22    32    33    1
    23    33    34    1
    24    34    35    1
    25    35    36    1
    26    36    46    1
    27    46    47    1
    28    47    48   ar
    29    48    49   ar
    30    49    50    1
    31    49    51   ar
    32    51    52   ar
    33    52    53    1
    34    36    38    1
    35    38    39   ar
    36    39    40   ar
    37    40    41   ar
    38    41    42    1
    39    41    43   ar
    40    43    44   ar
    41    44    45    1
    42    36    37    1
    43     4     5   ar
    44     5     6   ar
    45    10    11    1
    46    11    12    1
    47    11    13    1
    48    18    19   ar
    49    19    20   ar
    50    24    25   ar
    51    25    26    2
    52    25    21   ar
    53    20    15   ar
    54    13     7    1
    55     6     1   ar
    56    37    33    1
    57    52    47   ar
    58    44    38   ar
    59    12    14    1
