@<TRIPOS>MOLECULE
*****
 34 38 0 0 0
SMALL
GASTEIGER

@<TRIPOS>ATOM
      1 C         -25.2218   -8.3172  -12.5394 C.2     1  UNL1        0.3045
      2 O         -25.7899   -9.0645  -11.6976 O.2     1  UNL1       -0.2647
      3 N         -23.9727   -8.7333  -13.1389 N.am    1  UNL1       -0.2720
      4 C         -23.5712  -10.1488  -13.1135 C.3     1  UNL1        0.0976
      5 C         -22.1991  -10.3215  -12.4358 C.3     1  UNL1        0.0651
      6 C         -21.2493   -9.1168  -12.6368 C.3     1  UNL1        0.1693
      7 C         -21.6362   -8.3145  -13.8933 C.3     1  UNL1        0.0651
      8 C         -23.0592   -7.7530  -13.7516 C.3     1  UNL1        0.0976
      9 C         -26.8574   -5.5113  -13.8974 C.ar    1  UNL1        0.2501
     10 N         -26.6329   -5.0476  -12.6524 N.ar    1  UNL1       -0.1068
     11 N         -26.0061   -6.0155  -12.0020 N.ar    1  UNL1       -0.1021
     12 C         -25.8690   -7.0336  -12.8737 C.ar    1  UNL1        0.3042
     13 O         -26.3931   -6.7299  -14.0363 O.2     1  UNL1       -0.4122
     14 C         -28.8058   -3.2887  -17.0131 C.ar    1  UNL1        0.1387
     15 C         -27.4100   -3.3017  -16.9137 C.ar    1  UNL1        0.0371
     16 C         -26.7759   -4.0259  -15.9001 C.ar    1  UNL1        0.0078
     17 C         -27.5326   -4.7512  -14.9666 C.ar    1  UNL1        0.0553
     18 C         -28.9336   -4.7399  -15.0634 C.ar    1  UNL1        0.0078
     19 C         -29.5668   -4.0153  -16.0779 C.ar    1  UNL1        0.0371
     20 C         -28.7151   -2.1429  -19.2333 C.3     1  UNL1        0.2525
     21 O         -29.3936   -2.5463  -18.0481 O.3     1  UNL1       -0.4714
     22 O         -21.3120   -8.2804  -11.4762 O.3     1  UNL1       -0.4791
     23 C         -20.6291   -8.4953  -10.2680 C.ar    1  UNL1        0.1384
     24 C         -20.9301   -7.6609   -9.1854 C.ar    1  UNL1        0.0366
     25 C         -20.2765   -7.8198   -7.9607 C.ar    1  UNL1        0.0002
     26 C         -19.3169   -8.8292   -7.7972 C.ar    1  UNL1       -0.0059
     27 C         -19.0119   -9.6694   -8.8787 C.ar    1  UNL1        0.0002
     28 C         -19.6659   -9.5098  -10.1040 C.ar    1  UNL1        0.0366
     29 C         -18.5849   -8.9692   -6.4889 C.3     1  UNL1        0.0991
     30 N         -19.2025   -8.1087   -5.4620 N.3     1  UNL1       -0.2690
     31 C         -19.9258   -8.8979   -4.4624 C.3     1  UNL1        0.0724
     32 C         -19.9576   -8.0666   -3.1900 C.3     1  UNL1        0.0188
     33 C         -18.8283   -7.0595   -3.3378 C.3     1  UNL1        0.0188
     34 C         -18.2125   -7.3389   -4.7003 C.3     1  UNL1        0.0724
@<TRIPOS>BOND
     1    20    21    1
     2    21    14    1
     3    14    15   ar
     4    15    16   ar
     5    16    17   ar
     6    17     9    1
     7     9    10   ar
     8    10    11   ar
     9    11    12   ar
    10    12     1    1
    11     1     2    2
    12     1     3   am
    13     3     4    1
    14     4     5    1
    15     5     6    1
    16     6    22    1
    17    22    23    1
    18    23    24   ar
    19    24    25   ar
    20    25    26   ar
    21    26    29    1
    22    29    30    1
    23    30    31    1
    24    31    32    1
    25    32    33    1
    26    33    34    1
    27    26    27   ar
    28    27    28   ar
    29     6     7    1
    30     7     8    1
    31    12    13   ar
    32    17    18   ar
    33    18    19   ar
    34    19    14   ar
    35    13     9   ar
    36     8     3    1
    37    28    23   ar
    38    34    30    1
@<TRIPOS>MOLECULE
*****
 34 38 0 0 0
SMALL
GASTEIGER

@<TRIPOS>ATOM
      1 C         -23.3874   -6.0281  -11.4597 C.2     1  UNL1        0.3045
      2 O         -22.6524   -5.0205  -11.6457 O.2     1  UNL1       -0.2647
      3 N         -23.0465   -6.9828  -10.4276 N.am    1  UNL1       -0.2720
      4 C         -22.1299   -6.6059   -9.3399 C.3     1  UNL1        0.0976
      5 C         -20.9202   -7.5572   -9.2827 C.3     1  UNL1        0.0651
      6 C         -21.2426   -9.0021   -9.7324 C.3     1  UNL1        0.1693
      7 C         -22.7448   -9.3045   -9.5778 C.3     1  UNL1        0.0651
      8 C         -23.5737   -8.3582  -10.4597 C.3     1  UNL1        0.0976
      9 C         -26.1339   -5.8043  -13.6504 C.ar    1  UNL1        0.2501
     10 N         -26.2358   -7.1040  -13.3100 N.ar    1  UNL1       -0.1068
     11 N         -25.2450   -7.3466  -12.4660 N.ar    1  UNL1       -0.1021
     12 C         -24.5758   -6.1864  -12.3205 C.ar    1  UNL1        0.3042
     13 O         -25.1155   -5.2387  -13.0480 O.2     1  UNL1       -0.4122
     14 C         -28.7761   -3.7566  -16.3466 C.ar    1  UNL1        0.1387
     15 C         -27.3967   -3.5246  -16.3880 C.ar    1  UNL1        0.0371
     16 C         -26.5367   -4.1918  -15.5110 C.ar    1  UNL1        0.0078
     17 C         -27.0466   -5.1053  -14.5752 C.ar    1  UNL1        0.0553
     18 C         -28.4305   -5.3402  -14.5310 C.ar    1  UNL1        0.0078
     19 C         -29.2898   -4.6723  -15.4089 C.ar    1  UNL1        0.0371
     20 C         -29.1518   -2.5253  -18.4897 C.3     1  UNL1        0.2525
     21 O         -29.5963   -3.0618  -17.2478 O.3     1  UNL1       -0.4714
     22 O         -20.8431   -9.1609  -11.0983 O.3     1  UNL1       -0.4791
     23 C         -21.0360  -10.3079  -11.8851 C.ar    1  UNL1        0.1384
     24 C         -21.6230  -10.1492  -13.1457 C.ar    1  UNL1        0.0366
     25 C         -21.8494  -11.2546  -13.9699 C.ar    1  UNL1        0.0002
     26 C         -21.4780  -12.5392  -13.5477 C.ar    1  UNL1       -0.0059
     27 C         -20.8882  -12.7042  -12.2854 C.ar    1  UNL1        0.0002
     28 C         -20.6622  -11.5979  -11.4609 C.ar    1  UNL1        0.0366
     29 C         -21.7627  -13.7320  -14.4215 C.3     1  UNL1        0.0991
     30 N         -23.1022  -13.6141  -15.0283 N.3     1  UNL1       -0.2690
     31 C         -23.4309  -14.7888  -15.8392 C.3     1  UNL1        0.0724
     32 C         -24.9478  -14.8842  -15.8739 C.3     1  UNL1        0.0188
     33 C         -25.4302  -14.0749  -14.6806 C.3     1  UNL1        0.0188
     34 C         -24.1706  -13.5281  -14.0264 C.3     1  UNL1        0.0724
@<TRIPOS>BOND
     1    20    21    1
     2    21    14    1
     3    14    15   ar
     4    15    16   ar
     5    16    17   ar
     6    17     9    1
     7     9    10   ar
     8    10    11   ar
     9    11    12   ar
    10    12     1    1
    11     1     2    2
    12     1     3   am
    13     3     4    1
    14     4     5    1
    15     5     6    1
    16     6    22    1
    17    22    23    1
    18    23    24   ar
    19    24    25   ar
    20    25    26   ar
    21    26    29    1
    22    29    30    1
    23    30    31    1
    24    31    32    1
    25    32    33    1
    26    33    34    1
    27    26    27   ar
    28    27    28   ar
    29     6     7    1
    30     7     8    1
    31    12    13   ar
    32    17    18   ar
    33    18    19   ar
    34    19    14   ar
    35    13     9   ar
    36     8     3    1
    37    28    23   ar
    38    34    30    1
@<TRIPOS>MOLECULE
*****
 34 38 0 0 0
SMALL
GASTEIGER

@<TRIPOS>ATOM
      1 C         -24.8523   -8.0335  -11.8636 C.2     1  UNL1        0.3045
      2 O         -25.1766   -8.3369  -10.6835 O.2     1  UNL1       -0.2647
      3 N         -23.9768   -8.9078  -12.6132 N.am    1  UNL1       -0.2720
      4 C         -23.7971  -10.3095  -12.2030 C.3     1  UNL1        0.0976
      5 C         -22.3118  -10.6228  -11.9431 C.3     1  UNL1        0.0651
      6 C         -21.3395   -9.8097  -12.8304 C.3     1  UNL1        0.1693
      7 C         -22.0376   -9.3321  -14.1176 C.3     1  UNL1        0.0651
      8 C         -23.2185   -8.4111  -13.7747 C.3     1  UNL1        0.0976
      9 C         -26.3651   -5.4097  -13.6579 C.ar    1  UNL1        0.2501
     10 N         -25.8401   -4.6995  -12.6402 N.ar    1  UNL1       -0.1068
     11 N         -25.2210   -5.5706  -11.8588 N.ar    1  UNL1       -0.1021
     12 C         -25.3888   -6.7800  -12.4284 C.ar    1  UNL1        0.3042
     13 O         -26.0931   -6.6862  -13.5301 O.2     1  UNL1       -0.4122
     14 C         -28.6398   -3.7369  -16.8938 C.ar    1  UNL1        0.1387
     15 C         -29.2838   -4.3455  -15.8107 C.ar    1  UNL1        0.0371
     16 C         -28.5433   -4.8891  -14.7571 C.ar    1  UNL1        0.0078
     17 C         -27.1410   -4.8315  -14.7717 C.ar    1  UNL1        0.0553
     18 C         -26.4917   -4.2216  -15.8573 C.ar    1  UNL1        0.0078
     19 C         -27.2334   -3.6779  -16.9107 C.ar    1  UNL1        0.0371
     20 C         -30.6569   -2.5161  -17.7250 C.3     1  UNL1        0.2525
     21 O         -29.4280   -3.2067  -17.9260 O.3     1  UNL1       -0.4714
     22 O         -20.8594   -8.6875  -12.0816 O.3     1  UNL1       -0.4791
     23 C         -20.5583   -8.6803  -10.7099 C.ar    1  UNL1        0.1384
     24 C         -21.3351   -7.8734   -9.8707 C.ar    1  UNL1        0.0366
     25 C         -21.0770   -7.8172   -8.4986 C.ar    1  UNL1        0.0002
     26 C         -20.0412   -8.5813   -7.9421 C.ar    1  UNL1       -0.0059
     27 C         -19.2599   -9.3928   -8.7785 C.ar    1  UNL1        0.0002
     28 C         -19.5182   -9.4484  -10.1513 C.ar    1  UNL1        0.0366
     29 C         -19.7399   -8.4848   -6.4700 C.3     1  UNL1        0.0991
     30 N         -18.2849   -8.5623   -6.2389 N.3     1  UNL1       -0.2690
     31 C         -17.7845   -7.3686   -5.5534 C.3     1  UNL1        0.0724
     32 C         -16.5201   -7.7851   -4.8192 C.3     1  UNL1        0.0188
     33 C         -16.6095   -9.2971   -4.6878 C.3     1  UNL1        0.0188
     34 C         -17.9094   -9.6870   -5.3748 C.3     1  UNL1        0.0724
@<TRIPOS>BOND
     1    20    21    1
     2    21    14    1
     3    14    15   ar
     4    15    16   ar
     5    16    17   ar
     6    17     9    1
     7     9    10   ar
     8    10    11   ar
     9    11    12   ar
    10    12     1    1
    11     1     2    2
    12     1     3   am
    13     3     4    1
    14     4     5    1
    15     5     6    1
    16     6    22    1
    17    22    23    1
    18    23    24   ar
    19    24    25   ar
    20    25    26   ar
    21    26    29    1
    22    29    30    1
    23    30    31    1
    24    31    32    1
    25    32    33    1
    26    33    34    1
    27    26    27   ar
    28    27    28   ar
    29     6     7    1
    30     7     8    1
    31    12    13   ar
    32    17    18   ar
    33    18    19   ar
    34    19    14   ar
    35    13     9   ar
    36     8     3    1
    37    28    23   ar
    38    34    30    1
@<TRIPOS>MOLECULE
*****
 34 38 0 0 0
SMALL
GASTEIGER

@<TRIPOS>ATOM
      1 C         -23.0290   -7.6524  -13.2686 C.2     1  UNL1        0.3045
      2 O         -22.4696   -8.2707  -14.2145 O.2     1  UNL1       -0.2647
      3 N         -22.2745   -7.3323  -12.0765 N.am    1  UNL1       -0.2720
      4 C         -20.8032   -7.3334  -12.1054 C.3     1  UNL1        0.0976
      5 C         -20.2309   -8.2992  -11.0511 C.3     1  UNL1        0.0651
      6 C         -21.1095   -8.4296   -9.7843 C.3     1  UNL1        0.1693
      7 C         -22.0042   -7.1889   -9.6047 C.3     1  UNL1        0.0651
      8 C         -22.9537   -7.0369  -10.8029 C.3     1  UNL1        0.0976
      9 C         -26.2058   -6.3622  -14.0662 C.ar    1  UNL1        0.2501
     10 N         -26.5716   -7.2888  -13.1589 N.ar    1  UNL1       -0.1068
     11 N         -25.4555   -7.8744  -12.7540 N.ar    1  UNL1       -0.1021
     12 C         -24.4492   -7.2832  -13.4270 C.ar    1  UNL1        0.3042
     13 O         -24.9053   -6.3576  -14.2356 O.2     1  UNL1       -0.4122
     14 C         -28.9418   -3.7694  -16.1242 C.ar    1  UNL1        0.1387
     15 C         -29.4127   -4.7291  -15.2212 C.ar    1  UNL1        0.0371
     16 C         -28.5221   -5.5723  -14.5507 C.ar    1  UNL1        0.0078
     17 C         -27.1404   -5.4673  -14.7750 C.ar    1  UNL1        0.0553
     18 C         -26.6646   -4.5053  -15.6807 C.ar    1  UNL1        0.0078
     19 C         -27.5565   -3.6622  -16.3507 C.ar    1  UNL1        0.0371
     20 C         -29.7667   -2.5165  -18.1241 C.3     1  UNL1        0.2525
     21 O         -29.8764   -2.9477  -16.7715 O.3     1  UNL1       -0.4714
     22 O         -21.9144   -9.6083   -9.8996 O.3     1  UNL1       -0.4791
     23 C         -21.8580  -10.5456  -10.9439 C.ar    1  UNL1        0.1384
     24 C         -22.9764  -10.6705  -11.7760 C.ar    1  UNL1        0.0366
     25 C         -22.9833  -11.5927  -12.8257 C.ar    1  UNL1        0.0002
     26 C         -21.8608  -12.3979  -13.0669 C.ar    1  UNL1       -0.0059
     27 C         -20.7363  -12.2761  -12.2366 C.ar    1  UNL1        0.0002
     28 C         -20.7301  -11.3535  -11.1862 C.ar    1  UNL1        0.0366
     29 C         -21.8890  -13.4196  -14.1725 C.3     1  UNL1        0.0991
     30 N         -23.2587  -13.5644  -14.7010 N.3     1  UNL1       -0.2690
     31 C         -23.4069  -12.9039  -16.0000 C.3     1  UNL1        0.0724
     32 C         -24.5449  -13.6089  -16.7204 C.3     1  UNL1        0.0188
     33 C         -24.6781  -14.9610  -16.0381 C.3     1  UNL1        0.0188
     34 C         -23.6275  -14.9646  -14.9381 C.3     1  UNL1        0.0724
@<TRIPOS>BOND
     1    20    21    1
     2    21    14    1
     3    14    15   ar
     4    15    16   ar
     5    16    17   ar
     6    17     9    1
     7     9    10   ar
     8    10    11   ar
     9    11    12   ar
    10    12     1    1
    11     1     2    2
    12     1     3   am
    13     3     4    1
    14     4     5    1
    15     5     6    1
    16     6    22    1
    17    22    23    1
    18    23    24   ar
    19    24    25   ar
    20    25    26   ar
    21    26    29    1
    22    29    30    1
    23    30    31    1
    24    31    32    1
    25    32    33    1
    26    33    34    1
    27    26    27   ar
    28    27    28   ar
    29     6     7    1
    30     7     8    1
    31    12    13   ar
    32    17    18   ar
    33    18    19   ar
    34    19    14   ar
    35    13     9   ar
    36     8     3    1
    37    28    23   ar
    38    34    30    1
@<TRIPOS>MOLECULE
*****
 34 38 0 0 0
SMALL
GASTEIGER

@<TRIPOS>ATOM
      1 C         -21.9647   -9.4274  -10.1685 C.2     1  UNL1        0.3045
      2 O         -22.4858  -10.5218  -10.5160 O.2     1  UNL1       -0.2647
      3 N         -22.6134   -8.1823  -10.5174 N.am    1  UNL1       -0.2720
      4 C         -24.0375   -8.1644  -10.8877 C.3     1  UNL1        0.0976
      5 C         -24.2366   -7.5522  -12.2868 C.3     1  UNL1        0.0651
      6 C         -23.1968   -6.4636  -12.6437 C.3     1  UNL1        0.1693
      7 C         -22.5908   -5.8426  -11.3712 C.3     1  UNL1        0.0651
      8 C         -21.8616   -6.9156  -10.5482 C.3     1  UNL1        0.0976
      9 C         -19.2738   -9.2877   -7.9032 C.ar    1  UNL1        0.2501
     10 N         -18.6404   -9.8418   -8.9555 N.ar    1  UNL1       -0.1068
     11 N         -19.5454   -9.9605   -9.9145 N.ar    1  UNL1       -0.1021
     12 C         -20.6973   -9.4730   -9.4137 C.ar    1  UNL1        0.3042
     13 O         -20.5359   -9.0627   -8.1792 O.2     1  UNL1       -0.4122
     14 C         -17.4148   -8.3868   -4.1381 C.ar    1  UNL1        0.1387
     15 C         -17.4216   -9.6954   -4.6338 C.ar    1  UNL1        0.0371
     16 C         -18.0259   -9.9884   -5.8597 C.ar    1  UNL1        0.0078
     17 C         -18.6352   -8.9715   -6.6113 C.ar    1  UNL1        0.0553
     18 C         -18.6302   -7.6572   -6.1164 C.ar    1  UNL1        0.0078
     19 C         -18.0253   -7.3653   -4.8901 C.ar    1  UNL1        0.0371
     20 C         -17.4195   -8.3436   -1.6384 C.3     1  UNL1        0.2525
     21 O         -16.7954   -8.1450   -2.9029 O.3     1  UNL1       -0.4714
     22 O         -22.1674   -7.0532  -13.4458 O.3     1  UNL1       -0.4791
     23 C         -22.2964   -8.2095  -14.2323 C.ar    1  UNL1        0.1384
     24 C         -21.8591   -9.4242  -13.6919 C.ar    1  UNL1        0.0366
     25 C         -21.9527  -10.6067  -14.4304 C.ar    1  UNL1        0.0002
     26 C         -22.4996  -10.5925  -15.7216 C.ar    1  UNL1       -0.0059
     27 C         -22.9406   -9.3778  -16.2680 C.ar    1  UNL1        0.0002
     28 C         -22.8465   -8.1949  -15.5288 C.ar    1  UNL1        0.0366
     29 C         -22.5591  -11.8618  -16.5294 C.3     1  UNL1        0.0991
     30 N         -23.0916  -12.9663  -15.7091 N.3     1  UNL1       -0.2690
     31 C         -24.4624  -13.3100  -16.0939 C.3     1  UNL1        0.0724
     32 C         -24.6751  -14.7626  -15.6989 C.3     1  UNL1        0.0188
     33 C         -23.2803  -15.3532  -15.5674 C.3     1  UNL1        0.0188
     34 C         -22.3257  -14.2077  -15.8676 C.3     1  UNL1        0.0724
@<TRIPOS>BOND
     1    20    21    1
     2    21    14    1
     3    14    15   ar
     4    15    16   ar
     5    16    17   ar
     6    17     9    1
     7     9    10   ar
     8    10    11   ar
     9    11    12   ar
    10    12     1    1
    11     1     2    2
    12     1     3   am
    13     3     4    1
    14     4     5    1
    15     5     6    1
    16     6    22    1
    17    22    23    1
    18    23    24   ar
    19    24    25   ar
    20    25    26   ar
    21    26    29    1
    22    29    30    1
    23    30    31    1
    24    31    32    1
    25    32    33    1
    26    33    34    1
    27    26    27   ar
    28    27    28   ar
    29     6     7    1
    30     7     8    1
    31    12    13   ar
    32    17    18   ar
    33    18    19   ar
    34    19    14   ar
    35    13     9   ar
    36     8     3    1
    37    28    23   ar
    38    34    30    1
@<TRIPOS>MOLECULE
*****
 34 38 0 0 0
SMALL
GASTEIGER

@<TRIPOS>ATOM
      1 C         -23.8343   -5.8551  -11.6002 C.2     1  UNL1        0.3045
      2 O         -23.1535   -4.7939  -11.5821 O.2     1  UNL1       -0.2647
      3 N         -23.3253   -7.0440  -10.9520 N.am    1  UNL1       -0.2720
      4 C         -22.2621   -6.9415   -9.9399 C.3     1  UNL1        0.0976
      5 C         -21.0410   -7.7935  -10.3334 C.3     1  UNL1        0.0651
      6 C         -21.4022   -9.0645  -11.1384 C.3     1  UNL1        0.1693
      7 C         -22.8585   -9.4893  -10.8725 C.3     1  UNL1        0.0651
      8 C         -23.8272   -8.3813  -11.3132 C.3     1  UNL1        0.0976
      9 C         -26.6646   -5.3876  -13.6407 C.ar    1  UNL1        0.2501
     10 N         -27.1684   -6.2921  -12.7782 N.ar    1  UNL1       -0.1068
     11 N         -26.1964   -6.5742  -11.9247 N.ar    1  UNL1       -0.1021
     12 C         -25.1359   -5.8307  -12.2957 C.ar    1  UNL1        0.3042
     13 O         -25.4176   -5.1042  -13.3499 O.2     1  UNL1       -0.4122
     14 C         -28.8296   -3.6381  -16.9111 C.ar    1  UNL1        0.1387
     15 C         -27.4361   -3.5312  -16.8413 C.ar    1  UNL1        0.0371
     16 C         -26.7314   -4.1014  -15.7773 C.ar    1  UNL1        0.0078
     17 C         -27.4139   -4.7903  -14.7625 C.ar    1  UNL1        0.0553
     18 C         -28.8124   -4.8992  -14.8295 C.ar    1  UNL1        0.0078
     19 C         -29.5163   -4.3285  -15.8945 C.ar    1  UNL1        0.0371
     20 C         -28.8522   -2.2442  -18.9863 C.3     1  UNL1        0.2525
     21 O         -29.4898   -3.0483  -17.9992 O.3     1  UNL1       -0.4714
     22 O         -21.2102   -8.7986  -12.5323 O.3     1  UNL1       -0.4791
     23 C         -21.7762   -9.5219  -13.5946 C.ar    1  UNL1        0.1384
     24 C         -21.5876  -10.9085  -13.6199 C.ar    1  UNL1        0.0366
     25 C         -22.1184  -11.6804  -14.6566 C.ar    1  UNL1        0.0002
     26 C         -22.8600  -11.0746  -15.6809 C.ar    1  UNL1       -0.0059
     27 C         -23.0533   -9.6850  -15.6602 C.ar    1  UNL1        0.0002
     28 C         -22.5217   -8.9130  -14.6228 C.ar    1  UNL1        0.0366
     29 C         -23.3937  -11.9048  -16.8181 C.3     1  UNL1        0.0991
     30 N         -24.5398  -12.7161  -16.3658 N.3     1  UNL1       -0.2690
     31 C         -24.1126  -14.0354  -15.8942 C.3     1  UNL1        0.0724
     32 C         -25.1695  -14.5101  -14.9100 C.3     1  UNL1        0.0188
     33 C         -25.8986  -13.2528  -14.4635 C.3     1  UNL1        0.0188
     34 C         -25.2459  -12.1126  -15.2300 C.3     1  UNL1        0.0724
@<TRIPOS>BOND
     1    20    21    1
     2    21    14    1
     3    14    15   ar
     4    15    16   ar
     5    16    17   ar
     6    17     9    1
     7     9    10   ar
     8    10    11   ar
     9    11    12   ar
    10    12     1    1
    11     1     2    2
    12     1     3   am
    13     3     4    1
    14     4     5    1
    15     5     6    1
    16     6    22    1
    17    22    23    1
    18    23    24   ar
    19    24    25   ar
    20    25    26   ar
    21    26    29    1
    22    29    30    1
    23    30    31    1
    24    31    32    1
    25    32    33    1
    26    33    34    1
    27    26    27   ar
    28    27    28   ar
    29     6     7    1
    30     7     8    1
    31    12    13   ar
    32    17    18   ar
    33    18    19   ar
    34    19    14   ar
    35    13     9   ar
    36     8     3    1
    37    28    23   ar
    38    34    30    1
@<TRIPOS>MOLECULE
*****
 34 38 0 0 0
SMALL
GASTEIGER

@<TRIPOS>ATOM
      1 C         -23.5800   -7.2316  -12.5192 C.2     1  UNL1        0.3045
      2 O         -22.7521   -7.3561  -13.4621 O.2     1  UNL1       -0.2647
      3 N         -23.2341   -7.7016  -11.1954 N.am    1  UNL1       -0.2720
      4 C         -21.8266   -7.9303  -10.8320 C.3     1  UNL1        0.0976
      5 C         -21.6063   -9.3803  -10.3622 C.3     1  UNL1        0.0651
      6 C         -22.8343   -9.9981   -9.6522 C.3     1  UNL1        0.1693
      7 C         -23.7453   -8.8999   -9.0726 C.3     1  UNL1        0.0651
      8 C         -24.2764   -7.9978  -10.1971 C.3     1  UNL1        0.0976
      9 C         -26.4373   -5.6187  -13.7945 C.ar    1  UNL1        0.2501
     10 N         -26.8981   -5.9348  -12.5684 N.ar    1  UNL1       -0.1068
     11 N         -25.9102   -6.5626  -11.9498 N.ar    1  UNL1       -0.1021
     12 C         -24.8821   -6.6053  -12.8195 C.ar    1  UNL1        0.3042
     13 O         -25.2024   -6.0306  -13.9535 O.2     1  UNL1       -0.4122
     14 C         -28.7152   -3.5423  -16.7850 C.ar    1  UNL1        0.1387
     15 C         -29.3571   -4.3060  -15.8038 C.ar    1  UNL1        0.0371
     16 C         -28.6157   -4.9810  -14.8299 C.ar    1  UNL1        0.0078
     17 C         -27.2143   -4.9015  -14.8235 C.ar    1  UNL1        0.0553
     18 C         -26.5671   -4.1361  -15.8070 C.ar    1  UNL1        0.0078
     19 C         -27.3098   -3.4610  -16.7806 C.ar    1  UNL1        0.0371
     20 C         -28.9887   -2.2203  -18.8893 C.3     1  UNL1        0.2525
     21 O         -29.5044   -2.8842  -17.7399 O.3     1  UNL1       -0.4714
     22 O         -23.5589  -10.7971  -10.5941 O.3     1  UNL1       -0.4791
     23 C         -23.2381  -10.9652  -11.9509 C.ar    1  UNL1        0.1384
     24 C         -24.2102  -10.6348  -12.9020 C.ar    1  UNL1        0.0366
     25 C         -23.9528  -10.7900  -14.2667 C.ar    1  UNL1        0.0002
     26 C         -22.7083  -11.2682  -14.7015 C.ar    1  UNL1       -0.0059
     27 C         -21.7296  -11.5999  -13.7525 C.ar    1  UNL1        0.0002
     28 C         -21.9878  -11.4448  -12.3873 C.ar    1  UNL1        0.0366
     29 C         -22.4509  -11.4737  -16.1708 C.3     1  UNL1        0.0991
     30 N         -22.0373  -10.2054  -16.8005 N.3     1  UNL1       -0.2690
     31 C         -23.1080   -9.2069  -16.7535 C.3     1  UNL1        0.0724
     32 C         -22.4363   -7.8442  -16.8098 C.3     1  UNL1        0.0188
     33 C         -20.9985   -8.0851  -16.3783 C.3     1  UNL1        0.0188
     34 C         -20.8993   -9.5803  -16.1172 C.3     1  UNL1        0.0724
@<TRIPOS>BOND
     1    20    21    1
     2    21    14    1
     3    14    15   ar
     4    15    16   ar
     5    16    17   ar
     6    17     9    1
     7     9    10   ar
     8    10    11   ar
     9    11    12   ar
    10    12     1    1
    11     1     2    2
    12     1     3   am
    13     3     4    1
    14     4     5    1
    15     5     6    1
    16     6    22    1
    17    22    23    1
    18    23    24   ar
    19    24    25   ar
    20    25    26   ar
    21    26    29    1
    22    29    30    1
    23    30    31    1
    24    31    32    1
    25    32    33    1
    26    33    34    1
    27    26    27   ar
    28    27    28   ar
    29     6     7    1
    30     7     8    1
    31    12    13   ar
    32    17    18   ar
    33    18    19   ar
    34    19    14   ar
    35    13     9   ar
    36     8     3    1
    37    28    23   ar
    38    34    30    1
@<TRIPOS>MOLECULE
*****
 34 38 0 0 0
SMALL
GASTEIGER

@<TRIPOS>ATOM
      1 C         -22.6741  -11.1084  -17.3885 C.2     1  UNL1        0.3045
      2 O         -23.1737  -11.7230  -18.3697 O.2     1  UNL1       -0.2647
      3 N         -21.9831  -11.8491  -16.3557 N.am    1  UNL1       -0.2720
      4 C         -21.4931  -13.2114  -16.6194 C.3     1  UNL1        0.0976
      5 C         -22.0812  -14.2148  -15.6099 C.3     1  UNL1        0.0651
      6 C         -22.3514  -13.6068  -14.2131 C.3     1  UNL1        0.1693
      7 C         -21.4716  -12.3655  -13.9734 C.3     1  UNL1        0.0651
      8 C         -21.7876  -11.2781  -15.0116 C.3     1  UNL1        0.0976
      9 C         -23.5794   -7.7107  -17.5583 C.ar    1  UNL1        0.2501
     10 N         -22.3931   -7.5861  -16.9315 N.ar    1  UNL1       -0.1068
     11 N         -21.9146   -8.8127  -16.7928 N.ar    1  UNL1       -0.1021
     12 C         -22.8247   -9.6410  -17.3413 C.ar    1  UNL1        0.3042
     13 O         -23.8490   -8.9695  -17.8087 O.2     1  UNL1       -0.4122
     14 C         -26.1459   -4.4258  -18.5905 C.ar    1  UNL1        0.1387
     15 C         -25.7033   -4.5972  -17.2742 C.ar    1  UNL1        0.0371
     16 C         -24.8672   -5.6659  -16.9385 C.ar    1  UNL1        0.0078
     17 C         -24.4597   -6.5832  -17.9196 C.ar    1  UNL1        0.0553
     18 C         -24.9025   -6.4141  -19.2416 C.ar    1  UNL1        0.0078
     19 C         -25.7387   -5.3446  -19.5763 C.ar    1  UNL1        0.0371
     20 C         -28.3188   -3.2043  -18.3986 C.3     1  UNL1        0.2525
     21 O         -26.9838   -3.3375  -18.8758 O.3     1  UNL1       -0.4714
     22 O         -23.7370  -13.2571  -14.1217 O.3     1  UNL1       -0.4791
     23 C         -24.2492  -12.0317  -13.6654 C.ar    1  UNL1        0.1384
     24 C         -24.0095  -11.6742  -12.3336 C.ar    1  UNL1        0.0366
     25 C         -24.5021  -10.4719  -11.8195 C.ar    1  UNL1        0.0002
     26 C         -25.2342   -9.6000  -12.6383 C.ar    1  UNL1       -0.0059
     27 C         -25.4765   -9.9527  -13.9745 C.ar    1  UNL1        0.0002
     28 C         -24.9837  -11.1559  -14.4883 C.ar    1  UNL1        0.0366
     29 C         -25.7989   -8.3259  -12.0683 C.3     1  UNL1        0.0991
     30 N         -26.0414   -7.3467  -13.1447 N.3     1  UNL1       -0.2690
     31 C         -27.4645   -7.2561  -13.4793 C.3     1  UNL1        0.0724
     32 C         -27.6873   -5.8715  -14.0662 C.3     1  UNL1        0.0188
     33 C         -26.5101   -5.0366  -13.5881 C.3     1  UNL1        0.0188
     34 C         -25.6482   -5.9843  -12.7680 C.3     1  UNL1        0.0724
@<TRIPOS>BOND
     1    20    21    1
     2    21    14    1
     3    14    15   ar
     4    15    16   ar
     5    16    17   ar
     6    17     9    1
     7     9    10   ar
     8    10    11   ar
     9    11    12   ar
    10    12     1    1
    11     1     2    2
    12     1     3   am
    13     3     4    1
    14     4     5    1
    15     5     6    1
    16     6    22    1
    17    22    23    1
    18    23    24   ar
    19    24    25   ar
    20    25    26   ar
    21    26    29    1
    22    29    30    1
    23    30    31    1
    24    31    32    1
    25    32    33    1
    26    33    34    1
    27    26    27   ar
    28    27    28   ar
    29     6     7    1
    30     7     8    1
    31    12    13   ar
    32    17    18   ar
    33    18    19   ar
    34    19    14   ar
    35    13     9   ar
    36     8     3    1
    37    28    23   ar
    38    34    30    1
@<TRIPOS>MOLECULE
*****
 34 38 0 0 0
SMALL
GASTEIGER

@<TRIPOS>ATOM
      1 C         -24.7392  -11.1620  -13.0210 C.2     1  UNL1        0.3045
      2 O         -24.3697  -11.6340  -11.9116 O.2     1  UNL1       -0.2647
      3 N         -24.8326  -12.0309  -14.1739 N.am    1  UNL1       -0.2720
      4 C         -24.9137  -13.4899  -14.0004 C.3     1  UNL1        0.0976
      5 C         -23.7738  -14.1998  -14.7543 C.3     1  UNL1        0.0651
      6 C         -23.3274  -13.4668  -16.0416 C.3     1  UNL1        0.1693
      7 C         -24.4520  -12.5612  -16.5775 C.3     1  UNL1        0.0651
      8 C         -24.8102  -11.4844  -15.5419 C.3     1  UNL1        0.0976
      9 C         -26.0111   -7.9139  -13.4949 C.ar    1  UNL1        0.2501
     10 N         -24.9001   -7.6098  -12.7958 N.ar    1  UNL1       -0.1068
     11 N         -24.2968   -8.7595  -12.5369 N.ar    1  UNL1       -0.1021
     12 C         -25.0600   -9.7230  -13.0887 C.ar    1  UNL1        0.3042
     13 O         -26.1143   -9.2089  -13.6741 O.2     1  UNL1       -0.4122
     14 C         -28.8555   -5.0475  -14.9567 C.ar    1  UNL1        0.1387
     15 C         -29.2816   -6.2863  -14.4647 C.ar    1  UNL1        0.0371
     16 C         -28.3558   -7.2188  -13.9881 C.ar    1  UNL1        0.0078
     17 C         -26.9835   -6.9242  -13.9968 C.ar    1  UNL1        0.0553
     18 C         -26.5526   -5.6819  -14.4900 C.ar    1  UNL1        0.0078
     19 C         -27.4797   -4.7498  -14.9664 C.ar    1  UNL1        0.0371
     20 C         -29.8621   -3.6219  -16.7468 C.3     1  UNL1        0.2525
     21 O         -29.8241   -4.1467  -15.4236 O.3     1  UNL1       -0.4714
     22 O         -22.1615  -12.6885  -15.7493 O.3     1  UNL1       -0.4791
     23 C         -21.6913  -12.3581  -14.4679 C.ar    1  UNL1        0.1384
     24 C         -21.7389  -11.0153  -14.0764 C.ar    1  UNL1        0.0366
     25 C         -21.2763  -10.6240  -12.8172 C.ar    1  UNL1        0.0002
     26 C         -20.7690  -11.5775  -11.9227 C.ar    1  UNL1       -0.0059
     27 C         -20.7200  -12.9253  -12.3095 C.ar    1  UNL1        0.0002
     28 C         -21.1826  -13.3162  -13.5696 C.ar    1  UNL1        0.0366
     29 C         -20.2328  -11.1452  -10.5838 C.3     1  UNL1        0.0991
     30 N         -20.6255   -9.7517  -10.3005 N.3     1  UNL1       -0.2690
     31 C         -21.9220   -9.6853   -9.6221 C.3     1  UNL1        0.0724
     32 C         -21.9366   -8.3841   -8.8360 C.3     1  UNL1        0.0188
     33 C         -20.4762   -7.9922   -8.6773 C.3     1  UNL1        0.0188
     34 C         -19.6864   -9.0719   -9.4013 C.3     1  UNL1        0.0724
@<TRIPOS>BOND
     1    20    21    1
     2    21    14    1
     3    14    15   ar
     4    15    16   ar
     5    16    17   ar
     6    17     9    1
     7     9    10   ar
     8    10    11   ar
     9    11    12   ar
    10    12     1    1
    11     1     2    2
    12     1     3   am
    13     3     4    1
    14     4     5    1
    15     5     6    1
    16     6    22    1
    17    22    23    1
    18    23    24   ar
    19    24    25   ar
    20    25    26   ar
    21    26    29    1
    22    29    30    1
    23    30    31    1
    24    31    32    1
    25    32    33    1
    26    33    34    1
    27    26    27   ar
    28    27    28   ar
    29     6     7    1
    30     7     8    1
    31    12    13   ar
    32    17    18   ar
    33    18    19   ar
    34    19    14   ar
    35    13     9   ar
    36     8     3    1
    37    28    23   ar
    38    34    30    1
