@<TRIPOS>MOLECULE
*****
 34 38 0 0 0
SMALL
GASTEIGER

@<TRIPOS>ATOM
      1 C         -20.9697   -6.4470   -9.5852 C.2     1  UNL1        0.2491
      2 O         -21.0647   -5.3513   -8.9676 O.2     1  UNL1       -0.2699
      3 N         -21.6490   -6.6073  -10.8437 N.am    1  UNL1       -0.2760
      4 C         -22.9673   -5.9923  -11.0345 C.3     1  UNL1        0.0954
      5 C         -23.7080   -6.6063  -12.2391 C.3     1  UNL1        0.0399
      6 C         -23.3062   -8.0821  -12.4957 C.3     1  UNL1        0.0645
      7 C         -21.7702   -8.1694  -12.7685 C.3     1  UNL1        0.0399
      8 C         -20.9325   -7.1173  -12.0166 C.3     1  UNL1        0.0954
      9 C         -24.0890   -8.6083  -13.7484 C.3     1  UNL1        0.0477
     10 C         -23.9778  -10.1015  -13.8413 C.ar    1  UNL1        0.0220
     11 C         -24.1645  -10.9594  -14.8998 C.ar    1  UNL1        0.0923
     12 N         -24.1170  -12.2281  -14.4198 N.ar    1  UNL1       -0.2534
     13 N         -23.9463  -12.2016  -13.1005 N.ar    1  UNL1       -0.1651
     14 C         -23.8615  -10.9074  -12.7498 C.ar    1  UNL1        0.1515
     15 C         -23.7356  -10.3435  -11.4143 C.2     1  UNL1        0.2650
     16 O         -23.7422  -11.0729  -10.3879 O.2     1  UNL1       -0.2684
     17 N         -23.6369   -8.9140  -11.3085 N.am    1  UNL1       -0.3023
     18 H         -23.7498   -8.4850  -10.3633 H       1  UNL1        0.1497
     19 C         -17.9129   -9.4519   -5.1926 C.ar    1  UNL1        0.2249
     20 C         -17.5419  -10.5770   -5.9361 C.ar    1  UNL1        0.0577
     21 C         -17.9220  -10.6752   -7.2772 C.ar    1  UNL1        0.0063
     22 C         -18.6713   -9.6483   -7.8657 C.ar    1  UNL1        0.0179
     23 C         -19.0668   -9.7085   -9.2088 C.ar    1  UNL1        0.0016
     24 C         -19.8150   -8.6660   -9.7665 C.ar    1  UNL1        0.0046
     25 C         -20.1855   -7.5545   -8.9877 C.ar    1  UNL1        0.0551
     26 C         -19.7739   -7.4929   -7.6450 C.ar    1  UNL1        0.0237
     27 C         -19.0274   -8.5307   -7.0826 C.ar    1  UNL1        0.0845
     28 N         -18.6416   -8.4624   -5.7806 N.ar    1  UNL1       -0.2117
     29 C         -18.2055   -8.5185   -2.9190 C.3     1  UNL1        0.2542
     30 O         -17.5309   -9.3558   -3.8514 O.3     1  UNL1       -0.4561
     31 C         -24.3017  -13.4610  -15.2110 C.3     1  UNL1        0.0867
     32 C         -23.1031  -14.4151  -15.0170 C.3     1  UNL1        0.0244
     33 C         -24.4104  -13.1057  -16.7066 C.3     1  UNL1        0.0244
     34 C         -25.5864  -14.1742  -14.7513 C.3     1  UNL1        0.0244
@<TRIPOS>BOND
     1    29    30    1
     2    30    19    1
     3    19    20   ar
     4    20    21   ar
     5    21    22   ar
     6    22    23   ar
     7    23    24   ar
     8    24    25   ar
     9    25     1    1
    10     1     2    2
    11     1     3   am
    12     3     4    1
    13     4     5    1
    14     5     6    1
    15     6     7    1
    16     7     8    1
    17     6     9    1
    18     9    10    1
    19    10    11   ar
    20    11    12   ar
    21    12    31    1
    22    31    32    1
    23    31    33    1
    24    31    34    1
    25    12    13   ar
    26    13    14   ar
    27    14    15    1
    28    15    16    2
    29    15    17   am
    30    25    26   ar
    31    26    27   ar
    32    27    28   ar
    33    28    19   ar
    34    27    22   ar
    35     8     3    1
    36    14    10   ar
    37    17     6    1
    38    17    18    1
@<TRIPOS>MOLECULE
*****
 34 38 0 0 0
SMALL
GASTEIGER

@<TRIPOS>ATOM
      1 C         -26.7535   -5.5289  -12.6024 C.2     1  UNL1        0.2491
      2 O         -27.0209   -4.6346  -11.7541 O.2     1  UNL1       -0.2699
      3 N         -26.4658   -6.8646  -12.1507 N.am    1  UNL1       -0.2760
      4 C         -25.7130   -7.0581  -10.9063 C.3     1  UNL1        0.0954
      5 C         -25.1433   -8.4872  -10.8072 C.3     1  UNL1        0.0399
      6 C         -24.8492   -9.1085  -12.1974 C.3     1  UNL1        0.0645
      7 C         -26.1649   -9.1627  -13.0386 C.3     1  UNL1        0.0399
      8 C         -27.1512   -8.0156  -12.7463 C.3     1  UNL1        0.0954
      9 C         -24.2998  -10.5631  -11.9946 C.3     1  UNL1        0.0477
     10 C         -23.7089  -11.0786  -13.2737 C.ar    1  UNL1        0.0220
     11 C         -23.4440  -12.3599  -13.6971 C.ar    1  UNL1        0.0923
     12 N         -22.7453  -12.2778  -14.8579 N.ar    1  UNL1       -0.2534
     13 N         -22.5284  -11.0004  -15.1606 N.ar    1  UNL1       -0.1651
     14 C         -23.1153  -10.2718  -14.1963 C.ar    1  UNL1        0.1515
     15 C         -23.1119   -8.8259  -14.0330 C.2     1  UNL1        0.2650
     16 O         -22.4705   -8.0762  -14.8153 O.2     1  UNL1       -0.2684
     17 N         -23.8437   -8.2860  -12.9206 N.am    1  UNL1       -0.3023
     18 H         -23.6871   -7.2838  -12.6729 H       1  UNL1        0.1497
     19 C         -28.7381   -3.0447  -17.8521 C.ar    1  UNL1        0.2249
     20 C         -27.6863   -3.4510  -18.6797 C.ar    1  UNL1        0.0577
     21 C         -26.6358   -4.2010  -18.1446 C.ar    1  UNL1        0.0063
     22 C         -26.6434   -4.5392  -16.7852 C.ar    1  UNL1        0.0179
     23 C         -25.6105   -5.2942  -16.2133 C.ar    1  UNL1        0.0016
     24 C         -25.6479   -5.6150  -14.8519 C.ar    1  UNL1        0.0046
     25 C         -26.7124   -5.1782  -14.0425 C.ar    1  UNL1        0.0551
     26 C         -27.7527   -4.4333  -14.6246 C.ar    1  UNL1        0.0237
     27 C         -27.7207   -4.1095  -15.9828 C.ar    1  UNL1        0.0845
     28 N         -28.7296   -3.3823  -16.5323 N.ar    1  UNL1       -0.2117
     29 C         -31.0401   -2.1438  -17.7306 C.3     1  UNL1        0.2542
     30 O         -29.7880   -2.2949  -18.3900 O.3     1  UNL1       -0.4561
     31 C         -22.2285  -13.4184  -15.6403 C.3     1  UNL1        0.0867
     32 C         -23.2577  -14.5693  -15.6667 C.3     1  UNL1        0.0244
     33 C         -20.9261  -13.9379  -15.0008 C.3     1  UNL1        0.0244
     34 C         -21.9527  -12.9626  -17.0848 C.3     1  UNL1        0.0244
@<TRIPOS>BOND
     1    29    30    1
     2    30    19    1
     3    19    20   ar
     4    20    21   ar
     5    21    22   ar
     6    22    23   ar
     7    23    24   ar
     8    24    25   ar
     9    25     1    1
    10     1     2    2
    11     1     3   am
    12     3     4    1
    13     4     5    1
    14     5     6    1
    15     6     7    1
    16     7     8    1
    17     6     9    1
    18     9    10    1
    19    10    11   ar
    20    11    12   ar
    21    12    31    1
    22    31    32    1
    23    31    33    1
    24    31    34    1
    25    12    13   ar
    26    13    14   ar
    27    14    15    1
    28    15    16    2
    29    15    17   am
    30    25    26   ar
    31    26    27   ar
    32    27    28   ar
    33    28    19   ar
    34    27    22   ar
    35     8     3    1
    36    14    10   ar
    37    17     6    1
    38    17    18    1
@<TRIPOS>MOLECULE
*****
 34 38 0 0 0
SMALL
GASTEIGER

@<TRIPOS>ATOM
      1 C         -21.0776   -6.4228   -9.4452 C.2     1  UNL1        0.2491
      2 O         -21.2308   -5.3577   -8.7870 O.2     1  UNL1       -0.2699
      3 N         -21.7531   -6.5744  -10.7068 N.am    1  UNL1       -0.2760
      4 C         -23.1047   -6.0277  -10.8708 C.3     1  UNL1        0.0954
      5 C         -23.8159   -6.6374  -12.0952 C.3     1  UNL1        0.0399
      6 C         -23.3334   -8.0778  -12.4077 C.3     1  UNL1        0.0645
      7 C         -21.7963   -8.0687  -12.6880 C.3     1  UNL1        0.0399
      8 C         -21.0151   -6.9997  -11.8999 C.3     1  UNL1        0.0954
      9 C         -24.0918   -8.6004  -13.6769 C.3     1  UNL1        0.0477
     10 C         -23.8977  -10.0806  -13.8255 C.ar    1  UNL1        0.0220
     11 C         -24.0413  -10.9079  -14.9146 C.ar    1  UNL1        0.0923
     12 N         -23.9206  -12.1888  -14.4821 N.ar    1  UNL1       -0.2534
     13 N         -23.7450  -12.2016  -13.1633 N.ar    1  UNL1       -0.1651
     14 C         -23.7310  -10.9184  -12.7649 C.ar    1  UNL1        0.1515
     15 C         -23.6303  -10.3981  -11.4098 C.2     1  UNL1        0.2650
     16 O         -23.5910  -11.1642  -10.4113 O.2     1  UNL1       -0.2684
     17 N         -23.6112   -8.9702  -11.2513 N.am    1  UNL1       -0.3023
     18 H         -23.7432   -8.5834  -10.2904 H       1  UNL1        0.1497
     19 C         -18.1108  -11.7955   -9.4181 C.ar    1  UNL1        0.2249
     20 C         -17.5849  -11.7309   -8.1237 C.ar    1  UNL1        0.0577
     21 C         -17.8518  -10.6166   -7.3240 C.ar    1  UNL1        0.0063
     22 C         -18.6421   -9.5737   -7.8241 C.ar    1  UNL1        0.0179
     23 C         -18.9358   -8.4425   -7.0507 C.ar    1  UNL1        0.0016
     24 C         -19.7283   -7.4180   -7.5800 C.ar    1  UNL1        0.0046
     25 C         -20.2298   -7.5059   -8.8915 C.ar    1  UNL1        0.0551
     26 C         -19.9438   -8.6493   -9.6576 C.ar    1  UNL1        0.0237
     27 C         -19.1529   -9.6749   -9.1349 C.ar    1  UNL1        0.0845
     28 N         -18.8775  -10.7724   -9.8887 N.ar    1  UNL1       -0.2117
     29 C         -18.7908  -13.4449  -11.1336 C.3     1  UNL1        0.2542
     30 O         -17.8427  -12.9116  -10.2158 O.3     1  UNL1       -0.4561
     31 C         -24.0399  -13.4001  -15.3181 C.3     1  UNL1        0.0867
     32 C         -22.7921  -14.2955  -15.1576 C.3     1  UNL1        0.0244
     33 C         -24.1683  -12.9966  -16.7999 C.3     1  UNL1        0.0244
     34 C         -25.2845  -14.1969  -14.8864 C.3     1  UNL1        0.0244
@<TRIPOS>BOND
     1    29    30    1
     2    30    19    1
     3    19    20   ar
     4    20    21   ar
     5    21    22   ar
     6    22    23   ar
     7    23    24   ar
     8    24    25   ar
     9    25     1    1
    10     1     2    2
    11     1     3   am
    12     3     4    1
    13     4     5    1
    14     5     6    1
    15     6     7    1
    16     7     8    1
    17     6     9    1
    18     9    10    1
    19    10    11   ar
    20    11    12   ar
    21    12    31    1
    22    31    32    1
    23    31    33    1
    24    31    34    1
    25    12    13   ar
    26    13    14   ar
    27    14    15    1
    28    15    16    2
    29    15    17   am
    30    25    26   ar
    31    26    27   ar
    32    27    28   ar
    33    28    19   ar
    34    27    22   ar
    35     8     3    1
    36    14    10   ar
    37    17     6    1
    38    17    18    1
@<TRIPOS>MOLECULE
*****
 34 38 0 0 0
SMALL
GASTEIGER

@<TRIPOS>ATOM
      1 C         -23.4023   -8.9612  -13.3791 C.2     1  UNL1        0.2491
      2 O         -23.9340   -8.3606  -14.3525 O.2     1  UNL1       -0.2699
      3 N         -23.2757   -8.2819  -12.1167 N.am    1  UNL1       -0.2760
      4 C         -22.9707   -6.8469  -12.0979 C.3     1  UNL1        0.0954
      5 C         -22.4622   -6.3956  -10.7142 C.3     1  UNL1        0.0399
      6 C         -21.7287   -7.5291   -9.9509 C.3     1  UNL1        0.0645
      7 C         -22.6970   -8.7382   -9.7467 C.3     1  UNL1        0.0399
      8 C         -23.7267   -8.9232  -10.8779 C.3     1  UNL1        0.0954
      9 C         -21.2731   -6.9840   -8.5529 C.3     1  UNL1        0.0477
     10 C         -20.2957   -7.9298   -7.9197 C.ar    1  UNL1        0.0220
     11 C         -19.9047   -8.0855   -6.6105 C.ar    1  UNL1        0.0923
     12 N         -18.8650   -8.9579   -6.5884 N.ar    1  UNL1       -0.2534
     13 N         -18.5634   -9.3267   -7.8307 N.ar    1  UNL1       -0.1651
     14 C         -19.4346   -8.7008   -8.6398 C.ar    1  UNL1        0.1515
     15 C         -19.4873   -8.7220  -10.0937 C.2     1  UNL1        0.2650
     16 O         -18.6267   -9.3390  -10.7751 O.2     1  UNL1       -0.2684
     17 N         -20.5434   -7.9813  -10.7264 N.am    1  UNL1       -0.3023
     18 H         -20.4782   -7.8198  -11.7559 H       1  UNL1        0.1497
     19 C         -23.4404  -14.7511  -15.4146 C.ar    1  UNL1        0.2249
     20 C         -22.2387  -15.1769  -14.8394 C.ar    1  UNL1        0.0577
     21 C         -21.4843  -14.2839  -14.0740 C.ar    1  UNL1        0.0063
     22 C         -21.9359  -12.9707  -13.8895 C.ar    1  UNL1        0.0179
     23 C         -21.2097  -12.0479  -13.1247 C.ar    1  UNL1        0.0016
     24 C         -21.6883  -10.7434  -12.9599 C.ar    1  UNL1        0.0046
     25 C         -22.8934  -10.3414  -13.5644 C.ar    1  UNL1        0.0551
     26 C         -23.6246  -11.2753  -14.3187 C.ar    1  UNL1        0.0237
     27 C         -23.1517  -12.5786  -14.4872 C.ar    1  UNL1        0.0845
     28 N         -23.8649  -13.4705  -15.2252 N.ar    1  UNL1       -0.2117
     29 C         -25.5257  -15.3688  -16.5962 C.3     1  UNL1        0.2542
     30 O         -24.1935  -15.6466  -16.1794 O.3     1  UNL1       -0.4561
     31 C         -18.1188   -9.3858   -5.3883 C.3     1  UNL1        0.0867
     32 C         -17.0909   -8.3097   -4.9759 C.3     1  UNL1        0.0244
     33 C         -17.3655  -10.6968   -5.6863 C.3     1  UNL1        0.0244
     34 C         -19.1046   -9.6052   -4.2262 C.3     1  UNL1        0.0244
@<TRIPOS>BOND
     1    29    30    1
     2    30    19    1
     3    19    20   ar
     4    20    21   ar
     5    21    22   ar
     6    22    23   ar
     7    23    24   ar
     8    24    25   ar
     9    25     1    1
    10     1     2    2
    11     1     3   am
    12     3     4    1
    13     4     5    1
    14     5     6    1
    15     6     7    1
    16     7     8    1
    17     6     9    1
    18     9    10    1
    19    10    11   ar
    20    11    12   ar
    21    12    31    1
    22    31    32    1
    23    31    33    1
    24    31    34    1
    25    12    13   ar
    26    13    14   ar
    27    14    15    1
    28    15    16    2
    29    15    17   am
    30    25    26   ar
    31    26    27   ar
    32    27    28   ar
    33    28    19   ar
    34    27    22   ar
    35     8     3    1
    36    14    10   ar
    37    17     6    1
    38    17    18    1
@<TRIPOS>MOLECULE
*****
 34 38 0 0 0
SMALL
GASTEIGER

@<TRIPOS>ATOM
      1 C         -21.7376   -6.3816  -10.3859 C.2     1  UNL1        0.2491
      2 O         -22.0581   -5.2596   -9.9069 O.2     1  UNL1       -0.2699
      3 N         -22.2268   -6.7580  -11.6859 N.am    1  UNL1       -0.2760
      4 C         -23.5830   -6.3670  -12.0866 C.3     1  UNL1        0.0954
      5 C         -24.0770   -7.1942  -13.2901 C.3     1  UNL1        0.0399
      6 C         -23.4478   -8.6110  -13.3371 C.3     1  UNL1        0.0645
      7 C         -21.8924   -8.4932  -13.4287 C.3     1  UNL1        0.0399
      8 C         -21.3070   -7.2624  -12.7100 C.3     1  UNL1        0.0954
      9 C         -23.9892   -9.3624  -14.6024 C.3     1  UNL1        0.0477
     10 C         -23.6636  -10.8245  -14.5176 C.ar    1  UNL1        0.0220
     11 C         -23.5978  -11.7954  -15.4892 C.ar    1  UNL1        0.0923
     12 N         -23.4368  -12.9926  -14.8701 N.ar    1  UNL1       -0.2534
     13 N         -23.4367  -12.8181  -13.5510 N.ar    1  UNL1       -0.1651
     14 C         -23.5744  -11.4987  -13.3378 C.ar    1  UNL1        0.1515
     15 C         -23.6940  -10.8003  -12.0668 C.2     1  UNL1        0.2650
     16 O         -23.7280  -11.4238  -10.9733 O.2     1  UNL1       -0.2684
     17 N         -23.8062   -9.3685  -12.1090 N.am    1  UNL1       -0.3023
     18 H         -24.0935   -8.8750  -11.2348 H       1  UNL1        0.1497
     19 C         -18.4304   -8.2208   -5.5540 C.ar    1  UNL1        0.2249
     20 C         -18.0317   -9.4689   -6.0436 C.ar    1  UNL1        0.0577
     21 C         -18.4446   -9.8767   -7.3147 C.ar    1  UNL1        0.0063
     22 C         -19.2542   -9.0344   -8.0875 C.ar    1  UNL1        0.0179
     23 C         -19.6843   -9.4062   -9.3685 C.ar    1  UNL1        0.0016
     24 C         -20.4926   -8.5417  -10.1148 C.ar    1  UNL1        0.0046
     25 C         -20.8894   -7.2992   -9.5878 C.ar    1  UNL1        0.0551
     26 C         -20.4433   -6.9255   -8.3083 C.ar    1  UNL1        0.0237
     27 C         -19.6367   -7.7843   -7.5583 C.ar    1  UNL1        0.0845
     28 N         -19.2179   -7.4141   -6.3189 N.ar    1  UNL1       -0.2117
     29 C         -18.7917   -6.9497   -3.4613 C.3     1  UNL1        0.2542
     30 O         -18.0155   -7.8150   -4.2824 O.3     1  UNL1       -0.4561
     31 C         -23.3509  -14.3075  -15.5362 C.3     1  UNL1        0.0867
     32 C         -22.3350  -14.2619  -16.6983 C.3     1  UNL1        0.0244
     33 C         -24.7309  -14.6921  -16.1042 C.3     1  UNL1        0.0244
     34 C         -22.8948  -15.3669  -14.5163 C.3     1  UNL1        0.0244
@<TRIPOS>BOND
     1    29    30    1
     2    30    19    1
     3    19    20   ar
     4    20    21   ar
     5    21    22   ar
     6    22    23   ar
     7    23    24   ar
     8    24    25   ar
     9    25     1    1
    10     1     2    2
    11     1     3   am
    12     3     4    1
    13     4     5    1
    14     5     6    1
    15     6     7    1
    16     7     8    1
    17     6     9    1
    18     9    10    1
    19    10    11   ar
    20    11    12   ar
    21    12    31    1
    22    31    32    1
    23    31    33    1
    24    31    34    1
    25    12    13   ar
    26    13    14   ar
    27    14    15    1
    28    15    16    2
    29    15    17   am
    30    25    26   ar
    31    26    27   ar
    32    27    28   ar
    33    28    19   ar
    34    27    22   ar
    35     8     3    1
    36    14    10   ar
    37    17     6    1
    38    17    18    1
@<TRIPOS>MOLECULE
*****
 34 38 0 0 0
SMALL
GASTEIGER

@<TRIPOS>ATOM
      1 C         -26.6782   -5.3627  -12.8286 C.2     1  UNL1        0.2491
      2 O         -26.9006   -4.4394  -11.9985 O.2     1  UNL1       -0.2699
      3 N         -26.3955   -6.6892  -12.3474 N.am    1  UNL1       -0.2760
      4 C         -25.6015   -6.8586  -11.1253 C.3     1  UNL1        0.0954
      5 C         -25.0513   -8.2936  -11.0036 C.3     1  UNL1        0.0399
      6 C         -24.8175   -8.9606  -12.3841 C.3     1  UNL1        0.0645
      7 C         -26.1634   -9.0173  -13.1758 C.3     1  UNL1        0.0399
      8 C         -27.1202   -7.8455  -12.8833 C.3     1  UNL1        0.0954
      9 C         -24.2842  -10.4177  -12.1572 C.3     1  UNL1        0.0477
     10 C         -23.7482  -10.9806  -13.4404 C.ar    1  UNL1        0.0220
     11 C         -23.5191  -12.2781  -13.8342 C.ar    1  UNL1        0.0923
     12 N         -22.8615  -12.2421  -15.0211 N.ar    1  UNL1       -0.2534
     13 N         -22.6355  -10.9781  -15.3697 N.ar    1  UNL1       -0.1651
     14 C         -23.1755  -10.2115  -14.4074 C.ar    1  UNL1        0.1515
     15 C         -23.1433   -8.7617  -14.2880 C.2     1  UNL1        0.2650
     16 O         -22.5187   -8.0464  -15.1149 O.2     1  UNL1       -0.2684
     17 N         -23.8258   -8.1769  -13.1670 N.am    1  UNL1       -0.3023
     18 H         -23.6445   -7.1706  -12.9553 H       1  UNL1        0.1497
     19 C         -25.0109   -5.9197  -18.7089 C.ar    1  UNL1        0.2249
     20 C         -25.8187   -4.9119  -19.2457 C.ar    1  UNL1        0.0577
     21 C         -26.6539   -4.1734  -18.4033 C.ar    1  UNL1        0.0063
     22 C         -26.6766   -4.4480  -17.0299 C.ar    1  UNL1        0.0179
     23 C         -27.4970   -3.7259  -16.1528 C.ar    1  UNL1        0.0016
     24 C         -27.4964   -4.0251  -14.7859 C.ar    1  UNL1        0.0046
     25 C         -26.6835   -5.0554  -14.2791 C.ar    1  UNL1        0.0551
     26 C         -25.8521   -5.7669  -15.1614 C.ar    1  UNL1        0.0237
     27 C         -25.8488   -5.4731  -16.5268 C.ar    1  UNL1        0.0845
     28 N         -25.0453   -6.1736  -17.3709 N.ar    1  UNL1       -0.2117
     29 C         -24.6284   -7.7947  -20.2786 C.3     1  UNL1        0.2542
     30 O         -24.1759   -6.6566  -19.5537 O.3     1  UNL1       -0.4561
     31 C         -22.3914  -13.4139  -15.7867 C.3     1  UNL1        0.0867
     32 C         -23.4940  -14.4927  -15.8594 C.3     1  UNL1        0.0244
     33 C         -21.1541  -14.0211  -15.0973 C.3     1  UNL1        0.0244
     34 C         -22.0272  -12.9758  -17.2170 C.3     1  UNL1        0.0244
@<TRIPOS>BOND
     1    29    30    1
     2    30    19    1
     3    19    20   ar
     4    20    21   ar
     5    21    22   ar
     6    22    23   ar
     7    23    24   ar
     8    24    25   ar
     9    25     1    1
    10     1     2    2
    11     1     3   am
    12     3     4    1
    13     4     5    1
    14     5     6    1
    15     6     7    1
    16     7     8    1
    17     6     9    1
    18     9    10    1
    19    10    11   ar
    20    11    12   ar
    21    12    31    1
    22    31    32    1
    23    31    33    1
    24    31    34    1
    25    12    13   ar
    26    13    14   ar
    27    14    15    1
    28    15    16    2
    29    15    17   am
    30    25    26   ar
    31    26    27   ar
    32    27    28   ar
    33    28    19   ar
    34    27    22   ar
    35     8     3    1
    36    14    10   ar
    37    17     6    1
    38    17    18    1
@<TRIPOS>MOLECULE
*****
 34 38 0 0 0
SMALL
GASTEIGER

@<TRIPOS>ATOM
      1 C         -24.2094   -5.7805  -11.9414 C.2     1  UNL1        0.2491
      2 O         -23.8075   -4.6568  -11.5330 O.2     1  UNL1       -0.2699
      3 N         -23.3967   -6.9455  -11.7109 N.am    1  UNL1       -0.2760
      4 C         -21.9360   -6.8325  -11.7908 C.3     1  UNL1        0.0954
      5 C         -21.2699   -8.2149  -11.9395 C.3     1  UNL1        0.0399
      6 C         -22.1808   -9.2398  -12.6641 C.3     1  UNL1        0.0645
      7 C         -23.5105   -9.4201  -11.8636 C.3     1  UNL1        0.0399
      8 C         -23.9790   -8.1544  -11.1203 C.3     1  UNL1        0.0954
      9 C         -21.4303  -10.6143  -12.7447 C.3     1  UNL1        0.0477
     10 C         -22.1287  -11.5323  -13.7039 C.ar    1  UNL1        0.0220
     11 C         -22.0851  -12.8997  -13.8432 C.ar    1  UNL1        0.0923
     12 N         -22.7617  -13.2240  -14.9744 N.ar    1  UNL1       -0.2534
     13 N         -23.1952  -12.1160  -15.5700 N.ar    1  UNL1       -0.1651
     14 C         -22.8098  -11.0875  -14.7960 C.ar    1  UNL1        0.1515
     15 C         -22.9839   -9.6636  -15.0396 C.2     1  UNL1        0.2650
     16 O         -23.5103   -9.2363  -16.1007 O.2     1  UNL1       -0.2684
     17 N         -22.4999   -8.7584  -14.0342 N.am    1  UNL1       -0.3023
     18 H         -22.4326   -7.7458  -14.2799 H       1  UNL1        0.1497
     19 C         -28.5235   -4.1068  -15.9733 C.ar    1  UNL1        0.2249
     20 C         -29.4485   -5.1237  -15.7153 C.ar    1  UNL1        0.0577
     21 C         -29.1612   -6.0904  -14.7481 C.ar    1  UNL1        0.0063
     22 C         -27.9504   -6.0344  -14.0457 C.ar    1  UNL1        0.0179
     23 C         -27.6288   -6.9825  -13.0652 C.ar    1  UNL1        0.0016
     24 C         -26.4108   -6.8985  -12.3816 C.ar    1  UNL1        0.0046
     25 C         -25.4947   -5.8720  -12.6751 C.ar    1  UNL1        0.0551
     26 C         -25.8287   -4.9156  -13.6496 C.ar    1  UNL1        0.0237
     27 C         -27.0427   -4.9946  -14.3355 C.ar    1  UNL1        0.0845
     28 N         -27.3509   -4.0673  -15.2810 N.ar    1  UNL1       -0.2117
     29 C         -30.1217   -2.9519  -17.4693 C.3     1  UNL1        0.2542
     30 O         -28.8137   -3.1408  -16.9410 O.3     1  UNL1       -0.4561
     31 C         -22.9353  -14.5851  -15.5197 C.3     1  UNL1        0.0867
     32 C         -24.4000  -14.8139  -15.9520 C.3     1  UNL1        0.0244
     33 C         -22.5724  -15.6254  -14.4422 C.3     1  UNL1        0.0244
     34 C         -22.0200  -14.7642  -16.7446 C.3     1  UNL1        0.0244
@<TRIPOS>BOND
     1    29    30    1
     2    30    19    1
     3    19    20   ar
     4    20    21   ar
     5    21    22   ar
     6    22    23   ar
     7    23    24   ar
     8    24    25   ar
     9    25     1    1
    10     1     2    2
    11     1     3   am
    12     3     4    1
    13     4     5    1
    14     5     6    1
    15     6     7    1
    16     7     8    1
    17     6     9    1
    18     9    10    1
    19    10    11   ar
    20    11    12   ar
    21    12    31    1
    22    31    32    1
    23    31    33    1
    24    31    34    1
    25    12    13   ar
    26    13    14   ar
    27    14    15    1
    28    15    16    2
    29    15    17   am
    30    25    26   ar
    31    26    27   ar
    32    27    28   ar
    33    28    19   ar
    34    27    22   ar
    35     8     3    1
    36    14    10   ar
    37    17     6    1
    38    17    18    1
@<TRIPOS>MOLECULE
*****
 34 38 0 0 0
SMALL
GASTEIGER

@<TRIPOS>ATOM
      1 C         -22.5434  -10.0096  -11.8520 C.2     1  UNL1        0.2491
      2 O         -21.6813  -10.3106  -10.9818 O.2     1  UNL1       -0.2699
      3 N         -22.8269   -8.6229  -12.1122 N.am    1  UNL1       -0.2760
      4 C         -22.8251   -7.6660  -11.0001 C.3     1  UNL1        0.0954
      5 C         -23.5470   -6.3577  -11.3794 C.3     1  UNL1        0.0399
      6 C         -24.6598   -6.5770  -12.4372 C.3     1  UNL1        0.0645
      7 C         -24.0395   -7.1884  -13.7345 C.3     1  UNL1        0.0399
      8 C         -22.8290   -8.1084  -13.4850 C.3     1  UNL1        0.0954
      9 C         -25.3156   -5.1933  -12.7749 C.3     1  UNL1        0.0477
     10 C         -26.5898   -5.3951  -13.5407 C.ar    1  UNL1        0.0220
     11 C         -27.3075   -4.5416  -14.3454 C.ar    1  UNL1        0.0923
     12 N         -28.4788   -5.1521  -14.6584 N.ar    1  UNL1       -0.2534
     13 N         -28.5423   -6.3357  -14.0539 N.ar    1  UNL1       -0.1651
     14 C         -27.3925   -6.4825  -13.3745 C.ar    1  UNL1        0.1515
     15 C         -26.9974   -7.5766  -12.5003 C.2     1  UNL1        0.2650
     16 O         -27.7771   -8.5326  -12.2480 O.2     1  UNL1       -0.2684
     17 N         -25.6909   -7.5076  -11.9065 N.am    1  UNL1       -0.3023
     18 H         -25.4720   -8.1691  -11.1287 H       1  UNL1        0.1497
     19 C         -23.1990  -14.8164  -15.6114 C.ar    1  UNL1        0.2249
     20 C         -24.5792  -14.9958  -15.4734 C.ar    1  UNL1        0.0577
     21 C         -25.3064  -14.1455  -14.6364 C.ar    1  UNL1        0.0063
     22 C         -24.6487  -13.1220  -13.9420 C.ar    1  UNL1        0.0179
     23 C         -25.3444  -12.2464  -13.0975 C.ar    1  UNL1        0.0016
     24 C         -24.6575  -11.2343  -12.4179 C.ar    1  UNL1        0.0046
     25 C         -23.2660  -11.0897  -12.5659 C.ar    1  UNL1        0.0551
     26 C         -22.5756  -11.9619  -13.4254 C.ar    1  UNL1        0.0237
     27 C         -23.2557  -12.9743  -14.1059 C.ar    1  UNL1        0.0845
     28 N         -22.5752  -13.8161  -14.9288 N.ar    1  UNL1       -0.2117
     29 C         -21.2810  -15.2617  -17.1110 C.3     1  UNL1        0.2542
     30 O         -22.4740  -15.6681  -16.4498 O.3     1  UNL1       -0.4561
     31 C         -29.5632   -4.5767  -15.4788 C.3     1  UNL1        0.0867
     32 C         -30.3630   -3.5343  -14.6674 C.3     1  UNL1        0.0244
     33 C         -30.5247   -5.6952  -15.9254 C.3     1  UNL1        0.0244
     34 C         -28.9568   -3.8880  -16.7150 C.3     1  UNL1        0.0244
@<TRIPOS>BOND
     1    29    30    1
     2    30    19    1
     3    19    20   ar
     4    20    21   ar
     5    21    22   ar
     6    22    23   ar
     7    23    24   ar
     8    24    25   ar
     9    25     1    1
    10     1     2    2
    11     1     3   am
    12     3     4    1
    13     4     5    1
    14     5     6    1
    15     6     7    1
    16     7     8    1
    17     6     9    1
    18     9    10    1
    19    10    11   ar
    20    11    12   ar
    21    12    31    1
    22    31    32    1
    23    31    33    1
    24    31    34    1
    25    12    13   ar
    26    13    14   ar
    27    14    15    1
    28    15    16    2
    29    15    17   am
    30    25    26   ar
    31    26    27   ar
    32    27    28   ar
    33    28    19   ar
    34    27    22   ar
    35     8     3    1
    36    14    10   ar
    37    17     6    1
    38    17    18    1
@<TRIPOS>MOLECULE
*****
 34 38 0 0 0
SMALL
GASTEIGER

@<TRIPOS>ATOM
      1 C         -19.7353  -10.0274  -10.1446 C.2     1  UNL1        0.2491
      2 O         -18.9551  -10.2716   -9.1841 O.2     1  UNL1       -0.2699
      3 N         -20.2799   -8.7034  -10.2905 N.am    1  UNL1       -0.2760
      4 C         -20.6411   -7.9367   -9.0928 C.3     1  UNL1        0.0954
      5 C         -21.5755   -6.7595   -9.4362 C.3     1  UNL1        0.0399
      6 C         -22.4573   -7.0428  -10.6802 C.3     1  UNL1        0.0645
      7 C         -21.5463   -7.3227  -11.9183 C.3     1  UNL1        0.0399
      8 C         -20.2081   -8.0067  -11.5784 C.3     1  UNL1        0.0954
      9 C         -23.3501   -5.7852  -10.9634 C.3     1  UNL1        0.0477
     10 C         -24.4316   -6.1262  -11.9457 C.ar    1  UNL1        0.0220
     11 C         -25.2034   -5.3272  -12.7564 C.ar    1  UNL1        0.0923
     12 N         -26.1569   -6.1089  -13.3239 N.ar    1  UNL1       -0.2534
     13 N         -26.0394   -7.3558  -12.8748 N.ar    1  UNL1       -0.1651
     14 C         -24.9893   -7.3652  -12.0367 C.ar    1  UNL1        0.1515
     15 C         -24.4855   -8.4721  -11.2379 C.2     1  UNL1        0.2650
     16 O         -25.0618   -9.5917  -11.2259 O.2     1  UNL1       -0.2684
     17 N         -23.3200   -8.2285  -10.4337 N.am    1  UNL1       -0.3023
     18 H         -23.0687   -8.9378   -9.7099 H       1  UNL1        0.1497
     19 C         -22.7977  -12.7215  -14.7306 C.ar    1  UNL1        0.2249
     20 C         -22.1714  -13.9713  -14.6869 C.ar    1  UNL1        0.0577
     21 C         -21.1700  -14.2098  -13.7421 C.ar    1  UNL1        0.0063
     22 C         -20.8007  -13.1969  -12.8478 C.ar    1  UNL1        0.0179
     23 C         -19.8046  -13.3998  -11.8831 C.ar    1  UNL1        0.0016
     24 C         -19.4590  -12.3671  -11.0045 C.ar    1  UNL1        0.0046
     25 C         -20.0972  -11.1159  -11.0841 C.ar    1  UNL1        0.0551
     26 C         -21.1055  -10.9227  -12.0443 C.ar    1  UNL1        0.0237
     27 C         -21.4544  -11.9495  -12.9244 C.ar    1  UNL1        0.0845
     28 N         -22.4264  -11.7476  -13.8534 N.ar    1  UNL1       -0.2117
     29 C         -25.0977  -12.0228  -15.3208 C.3     1  UNL1        0.2542
     30 O         -23.7996  -12.4857  -15.6764 O.3     1  UNL1       -0.4561
     31 C         -27.2193   -5.6508  -14.2413 C.3     1  UNL1        0.0867
     32 C         -27.9189   -4.3948  -13.6777 C.3     1  UNL1        0.0244
     33 C         -28.2711   -6.7640  -14.4134 C.3     1  UNL1        0.0244
     34 C         -26.5993   -5.3056  -15.6076 C.3     1  UNL1        0.0244
@<TRIPOS>BOND
     1    29    30    1
     2    30    19    1
     3    19    20   ar
     4    20    21   ar
     5    21    22   ar
     6    22    23   ar
     7    23    24   ar
     8    24    25   ar
     9    25     1    1
    10     1     2    2
    11     1     3   am
    12     3     4    1
    13     4     5    1
    14     5     6    1
    15     6     7    1
    16     7     8    1
    17     6     9    1
    18     9    10    1
    19    10    11   ar
    20    11    12   ar
    21    12    31    1
    22    31    32    1
    23    31    33    1
    24    31    34    1
    25    12    13   ar
    26    13    14   ar
    27    14    15    1
    28    15    16    2
    29    15    17   am
    30    25    26   ar
    31    26    27   ar
    32    27    28   ar
    33    28    19   ar
    34    27    22   ar
    35     8     3    1
    36    14    10   ar
    37    17     6    1
    38    17    18    1
