@<TRIPOS>MOLECULE
*****
 35 38 0 0 0
SMALL
GASTEIGER

@<TRIPOS>ATOM
      1 C         -23.8683   -9.4809   -9.1636 C.3     1  UNL1        0.1484
      2 O         -24.6961  -10.3550   -8.4333 O.3     1  UNL1       -0.3786
      3 H         -24.1259  -10.9903   -7.9312 H       1  UNL1        0.2108
      4 C         -23.2605  -10.1618  -10.3777 C.ar    1  UNL1        0.0069
      5 C         -21.9000  -10.5163  -10.4174 C.ar    1  UNL1       -0.0018
      6 C         -21.3569  -11.1027  -11.5610 C.ar    1  UNL1        0.0011
      7 C         -22.1525  -11.3256  -12.6854 C.ar    1  UNL1        0.0158
      8 C         -23.5129  -10.9704  -12.6738 C.ar    1  UNL1        0.0642
      9 C         -24.0542  -10.3878  -11.5166 C.ar    1  UNL1        0.0139
     10 N         -24.3718  -11.2075  -13.8035 N.pl3   1  UNL1       -0.2188
     11 H         -24.5185  -10.4387  -14.4954 H       1  UNL1        0.1734
     12 S         -25.0498  -12.7531  -14.2054 S.O2    1  UNL1        0.0522
     13 O         -24.9939  -13.6660  -13.0129 O.2     1  UNL1       -0.1545
     14 O         -26.4891  -12.5615  -14.5964 O.2     1  UNL1       -0.1545
     15 C         -24.1437  -13.4640  -15.5804 C.3     1  UNL1        0.1488
     16 C         -22.7508  -13.9522  -15.1964 C.3     1  UNL1        0.0255
     17 C         -23.1736  -15.3841  -15.4965 C.3     1  UNL1        0.0036
     18 C         -24.5629  -14.8983  -15.8867 C.3     1  UNL1        0.0255
     19 C         -22.7934   -8.8120   -8.2832 C.3     1  UNL1        0.1029
     20 N         -22.7432   -7.3585   -8.5119 N.3     1  UNL1       -0.2921
     21 H         -23.3683   -7.1397   -9.3230 H       1  UNL1        0.1234
     22 C         -21.3898   -6.9041   -8.8603 C.3     1  UNL1        0.1166
     23 C         -21.4487   -5.6399   -9.7168 C.3     1  UNL1        0.2224
     24 O         -22.4859   -5.7627  -10.6874 O.3     1  UNL1       -0.4739
     25 C         -21.2672   -9.5322  -16.0935 C.3     1  UNL1        0.0540
     26 C         -22.2958   -8.7892  -15.3076 C.ar    1  UNL1        0.0801
     27 N         -23.6198   -8.7815  -15.5953 N.ar    1  UNL1       -0.1770
     28 N         -24.2410   -8.0697  -14.6608 N.ar    1  UNL1       -0.2760
     29 C         -23.3274   -7.6351  -13.7777 C.ar    1  UNL1        0.0780
     30 C         -23.5295   -6.8738  -12.6295 C.ar    1  UNL1        0.0554
     31 C         -22.3920   -6.5368  -11.8525 C.ar    1  UNL1        0.1401
     32 C         -21.1102   -6.9849  -12.2559 C.ar    1  UNL1        0.0370
     33 C         -20.9485   -7.7705  -13.4119 C.ar    1  UNL1        0.0058
     34 C         -22.0894   -8.0686  -14.1499 C.ar    1  UNL1        0.0324
     35 H         -25.2710   -7.9014  -14.6309 H       1  UNL1        0.1889
@<TRIPOS>BOND
     1    25    26    1
     2    26    27   ar
     3    27    28   ar
     4    28    29   ar
     5    29    30   ar
     6    30    31   ar
     7    31    24    1
     8    24    23    1
     9    23    22    1
    10    22    20    1
    11    20    19    1
    12    19     1    1
    13     1     2    1
    14     1     4    1
    15     4     5   ar
    16     5     6   ar
    17     6     7   ar
    18     7     8   ar
    19     8    10    1
    20    10    12    1
    21    12    13    2
    22    12    14    2
    23    12    15    1
    24    15    16    1
    25    16    17    1
    26    17    18    1
    27     8     9   ar
    28    31    32   ar
    29    32    33   ar
    30    33    34   ar
    31    34    26   ar
    32    34    29   ar
    33     9     4   ar
    34    18    15    1
    35    28    35    1
    36    20    21    1
    37     2     3    1
    38    10    11    1
@<TRIPOS>MOLECULE
*****
 35 38 0 0 0
SMALL
GASTEIGER

@<TRIPOS>ATOM
      1 C         -25.4326  -12.2288  -14.2132 C.3     1  UNL1        0.1484
      2 O         -25.8540  -11.7308  -15.4609 O.3     1  UNL1       -0.3786
      3 H         -25.1762  -11.9650  -16.1440 H       1  UNL1        0.2108
      4 C         -24.3039  -11.3987  -13.6262 C.ar    1  UNL1        0.0069
      5 C         -23.2306  -11.9970  -12.9420 C.ar    1  UNL1       -0.0018
      6 C         -22.2281  -11.2089  -12.3757 C.ar    1  UNL1        0.0011
      7 C         -22.2895   -9.8178  -12.4643 C.ar    1  UNL1        0.0158
      8 C         -23.3579   -9.1959  -13.1342 C.ar    1  UNL1        0.0642
      9 C         -24.3590   -9.9958  -13.7083 C.ar    1  UNL1        0.0139
     10 N         -23.4435   -7.7661  -13.2692 N.pl3   1  UNL1       -0.2188
     11 H         -23.2737   -7.3371  -14.2065 H       1  UNL1        0.1734
     12 S         -23.9910   -6.6993  -12.0152 S.O2    1  UNL1        0.0522
     13 O         -24.0057   -7.4195  -10.6963 O.2     1  UNL1       -0.1545
     14 O         -23.0385   -5.5397  -11.9186 O.2     1  UNL1       -0.1545
     15 C         -25.6317   -6.0966  -12.4173 C.3     1  UNL1        0.1488
     16 C         -26.0374   -6.3706  -13.8617 C.3     1  UNL1        0.0255
     17 C         -27.1379   -7.3025  -13.3724 C.3     1  UNL1        0.0036
     18 C         -26.7390   -7.0253  -11.9292 C.3     1  UNL1        0.0255
     19 C         -25.0745  -13.7278  -14.2660 C.3     1  UNL1        0.1029
     20 N         -24.6508  -14.1292  -15.6176 N.3     1  UNL1       -0.2921
     21 H         -25.4460  -14.6450  -16.0629 H       1  UNL1        0.1234
     22 C         -23.4966  -15.0381  -15.5838 C.3     1  UNL1        0.1166
     23 C         -22.1933  -14.2507  -15.4551 C.3     1  UNL1        0.2224
     24 O         -21.9980  -13.4478  -16.6170 O.3     1  UNL1       -0.4739
     25 C         -23.4816   -6.9412  -17.2365 C.3     1  UNL1        0.0540
     26 C         -22.5331   -7.9476  -16.6750 C.ar    1  UNL1        0.0801
     27 N         -21.4845   -7.6455  -15.8719 N.ar    1  UNL1       -0.1770
     28 N         -20.8956   -8.7826  -15.5168 N.ar    1  UNL1       -0.2760
     29 C         -21.5653   -9.8030  -16.0768 C.ar    1  UNL1        0.0780
     30 C         -21.3153  -11.1679  -15.9605 C.ar    1  UNL1        0.0554
     31 C         -22.1727  -12.0574  -16.6569 C.ar    1  UNL1        0.1401
     32 C         -23.2429  -11.5399  -17.4272 C.ar    1  UNL1        0.0370
     33 C         -23.4764  -10.1545  -17.5036 C.ar    1  UNL1        0.0058
     34 C         -22.6051   -9.3179  -16.8136 C.ar    1  UNL1        0.0324
     35 H         -20.0603   -8.8481  -14.8937 H       1  UNL1        0.1889
@<TRIPOS>BOND
     1    25    26    1
     2    26    27   ar
     3    27    28   ar
     4    28    29   ar
     5    29    30   ar
     6    30    31   ar
     7    31    24    1
     8    24    23    1
     9    23    22    1
    10    22    20    1
    11    20    19    1
    12    19     1    1
    13     1     2    1
    14     1     4    1
    15     4     5   ar
    16     5     6   ar
    17     6     7   ar
    18     7     8   ar
    19     8    10    1
    20    10    12    1
    21    12    13    2
    22    12    14    2
    23    12    15    1
    24    15    16    1
    25    16    17    1
    26    17    18    1
    27     8     9   ar
    28    31    32   ar
    29    32    33   ar
    30    33    34   ar
    31    34    26   ar
    32    34    29   ar
    33     9     4   ar
    34    18    15    1
    35    28    35    1
    36    20    21    1
    37     2     3    1
    38    10    11    1
@<TRIPOS>MOLECULE
*****
 35 38 0 0 0
SMALL
GASTEIGER

@<TRIPOS>ATOM
      1 C         -23.7987   -9.5145   -9.1512 C.3     1  UNL1        0.1484
      2 O         -24.4887  -10.4388   -8.3437 O.3     1  UNL1       -0.3786
      3 H         -23.8326  -11.0562   -7.9324 H       1  UNL1        0.2108
      4 C         -23.3203  -10.1448  -10.4478 C.ar    1  UNL1        0.0069
      5 C         -21.9521  -10.3382  -10.7100 C.ar    1  UNL1       -0.0018
      6 C         -21.5368  -10.8808  -11.9266 C.ar    1  UNL1        0.0011
      7 C         -22.4729  -11.2188  -12.9046 C.ar    1  UNL1        0.0158
      8 C         -23.8456  -11.0251  -12.6701 C.ar    1  UNL1        0.0642
      9 C         -24.2564  -10.4859  -11.4404 C.ar    1  UNL1        0.0139
     10 N         -24.8428  -11.3848  -13.6429 N.pl3   1  UNL1       -0.2188
     11 H         -25.2788  -10.6311  -14.2202 H       1  UNL1        0.1734
     12 S         -25.2528  -13.0180  -14.0609 S.O2    1  UNL1        0.0522
     13 O         -24.9986  -13.9281  -12.8924 O.2     1  UNL1       -0.1545
     14 O         -26.7155  -13.0751  -14.4048 O.2     1  UNL1       -0.1545
     15 C         -24.2822  -13.5337  -15.4783 C.3     1  UNL1        0.1488
     16 C         -22.9159  -14.0964  -15.1008 C.3     1  UNL1        0.0255
     17 C         -23.3354  -15.4612  -15.6304 C.3     1  UNL1        0.0036
     18 C         -24.6979  -14.9000  -16.0143 C.3     1  UNL1        0.0255
     19 C         -22.6511   -8.8128   -8.3971 C.3     1  UNL1        0.1029
     20 N         -22.7539   -7.3485   -8.5092 N.3     1  UNL1       -0.2921
     21 H         -23.5844   -7.1303   -9.1084 H       1  UNL1        0.1234
     22 C         -21.5727   -6.7634   -9.1589 C.3     1  UNL1        0.1166
     23 C         -21.9893   -5.8090  -10.2772 C.3     1  UNL1        0.2224
     24 O         -23.0501   -6.3869  -11.0346 O.3     1  UNL1       -0.4739
     25 C         -23.0967   -9.1058  -17.1604 C.3     1  UNL1        0.0540
     26 C         -22.2569   -8.6473  -16.0148 C.ar    1  UNL1        0.0801
     27 N         -20.9021   -8.6310  -16.0181 N.ar    1  UNL1       -0.1770
     28 N         -20.4928   -8.1126  -14.8650 N.ar    1  UNL1       -0.2760
     29 C         -21.5728   -7.7900  -14.1349 C.ar    1  UNL1        0.0780
     30 C         -21.6188   -7.2028  -12.8732 C.ar    1  UNL1        0.0554
     31 C         -22.8951   -6.9601  -12.3045 C.ar    1  UNL1        0.1401
     32 C         -24.0621   -7.3073  -13.0283 C.ar    1  UNL1        0.0370
     33 C         -23.9754   -7.8803  -14.3105 C.ar    1  UNL1        0.0058
     34 C         -22.7039   -8.1106  -14.8256 C.ar    1  UNL1        0.0324
     35 H         -19.4926   -7.9758  -14.5985 H       1  UNL1        0.1889
@<TRIPOS>BOND
     1    25    26    1
     2    26    27   ar
     3    27    28   ar
     4    28    29   ar
     5    29    30   ar
     6    30    31   ar
     7    31    24    1
     8    24    23    1
     9    23    22    1
    10    22    20    1
    11    20    19    1
    12    19     1    1
    13     1     2    1
    14     1     4    1
    15     4     5   ar
    16     5     6   ar
    17     6     7   ar
    18     7     8   ar
    19     8    10    1
    20    10    12    1
    21    12    13    2
    22    12    14    2
    23    12    15    1
    24    15    16    1
    25    16    17    1
    26    17    18    1
    27     8     9   ar
    28    31    32   ar
    29    32    33   ar
    30    33    34   ar
    31    34    26   ar
    32    34    29   ar
    33     9     4   ar
    34    18    15    1
    35    28    35    1
    36    20    21    1
    37     2     3    1
    38    10    11    1
@<TRIPOS>MOLECULE
*****
 35 38 0 0 0
SMALL
GASTEIGER

@<TRIPOS>ATOM
      1 C         -25.2315   -6.2444  -12.1929 C.3     1  UNL1        0.1484
      2 O         -25.5868   -4.9525  -12.6257 O.3     1  UNL1       -0.3786
      3 H         -25.4061   -4.8798  -13.5968 H       1  UNL1        0.2108
      4 C         -23.7248   -6.4138  -12.0999 C.ar    1  UNL1        0.0069
      5 C         -22.9196   -5.4752  -11.4301 C.ar    1  UNL1       -0.0018
      6 C         -21.5336   -5.6321  -11.3952 C.ar    1  UNL1        0.0011
      7 C         -20.9292   -6.7109  -12.0415 C.ar    1  UNL1        0.0158
      8 C         -21.7120   -7.6569  -12.7265 C.ar    1  UNL1        0.0642
      9 C         -23.1067   -7.4966  -12.7507 C.ar    1  UNL1        0.0139
     10 N         -21.1286   -8.7964  -13.3832 N.pl3   1  UNL1       -0.2188
     11 H         -20.1274   -9.0286  -13.1955 H       1  UNL1        0.1734
     12 S         -22.0236   -9.9355  -14.3380 S.O2    1  UNL1        0.0522
     13 O         -21.4369  -11.3104  -14.1836 O.2     1  UNL1       -0.1545
     14 O         -23.4454   -9.9625  -13.8493 O.2     1  UNL1       -0.1545
     15 C         -21.9896   -9.4304  -16.0586 C.3     1  UNL1        0.1488
     16 C         -23.1097   -8.4623  -16.4249 C.3     1  UNL1        0.0255
     17 C         -22.0776   -7.3753  -16.6941 C.3     1  UNL1        0.0036
     18 C         -20.9573   -8.3421  -16.3353 C.3     1  UNL1        0.0255
     19 C         -25.8816   -7.3526  -13.0457 C.3     1  UNL1        0.1029
     20 N         -26.4141   -8.4345  -12.2011 N.3     1  UNL1       -0.2921
     21 H         -27.2084   -8.8820  -12.7162 H       1  UNL1        0.1234
     22 C         -26.9420   -7.9270  -10.9270 C.3     1  UNL1        0.1166
     23 C         -26.6645   -8.9161   -9.7956 C.3     1  UNL1        0.2224
     24 O         -25.5113   -8.5032   -9.0659 O.3     1  UNL1       -0.4739
     25 C         -19.0212   -9.9579   -9.8928 C.3     1  UNL1        0.0540
     26 C         -20.4197  -10.2401  -10.3313 C.ar    1  UNL1        0.0801
     27 N         -20.7619  -11.1971  -11.2274 N.ar    1  UNL1       -0.1770
     28 N         -22.0863  -11.2066  -11.3355 N.ar    1  UNL1       -0.2760
     29 C         -22.5886  -10.2739  -10.5102 C.ar    1  UNL1        0.0780
     30 C         -23.9236   -9.9499  -10.2830 C.ar    1  UNL1        0.0554
     31 C         -24.2026   -8.9148   -9.3547 C.ar    1  UNL1        0.1401
     32 C         -23.1347   -8.2612   -8.6922 C.ar    1  UNL1        0.0370
     33 C         -21.7986   -8.6310   -8.9327 C.ar    1  UNL1        0.0058
     34 C         -21.5699   -9.6437   -9.8586 C.ar    1  UNL1        0.0324
     35 H         -22.6257  -11.8507  -11.9555 H       1  UNL1        0.1889
@<TRIPOS>BOND
     1    25    26    1
     2    26    27   ar
     3    27    28   ar
     4    28    29   ar
     5    29    30   ar
     6    30    31   ar
     7    31    24    1
     8    24    23    1
     9    23    22    1
    10    22    20    1
    11    20    19    1
    12    19     1    1
    13     1     2    1
    14     1     4    1
    15     4     5   ar
    16     5     6   ar
    17     6     7   ar
    18     7     8   ar
    19     8    10    1
    20    10    12    1
    21    12    13    2
    22    12    14    2
    23    12    15    1
    24    15    16    1
    25    16    17    1
    26    17    18    1
    27     8     9   ar
    28    31    32   ar
    29    32    33   ar
    30    33    34   ar
    31    34    26   ar
    32    34    29   ar
    33     9     4   ar
    34    18    15    1
    35    28    35    1
    36    20    21    1
    37     2     3    1
    38    10    11    1
@<TRIPOS>MOLECULE
*****
 35 38 0 0 0
SMALL
GASTEIGER

@<TRIPOS>ATOM
      1 C         -24.2747   -6.3508  -11.9275 C.3     1  UNL1        0.1484
      2 O         -23.8060   -5.0559  -11.6346 O.3     1  UNL1       -0.3786
      3 H         -23.8768   -4.4983  -12.4500 H       1  UNL1        0.2108
      4 C         -23.2769   -7.1373  -12.7600 C.ar    1  UNL1        0.0069
      5 C         -21.8982   -7.0991  -12.4847 C.ar    1  UNL1       -0.0018
      6 C         -20.9982   -7.7972  -13.2907 C.ar    1  UNL1        0.0011
      7 C         -21.4538   -8.5247  -14.3907 C.ar    1  UNL1        0.0158
      8 C         -22.8264   -8.5698  -14.6925 C.ar    1  UNL1        0.0642
      9 C         -23.7267   -7.8711  -13.8724 C.ar    1  UNL1        0.0139
     10 N         -23.3378   -9.3294  -15.8023 N.pl3   1  UNL1       -0.2188
     11 H         -23.7579   -8.8193  -16.6114 H       1  UNL1        0.1734
     12 S         -23.1450  -11.0443  -15.9814 S.O2    1  UNL1        0.0522
     13 O         -22.5555  -11.3586  -17.3276 O.2     1  UNL1       -0.1545
     14 O         -22.2033  -11.5375  -14.9178 O.2     1  UNL1       -0.1545
     15 C         -24.7375  -11.8477  -15.7928 C.3     1  UNL1        0.1488
     16 C         -24.6283  -13.3189  -15.4060 C.3     1  UNL1        0.0255
     17 C         -25.2824  -13.0115  -14.0655 C.3     1  UNL1        0.0036
     18 C         -25.3984  -11.5433  -14.4522 C.3     1  UNL1        0.0255
     19 C         -25.6761   -6.3401  -12.5710 C.3     1  UNL1        0.1029
     20 N         -26.7345   -6.3882  -11.5488 N.3     1  UNL1       -0.2921
     21 H         -26.3404   -5.9980  -10.6606 H       1  UNL1        0.1234
     22 C         -27.1697   -7.7646  -11.2735 C.3     1  UNL1        0.1166
     23 C         -26.8458   -8.1548   -9.8319 C.3     1  UNL1        0.2224
     24 O         -26.2157   -9.4336   -9.8083 O.3     1  UNL1       -0.4739
     25 C         -19.5577  -10.0586  -10.2560 C.3     1  UNL1        0.0540
     26 C         -20.8759  -10.3665  -10.8846 C.ar    1  UNL1        0.0801
     27 N         -21.0352  -11.1303  -11.9923 N.ar    1  UNL1       -0.1770
     28 N         -22.3372  -11.2393  -12.2347 N.ar    1  UNL1       -0.2760
     29 C         -23.0059  -10.5623  -11.2871 C.ar    1  UNL1        0.0780
     30 C         -24.3828  -10.4222  -11.1343 C.ar    1  UNL1        0.0554
     31 C         -24.8501   -9.6476  -10.0421 C.ar    1  UNL1        0.1401
     32 C         -23.9190   -9.0592   -9.1514 C.ar    1  UNL1        0.0370
     33 C         -22.5348   -9.2407   -9.3267 C.ar    1  UNL1        0.0058
     34 C         -22.1201   -9.9988  -10.4168 C.ar    1  UNL1        0.0324
     35 H         -22.7493  -11.7785  -13.0282 H       1  UNL1        0.1889
@<TRIPOS>BOND
     1    25    26    1
     2    26    27   ar
     3    27    28   ar
     4    28    29   ar
     5    29    30   ar
     6    30    31   ar
     7    31    24    1
     8    24    23    1
     9    23    22    1
    10    22    20    1
    11    20    19    1
    12    19     1    1
    13     1     2    1
    14     1     4    1
    15     4     5   ar
    16     5     6   ar
    17     6     7   ar
    18     7     8   ar
    19     8    10    1
    20    10    12    1
    21    12    13    2
    22    12    14    2
    23    12    15    1
    24    15    16    1
    25    16    17    1
    26    17    18    1
    27     8     9   ar
    28    31    32   ar
    29    32    33   ar
    30    33    34   ar
    31    34    26   ar
    32    34    29   ar
    33     9     4   ar
    34    18    15    1
    35    28    35    1
    36    20    21    1
    37     2     3    1
    38    10    11    1
@<TRIPOS>MOLECULE
*****
 35 38 0 0 0
SMALL
GASTEIGER

@<TRIPOS>ATOM
      1 C         -25.3620   -6.3245  -12.1900 C.3     1  UNL1        0.1484
      2 O         -25.7814   -5.0500  -12.6170 O.3     1  UNL1       -0.3786
      3 H         -25.6483   -4.9810  -13.5959 H       1  UNL1        0.2108
      4 C         -23.8478   -6.4414  -12.1656 C.ar    1  UNL1        0.0069
      5 C         -23.0616   -5.6332  -11.3248 C.ar    1  UNL1       -0.0018
      6 C         -21.6700   -5.7309  -11.3521 C.ar    1  UNL1        0.0011
      7 C         -21.0419   -6.6170  -12.2280 C.ar    1  UNL1        0.0158
      8 C         -21.8058   -7.4281  -13.0856 C.ar    1  UNL1        0.0642
      9 C         -23.2059   -7.3298  -13.0471 C.ar    1  UNL1        0.0139
     10 N         -21.1966   -8.3721  -13.9843 N.pl3   1  UNL1       -0.2188
     11 H         -20.5750   -9.1139  -13.5909 H       1  UNL1        0.1734
     12 S         -21.5632   -8.4838  -15.6765 S.O2    1  UNL1        0.0522
     13 O         -22.4518   -7.3437  -16.0874 O.2     1  UNL1       -0.1545
     14 O         -20.2795   -8.3968  -16.4548 O.2     1  UNL1       -0.1545
     15 C         -22.3637  -10.0534  -16.0123 C.3     1  UNL1        0.1488
     16 C         -21.6573  -11.2407  -15.3662 C.3     1  UNL1        0.0255
     17 C         -22.8730  -11.4775  -14.4802 C.3     1  UNL1        0.0036
     18 C         -23.5828  -10.2966  -15.1284 C.3     1  UNL1        0.0255
     19 C         -26.0121   -7.4629  -13.0022 C.3     1  UNL1        0.1029
     20 N         -26.8015   -8.3544  -12.1364 N.3     1  UNL1       -0.2921
     21 H         -27.6965   -8.5742  -12.6336 H       1  UNL1        0.1234
     22 C         -27.1492   -7.7138  -10.8604 C.3     1  UNL1        0.1166
     23 C         -26.7375   -8.5971   -9.6833 C.3     1  UNL1        0.2224
     24 O         -25.8092   -9.5857  -10.1235 O.3     1  UNL1       -0.4739
     25 C         -19.1072   -9.5489  -10.1673 C.3     1  UNL1        0.0540
     26 C         -20.3447   -9.0214   -9.5208 C.ar    1  UNL1        0.0801
     27 N         -20.3565   -8.0845   -8.5422 N.ar    1  UNL1       -0.1770
     28 N         -21.6232   -7.8135   -8.2455 N.ar    1  UNL1       -0.2760
     29 C         -22.4149   -8.5601   -9.0323 C.ar    1  UNL1        0.0780
     30 C         -23.8062   -8.5876   -9.0809 C.ar    1  UNL1        0.0554
     31 C         -24.4168   -9.4719  -10.0063 C.ar    1  UNL1        0.1401
     32 C         -23.6073  -10.2780  -10.8438 C.ar    1  UNL1        0.0370
     33 C         -22.2035  -10.2070  -10.7801 C.ar    1  UNL1        0.0058
     34 C         -21.6468   -9.3341   -9.8511 C.ar    1  UNL1        0.0324
     35 H         -21.9284   -7.1212   -7.5259 H       1  UNL1        0.1889
@<TRIPOS>BOND
     1    25    26    1
     2    26    27   ar
     3    27    28   ar
     4    28    29   ar
     5    29    30   ar
     6    30    31   ar
     7    31    24    1
     8    24    23    1
     9    23    22    1
    10    22    20    1
    11    20    19    1
    12    19     1    1
    13     1     2    1
    14     1     4    1
    15     4     5   ar
    16     5     6   ar
    17     6     7   ar
    18     7     8   ar
    19     8    10    1
    20    10    12    1
    21    12    13    2
    22    12    14    2
    23    12    15    1
    24    15    16    1
    25    16    17    1
    26    17    18    1
    27     8     9   ar
    28    31    32   ar
    29    32    33   ar
    30    33    34   ar
    31    34    26   ar
    32    34    29   ar
    33     9     4   ar
    34    18    15    1
    35    28    35    1
    36    20    21    1
    37     2     3    1
    38    10    11    1
@<TRIPOS>MOLECULE
*****
 35 38 0 0 0
SMALL
GASTEIGER

@<TRIPOS>ATOM
      1 C         -22.7420   -8.6606   -8.4658 C.3     1  UNL1        0.1484
      2 O         -23.5295   -7.9687   -7.5258 O.3     1  UNL1       -0.3786
      3 H         -24.4403   -7.8511   -7.8966 H       1  UNL1        0.2108
      4 C         -22.3397   -7.7707   -9.6292 C.ar    1  UNL1        0.0069
      5 C         -22.3315   -6.3690   -9.5138 C.ar    1  UNL1       -0.0018
      6 C         -21.9985   -5.5729  -10.6102 C.ar    1  UNL1        0.0011
      7 C         -21.6896   -6.1576  -11.8388 C.ar    1  UNL1        0.0158
      8 C         -21.7010   -7.5563  -11.9820 C.ar    1  UNL1        0.0642
      9 C         -22.0295   -8.3512  -10.8721 C.ar    1  UNL1        0.0139
     10 N         -21.3634   -8.1976  -13.2248 N.pl3   1  UNL1       -0.2188
     11 H         -20.3767   -8.5020  -13.3834 H       1  UNL1        0.1734
     12 S         -22.5241   -8.6718  -14.4241 S.O2    1  UNL1        0.0522
     13 O         -23.6542   -7.6821  -14.4670 O.2     1  UNL1       -0.1545
     14 O         -21.8495   -8.6888  -15.7679 O.2     1  UNL1       -0.1545
     15 C         -23.1426  -10.3114  -14.0420 C.3     1  UNL1        0.1488
     16 C         -24.3006  -10.3027  -13.0495 C.3     1  UNL1        0.0255
     17 C         -25.2267  -10.8440  -14.1304 C.3     1  UNL1        0.0036
     18 C         -24.0706  -10.8599  -15.1212 C.3     1  UNL1        0.0255
     19 C         -23.4067   -9.9666   -8.9459 C.3     1  UNL1        0.1029
     20 N         -24.6806  -10.2064   -8.2480 N.3     1  UNL1       -0.2921
     21 H         -24.6030  -11.1211   -7.7442 H       1  UNL1        0.1234
     22 C         -25.8084  -10.3105   -9.1843 C.3     1  UNL1        0.1166
     23 C         -26.4047   -8.9321   -9.4663 C.3     1  UNL1        0.2224
     24 O         -25.6211   -8.2593  -10.4493 O.3     1  UNL1       -0.4739
     25 C         -27.5178   -4.3570  -15.5576 C.3     1  UNL1        0.0540
     26 C         -27.8621   -5.5286  -14.6993 C.ar    1  UNL1        0.0801
     27 N         -28.9440   -6.3224  -14.8868 N.ar    1  UNL1       -0.1770
     28 N         -28.9057   -7.2932  -13.9802 N.ar    1  UNL1       -0.2760
     29 C         -27.8061   -7.1303  -13.2268 C.ar    1  UNL1        0.0780
     30 C         -27.3546   -7.9227  -12.1746 C.ar    1  UNL1        0.0554
     31 C         -26.1526   -7.5381  -11.5276 C.ar    1  UNL1        0.1401
     32 C         -25.4563   -6.3866  -11.9699 C.ar    1  UNL1        0.0370
     33 C         -25.9333   -5.6226  -13.0509 C.ar    1  UNL1        0.0058
     34 C         -27.1212   -6.0296  -13.6495 C.ar    1  UNL1        0.0324
     35 H         -29.6164   -8.0534  -13.8955 H       1  UNL1        0.1889
@<TRIPOS>BOND
     1    25    26    1
     2    26    27   ar
     3    27    28   ar
     4    28    29   ar
     5    29    30   ar
     6    30    31   ar
     7    31    24    1
     8    24    23    1
     9    23    22    1
    10    22    20    1
    11    20    19    1
    12    19     1    1
    13     1     2    1
    14     1     4    1
    15     4     5   ar
    16     5     6   ar
    17     6     7   ar
    18     7     8   ar
    19     8    10    1
    20    10    12    1
    21    12    13    2
    22    12    14    2
    23    12    15    1
    24    15    16    1
    25    16    17    1
    26    17    18    1
    27     8     9   ar
    28    31    32   ar
    29    32    33   ar
    30    33    34   ar
    31    34    26   ar
    32    34    29   ar
    33     9     4   ar
    34    18    15    1
    35    28    35    1
    36    20    21    1
    37     2     3    1
    38    10    11    1
@<TRIPOS>MOLECULE
*****
 35 38 0 0 0
SMALL
GASTEIGER

@<TRIPOS>ATOM
      1 C         -25.4767  -12.3779  -14.3007 C.3     1  UNL1        0.1484
      2 O         -25.8873  -11.8734  -15.5495 O.3     1  UNL1       -0.3786
      3 H         -25.1973  -12.0926  -16.2253 H       1  UNL1        0.2108
      4 C         -24.3668  -11.5393  -13.6906 C.ar    1  UNL1        0.0069
      5 C         -23.2932  -12.1307  -13.0008 C.ar    1  UNL1       -0.0018
      6 C         -22.3086  -11.3356  -12.4133 C.ar    1  UNL1        0.0011
      7 C         -22.3886   -9.9445  -12.4861 C.ar    1  UNL1        0.0158
      8 C         -23.4578   -9.3296  -13.1612 C.ar    1  UNL1        0.0642
      9 C         -24.4407  -10.1363  -13.7566 C.ar    1  UNL1        0.0139
     10 N         -23.5620   -7.8995  -13.2802 N.pl3   1  UNL1       -0.2188
     11 H         -23.7224   -7.4826  -14.2245 H       1  UNL1        0.1734
     12 S         -23.6210   -6.8106  -11.9308 S.O2    1  UNL1        0.0522
     13 O         -24.3916   -5.5743  -12.2998 O.2     1  UNL1       -0.1545
     14 O         -24.3253   -7.4930  -10.7908 O.2     1  UNL1       -0.1545
     15 C         -21.9514   -6.3824  -11.4348 C.3     1  UNL1        0.1488
     16 C         -21.7528   -4.8862  -11.2154 C.3     1  UNL1        0.0255
     17 C         -21.5000   -5.1403   -9.7353 C.3     1  UNL1        0.0036
     18 C         -21.6913   -6.6351   -9.9532 C.3     1  UNL1        0.0255
     19 C         -25.0989  -13.8717  -14.3625 C.3     1  UNL1        0.1029
     20 N         -24.5155  -14.2223  -15.6679 N.3     1  UNL1       -0.2921
     21 H         -25.2310  -14.7688  -16.2026 H       1  UNL1        0.1234
     22 C         -23.3242  -15.0711  -15.5267 C.3     1  UNL1        0.1166
     23 C         -22.0581  -14.2179  -15.4628 C.3     1  UNL1        0.2224
     24 O         -21.9535  -13.4209  -16.6404 O.3     1  UNL1       -0.4739
     25 C         -23.4913   -6.9274  -17.2650 C.3     1  UNL1        0.0540
     26 C         -22.5533   -7.9271  -16.6747 C.ar    1  UNL1        0.0801
     27 N         -21.5408   -7.6194  -15.8286 N.ar    1  UNL1       -0.1770
     28 N         -20.9524   -8.7524  -15.4598 N.ar    1  UNL1       -0.2760
     29 C         -21.5871   -9.7760  -16.0539 C.ar    1  UNL1        0.0780
     30 C         -21.3252  -11.1387  -15.9390 C.ar    1  UNL1        0.0554
     31 C         -22.1436  -12.0323  -16.6758 C.ar    1  UNL1        0.1401
     32 C         -23.1890  -11.5210  -17.4833 C.ar    1  UNL1        0.0370
     33 C         -23.4363  -10.1379  -17.5577 C.ar    1  UNL1        0.0058
     34 C         -22.6030   -9.2970  -16.8272 C.ar    1  UNL1        0.0324
     35 H         -20.1415   -8.8133  -14.8049 H       1  UNL1        0.1889
@<TRIPOS>BOND
     1    25    26    1
     2    26    27   ar
     3    27    28   ar
     4    28    29   ar
     5    29    30   ar
     6    30    31   ar
     7    31    24    1
     8    24    23    1
     9    23    22    1
    10    22    20    1
    11    20    19    1
    12    19     1    1
    13     1     2    1
    14     1     4    1
    15     4     5   ar
    16     5     6   ar
    17     6     7   ar
    18     7     8   ar
    19     8    10    1
    20    10    12    1
    21    12    13    2
    22    12    14    2
    23    12    15    1
    24    15    16    1
    25    16    17    1
    26    17    18    1
    27     8     9   ar
    28    31    32   ar
    29    32    33   ar
    30    33    34   ar
    31    34    26   ar
    32    34    29   ar
    33     9     4   ar
    34    18    15    1
    35    28    35    1
    36    20    21    1
    37     2     3    1
    38    10    11    1
@<TRIPOS>MOLECULE
*****
 35 38 0 0 0
SMALL
GASTEIGER

@<TRIPOS>ATOM
      1 C         -23.5786   -9.5236   -9.1966 C.3     1  UNL1        0.1484
      2 O         -23.2655   -8.1511   -9.1746 O.3     1  UNL1       -0.3786
      3 H         -23.7517   -7.7005   -9.9104 H       1  UNL1        0.2108
      4 C         -22.8752  -10.2448  -10.3335 C.ar    1  UNL1        0.0069
      5 C         -21.4744  -10.2293  -10.4586 C.ar    1  UNL1       -0.0018
      6 C         -20.8554  -10.8644  -11.5358 C.ar    1  UNL1        0.0011
      7 C         -21.6200  -11.5046  -12.5117 C.ar    1  UNL1        0.0158
      8 C         -23.0225  -11.5248  -12.4142 C.ar    1  UNL1        0.0642
      9 C         -23.6379  -10.8903  -11.3233 C.ar    1  UNL1        0.0139
     10 N         -23.8441  -12.1962  -13.3859 N.pl3   1  UNL1       -0.2188
     11 H         -24.6197  -12.8111  -13.0518 H       1  UNL1        0.1734
     12 S         -23.7566  -11.9173  -15.0961 S.O2    1  UNL1        0.0522
     13 O         -24.8981  -11.0438  -15.5346 O.2     1  UNL1       -0.1545
     14 O         -22.4654  -11.2108  -15.4041 O.2     1  UNL1       -0.1545
     15 C         -23.8027  -13.4879  -15.9609 C.3     1  UNL1        0.1488
     16 C         -22.5085  -14.2847  -15.8330 C.3     1  UNL1        0.0255
     17 C         -23.2518  -15.3600  -15.0516 C.3     1  UNL1        0.0036
     18 C         -24.5464  -14.5694  -15.1839 C.3     1  UNL1        0.0255
     19 C         -25.0988   -9.7825   -9.2068 C.3     1  UNL1        0.1029
     20 N         -25.8555   -8.5222   -9.2877 N.3     1  UNL1       -0.2921
     21 H         -26.5648   -8.5240   -8.5173 H       1  UNL1        0.1234
     22 C         -26.5822   -8.3988  -10.5589 C.3     1  UNL1        0.1166
     23 C         -26.0072   -7.2606  -11.4010 C.3     1  UNL1        0.2224
     24 O         -24.5832   -7.3328  -11.4018 O.3     1  UNL1       -0.4739
     25 C         -20.2226   -8.2230  -16.4130 C.3     1  UNL1        0.0540
     26 C         -21.6588   -8.2183  -16.0067 C.ar    1  UNL1        0.0801
     27 N         -22.6851   -8.5642  -16.8209 N.ar    1  UNL1       -0.1770
     28 N         -23.8102   -8.4998  -16.1167 N.ar    1  UNL1       -0.2760
     29 C         -23.5079   -8.1275  -14.8624 C.ar    1  UNL1        0.0780
     30 C         -24.3685   -7.9529  -13.7818 C.ar    1  UNL1        0.0554
     31 C         -23.8023   -7.5497  -12.5457 C.ar    1  UNL1        0.1401
     32 C         -22.4034   -7.3500  -12.4479 C.ar    1  UNL1        0.0370
     33 C         -21.5630   -7.5567  -13.5573 C.ar    1  UNL1        0.0058
     34 C         -22.1615   -7.9415  -14.7526 C.ar    1  UNL1        0.0324
     35 H         -24.7587   -8.7199  -16.4936 H       1  UNL1        0.1889
@<TRIPOS>BOND
     1    25    26    1
     2    26    27   ar
     3    27    28   ar
     4    28    29   ar
     5    29    30   ar
     6    30    31   ar
     7    31    24    1
     8    24    23    1
     9    23    22    1
    10    22    20    1
    11    20    19    1
    12    19     1    1
    13     1     2    1
    14     1     4    1
    15     4     5   ar
    16     5     6   ar
    17     6     7   ar
    18     7     8   ar
    19     8    10    1
    20    10    12    1
    21    12    13    2
    22    12    14    2
    23    12    15    1
    24    15    16    1
    25    16    17    1
    26    17    18    1
    27     8     9   ar
    28    31    32   ar
    29    32    33   ar
    30    33    34   ar
    31    34    26   ar
    32    34    29   ar
    33     9     4   ar
    34    18    15    1
    35    28    35    1
    36    20    21    1
    37     2     3    1
    38    10    11    1
