@<TRIPOS>MOLECULE
*****
 46 51 0 0 0
SMALL
GASTEIGER

@<TRIPOS>ATOM
      1 C         -63.7289  -51.7823  -24.0910 C.ar    1  UNL1        0.0702
      2 C         -63.2339  -52.6187  -23.0778 C.ar    1  UNL1        0.0191
      3 C         -63.9887  -53.7061  -22.6354 C.ar    1  UNL1        0.0356
      4 C         -65.2546  -53.9441  -23.1933 C.ar    1  UNL1        0.1318
      5 N         -65.7150  -53.1174  -24.1730 N.ar    1  UNL1       -0.2279
      6 C         -64.9974  -52.0531  -24.6199 C.ar    1  UNL1        0.1149
      7 N         -66.0527  -55.0680  -22.7767 N.pl3   1  UNL1       -0.2932
      8 C         -66.8195  -55.8633  -23.7461 C.3     1  UNL1        0.0923
      9 C         -68.2599  -56.1015  -23.2548 C.3     1  UNL1        0.0252
     10 C         -68.3981  -56.0719  -21.7108 C.3     1  UNL1        0.0472
     11 C         -67.0864  -56.5178  -21.0386 C.3     1  UNL1        0.0252
     12 C         -65.9574  -55.5338  -21.3851 C.3     1  UNL1        0.0923
     13 C         -69.5864  -56.9195  -21.2160 C.3     1  UNL1        0.2054
     14 O         -70.6620  -56.0827  -20.7821 O.3     1  UNL1       -0.4755
     15 C         -70.8986  -55.6384  -19.4706 C.ar    1  UNL1        0.1388
     16 C         -70.3610  -56.2758  -18.3367 C.ar    1  UNL1        0.0369
     17 C         -70.6267  -55.7781  -17.0600 C.ar    1  UNL1        0.0033
     18 C         -71.4240  -54.6439  -16.8979 C.ar    1  UNL1        0.0066
     19 C         -71.9695  -53.9912  -18.0165 C.ar    1  UNL1        0.0785
     20 C         -71.6866  -54.4924  -19.3006 C.ar    1  UNL1        0.0433
     21 C         -72.8088  -52.7822  -17.8318 C.2     1  UNL1        0.3381
     22 O         -73.4152  -52.6031  -16.7420 O.2     1  UNL1       -0.2451
     23 O         -72.9636  -51.8338  -18.8423 O.3     1  UNL1       -0.4771
     24 H         -72.5931  -51.9645  -19.7746 H       1  UNL1        0.2954
     25 C         -63.5967  -49.3816  -24.8926 C.2     1  UNL1        0.2839
     26 O         -64.6894  -49.0465  -24.3610 O.2     1  UNL1       -0.2665
     27 N         -62.9916  -50.6390  -24.5566 N.am    1  UNL1       -0.2766
     28 H         -61.9482  -50.6899  -24.5470 H       1  UNL1        0.1553
     29 C         -60.9709  -45.6610  -28.8154 C.ar    1  UNL1        0.0002
     30 C         -60.4411  -45.1543  -27.5976 C.ar    1  UNL1        0.0031
     31 C         -60.7917  -45.7305  -26.3641 C.ar    1  UNL1        0.0375
     32 C         -61.6705  -46.8081  -26.3733 C.ar    1  UNL1        0.1452
     33 O         -62.1171  -47.4809  -25.3410 O.2     1  UNL1       -0.4492
     34 C         -62.9232  -48.4269  -25.7904 C.ar    1  UNL1        0.1946
     35 C         -63.0218  -48.3488  -27.1854 C.ar    1  UNL1        0.0202
     36 C         -63.8422  -49.1945  -28.1119 C.3     1  UNL1        0.0345
     37 C         -62.1890  -47.3053  -27.5378 C.ar    1  UNL1        0.0337
     38 C         -61.8632  -46.7594  -28.7796 C.ar    1  UNL1        0.0028
     39 C         -59.8769  -43.8715  -32.5788 C.ar    1  UNL1        0.1387
     40 C         -61.1683  -43.7117  -32.0659 C.ar    1  UNL1        0.0369
     41 C         -61.5259  -44.2907  -30.8453 C.ar    1  UNL1        0.0031
     42 C         -60.5926  -45.0452  -30.1126 C.ar    1  UNL1        0.0002
     43 C         -59.2946  -45.2056  -30.6290 C.ar    1  UNL1        0.0031
     44 C         -58.9382  -44.6248  -31.8497 C.ar    1  UNL1        0.0369
     45 C         -60.2899  -43.4914  -35.0150 C.3     1  UNL1        0.2525
     46 O         -59.5682  -43.2699  -33.8078 O.3     1  UNL1       -0.4714
@<TRIPOS>BOND
     1    45    46    1
     2    46    39    1
     3    39    40   ar
     4    40    41   ar
     5    41    42   ar
     6    42    29    1
     7    29    30   ar
     8    30    31   ar
     9    31    32   ar
    10    32    33   ar
    11    33    34   ar
    12    34    25    1
    13    25    26    2
    14    25    27   am
    15    27     1    1
    16     1     2   ar
    17     2     3   ar
    18     3     4   ar
    19     4     7    1
    20     7     8    1
    21     8     9    1
    22     9    10    1
    23    10    13    1
    24    13    14    1
    25    14    15    1
    26    15    16   ar
    27    16    17   ar
    28    17    18   ar
    29    18    19   ar
    30    19    21    1
    31    21    22    2
    32    21    23    1
    33    19    20   ar
    34    10    11    1
    35    11    12    1
    36     4     5   ar
    37     5     6   ar
    38    34    35   ar
    39    35    36    1
    40    35    37   ar
    41    37    38   ar
    42    42    43   ar
    43    43    44   ar
    44    44    39   ar
    45    38    29   ar
    46    37    32   ar
    47     6     1   ar
    48    12     7    1
    49    20    15   ar
    50    27    28    1
    51    23    24    1
@<TRIPOS>MOLECULE
*****
 46 51 0 0 0
SMALL
GASTEIGER

@<TRIPOS>ATOM
      1 C         -64.5207  -53.2264  -23.4292 C.ar    1  UNL1        0.0702
      2 C         -64.0834  -54.2611  -22.5871 C.ar    1  UNL1        0.0191
      3 C         -64.9965  -55.1900  -22.0857 C.ar    1  UNL1        0.0356
      4 C         -66.3569  -55.0692  -22.4099 C.ar    1  UNL1        0.1318
      5 N         -66.7579  -54.0554  -23.2264 N.ar    1  UNL1       -0.2279
      6 C         -65.8868  -53.1400  -23.7268 C.ar    1  UNL1        0.1149
      7 N         -67.3245  -56.0206  -21.9281 N.pl3   1  UNL1       -0.2932
      8 C         -68.2761  -56.6724  -22.8391 C.3     1  UNL1        0.0923
      9 C         -69.7069  -56.6335  -22.2698 C.3     1  UNL1        0.0252
     10 C         -69.7535  -56.5594  -20.7218 C.3     1  UNL1        0.0472
     11 C         -68.5118  -57.2319  -20.1075 C.3     1  UNL1        0.0252
     12 C         -67.2414  -56.4784  -20.5330 C.3     1  UNL1        0.0923
     13 C         -71.0490  -57.1660  -20.1483 C.3     1  UNL1        0.2054
     14 O         -72.0149  -56.1450  -19.8839 O.3     1  UNL1       -0.4755
     15 C         -72.1499  -55.4099  -18.6944 C.ar    1  UNL1        0.1388
     16 C         -71.8143  -55.9295  -17.4301 C.ar    1  UNL1        0.0369
     17 C         -71.9631  -55.1432  -16.2864 C.ar    1  UNL1        0.0033
     18 C         -72.4421  -53.8361  -16.3876 C.ar    1  UNL1        0.0066
     19 C         -72.7815  -53.2971  -17.6402 C.ar    1  UNL1        0.0785
     20 C         -72.6170  -54.0924  -18.7894 C.ar    1  UNL1        0.0433
     21 C         -73.2821  -51.9041  -17.7357 C.2     1  UNL1        0.3381
     22 O         -73.9799  -51.5574  -18.7258 O.2     1  UNL1       -0.2451
     23 O         -72.9891  -50.9496  -16.7622 O.3     1  UNL1       -0.4771
     24 H         -72.3507  -51.1281  -15.9980 H       1  UNL1        0.2954
     25 C         -62.7053  -51.4832  -23.1305 C.2     1  UNL1        0.2839
     26 O         -62.3020  -51.9568  -22.0342 O.2     1  UNL1       -0.2665
     27 N         -63.6144  -52.2370  -23.9463 N.am    1  UNL1       -0.2766
     28 H         -63.5351  -52.1373  -24.9831 H       1  UNL1        0.1553
     29 C         -60.7467  -46.1942  -25.2083 C.ar    1  UNL1        0.0002
     30 C         -59.6696  -46.5385  -24.3470 C.ar    1  UNL1        0.0031
     31 C         -59.6882  -47.7379  -23.6138 C.ar    1  UNL1        0.0375
     32 C         -60.7902  -48.5737  -23.7572 C.ar    1  UNL1        0.1452
     33 O         -60.9981  -49.7262  -23.1690 O.2     1  UNL1       -0.4492
     34 C         -62.1620  -50.1919  -23.5873 C.ar    1  UNL1        0.1946
     35 C         -62.7496  -49.2829  -24.4762 C.ar    1  UNL1        0.0202
     36 C         -64.0750  -49.3795  -25.1696 C.3     1  UNL1        0.0345
     37 C         -61.8345  -48.2543  -24.5817 C.ar    1  UNL1        0.0337
     38 C         -61.8499  -47.0736  -25.3245 C.ar    1  UNL1        0.0028
     39 C         -60.6580  -42.5148  -27.4481 C.ar    1  UNL1        0.1387
     40 C         -60.5929  -43.7476  -28.1057 C.ar    1  UNL1        0.0369
     41 C         -60.6219  -44.9427  -27.3818 C.ar    1  UNL1        0.0031
     42 C         -60.7157  -44.9253  -25.9789 C.ar    1  UNL1        0.0002
     43 C         -60.7809  -43.6856  -25.3185 C.ar    1  UNL1        0.0031
     44 C         -60.7529  -42.4910  -26.0443 C.ar    1  UNL1        0.0369
     45 C         -61.6955  -40.8969  -29.0468 C.3     1  UNL1        0.2525
     46 O         -60.6258  -41.3443  -28.2205 O.3     1  UNL1       -0.4714
@<TRIPOS>BOND
     1    45    46    1
     2    46    39    1
     3    39    40   ar
     4    40    41   ar
     5    41    42   ar
     6    42    29    1
     7    29    30   ar
     8    30    31   ar
     9    31    32   ar
    10    32    33   ar
    11    33    34   ar
    12    34    25    1
    13    25    26    2
    14    25    27   am
    15    27     1    1
    16     1     2   ar
    17     2     3   ar
    18     3     4   ar
    19     4     7    1
    20     7     8    1
    21     8     9    1
    22     9    10    1
    23    10    13    1
    24    13    14    1
    25    14    15    1
    26    15    16   ar
    27    16    17   ar
    28    17    18   ar
    29    18    19   ar
    30    19    21    1
    31    21    22    2
    32    21    23    1
    33    19    20   ar
    34    10    11    1
    35    11    12    1
    36     4     5   ar
    37     5     6   ar
    38    34    35   ar
    39    35    36    1
    40    35    37   ar
    41    37    38   ar
    42    42    43   ar
    43    43    44   ar
    44    44    39   ar
    45    38    29   ar
    46    37    32   ar
    47     6     1   ar
    48    12     7    1
    49    20    15   ar
    50    27    28    1
    51    23    24    1
@<TRIPOS>MOLECULE
*****
 46 51 0 0 0
SMALL
GASTEIGER

@<TRIPOS>ATOM
      1 C         -64.7123  -53.0679  -23.5113 C.ar    1  UNL1        0.0702
      2 C         -64.2702  -54.0915  -22.6582 C.ar    1  UNL1        0.0191
      3 C         -65.1824  -55.0057  -22.1289 C.ar    1  UNL1        0.0356
      4 C         -66.5463  -54.8810  -22.4364 C.ar    1  UNL1        0.1318
      5 N         -66.9519  -53.8782  -23.2640 N.ar    1  UNL1       -0.2279
      6 C         -66.0818  -52.9771  -23.7915 C.ar    1  UNL1        0.1149
      7 N         -67.5135  -55.8177  -21.9255 N.pl3   1  UNL1       -0.2932
      8 C         -68.6910  -56.2082  -22.7137 C.3     1  UNL1        0.0923
      9 C         -69.9738  -56.1512  -21.8629 C.3     1  UNL1        0.0252
     10 C         -69.7189  -56.3569  -20.3474 C.3     1  UNL1        0.0472
     11 C         -68.4741  -57.2342  -20.1194 C.3     1  UNL1        0.0252
     12 C         -67.2251  -56.5277  -20.6703 C.3     1  UNL1        0.0923
     13 C         -70.9468  -56.9445  -19.6247 C.3     1  UNL1        0.2054
     14 O         -71.0390  -56.4422  -18.2888 O.3     1  UNL1       -0.4755
     15 C         -71.6635  -55.2503  -17.8852 C.ar    1  UNL1        0.1388
     16 C         -72.1708  -54.3044  -18.7957 C.ar    1  UNL1        0.0369
     17 C         -72.7893  -53.1432  -18.3295 C.ar    1  UNL1        0.0033
     18 C         -72.9127  -52.9127  -16.9584 C.ar    1  UNL1        0.0066
     19 C         -72.4147  -53.8448  -16.0320 C.ar    1  UNL1        0.0785
     20 C         -71.8034  -55.0184  -16.5106 C.ar    1  UNL1        0.0433
     21 C         -72.5587  -53.5922  -14.5775 C.2     1  UNL1        0.3381
     22 O         -71.6843  -54.0226  -13.7790 O.2     1  UNL1       -0.2451
     23 O         -73.6513  -52.8998  -14.0565 O.3     1  UNL1       -0.4771
     24 H         -74.4401  -52.6186  -14.6242 H       1  UNL1        0.2954
     25 C         -62.8183  -51.3995  -23.2815 C.2     1  UNL1        0.2839
     26 O         -62.3606  -51.9235  -22.2305 O.2     1  UNL1       -0.2665
     27 N         -63.8068  -52.0933  -24.0572 N.am    1  UNL1       -0.2766
     28 H         -63.7931  -51.9614  -25.0934 H       1  UNL1        0.1553
     29 C         -60.7931  -46.1293  -25.3430 C.ar    1  UNL1        0.0002
     30 C         -59.7333  -46.4765  -24.4616 C.ar    1  UNL1        0.0031
     31 C         -59.7717  -47.6731  -23.7246 C.ar    1  UNL1        0.0375
     32 C         -60.8758  -48.5032  -23.8846 C.ar    1  UNL1        0.1452
     33 O         -61.1007  -49.6523  -23.2960 O.2     1  UNL1       -0.4492
     34 C         -62.2597  -50.1130  -23.7332 C.ar    1  UNL1        0.1946
     35 C         -62.8262  -49.2038  -24.6356 C.ar    1  UNL1        0.0202
     36 C         -64.1397  -49.2954  -25.3520 C.3     1  UNL1        0.0345
     37 C         -61.9035  -48.1809  -24.7285 C.ar    1  UNL1        0.0337
     38 C         -61.8991  -47.0028  -25.4756 C.ar    1  UNL1        0.0028
     39 C         -60.6416  -42.4540  -27.5862 C.ar    1  UNL1        0.1387
     40 C         -60.7545  -42.4304  -26.1922 C.ar    1  UNL1        0.0369
     41 C         -60.8035  -43.6209  -25.4620 C.ar    1  UNL1        0.0031
     42 C         -60.7412  -44.8633  -26.1175 C.ar    1  UNL1        0.0002
     43 C         -60.6279  -44.8862  -27.5189 C.ar    1  UNL1        0.0031
     44 C         -60.5779  -43.6943  -28.2478 C.ar    1  UNL1        0.0369
     45 C         -61.5921  -40.7852  -29.1868 C.3     1  UNL1        0.2525
     46 O         -60.5960  -41.2314  -28.2724 O.3     1  UNL1       -0.4714
@<TRIPOS>BOND
     1    45    46    1
     2    46    39    1
     3    39    40   ar
     4    40    41   ar
     5    41    42   ar
     6    42    29    1
     7    29    30   ar
     8    30    31   ar
     9    31    32   ar
    10    32    33   ar
    11    33    34   ar
    12    34    25    1
    13    25    26    2
    14    25    27   am
    15    27     1    1
    16     1     2   ar
    17     2     3   ar
    18     3     4   ar
    19     4     7    1
    20     7     8    1
    21     8     9    1
    22     9    10    1
    23    10    13    1
    24    13    14    1
    25    14    15    1
    26    15    16   ar
    27    16    17   ar
    28    17    18   ar
    29    18    19   ar
    30    19    21    1
    31    21    22    2
    32    21    23    1
    33    19    20   ar
    34    10    11    1
    35    11    12    1
    36     4     5   ar
    37     5     6   ar
    38    34    35   ar
    39    35    36    1
    40    35    37   ar
    41    37    38   ar
    42    42    43   ar
    43    43    44   ar
    44    44    39   ar
    45    38    29   ar
    46    37    32   ar
    47     6     1   ar
    48    12     7    1
    49    20    15   ar
    50    27    28    1
    51    23    24    1
@<TRIPOS>MOLECULE
*****
 46 51 0 0 0
SMALL
GASTEIGER

@<TRIPOS>ATOM
      1 C         -63.9331  -51.4751  -23.7629 C.ar    1  UNL1        0.0702
      2 C         -64.6912  -50.7436  -24.6909 C.ar    1  UNL1        0.0191
      3 C         -64.0757  -49.7882  -25.5010 C.ar    1  UNL1        0.0356
      4 C         -62.6995  -49.5474  -25.3657 C.ar    1  UNL1        0.1318
      5 N         -61.9852  -50.2675  -24.4565 N.ar    1  UNL1       -0.2279
      6 C         -62.5630  -51.2031  -23.6577 C.ar    1  UNL1        0.1149
      7 N         -62.0266  -48.5844  -26.1983 N.pl3   1  UNL1       -0.2932
      8 C         -60.7067  -48.0488  -25.8356 C.3     1  UNL1        0.0923
      9 C         -60.6696  -46.5157  -25.9802 C.3     1  UNL1        0.0252
     10 C         -61.6751  -45.9699  -27.0267 C.3     1  UNL1        0.0472
     11 C         -61.9357  -47.0151  -28.1272 C.3     1  UNL1        0.0252
     12 C         -62.5893  -48.2665  -27.5193 C.3     1  UNL1        0.0923
     13 C         -61.2128  -44.6319  -27.6362 C.3     1  UNL1        0.2054
     14 O         -60.1464  -44.8386  -28.5665 O.3     1  UNL1       -0.4755
     15 C         -60.1644  -44.5380  -29.9387 C.ar    1  UNL1        0.1388
     16 C         -59.0833  -44.8115  -30.7975 C.ar    1  UNL1        0.0369
     17 C         -59.1681  -44.4964  -32.1546 C.ar    1  UNL1        0.0033
     18 C         -60.3255  -43.9116  -32.6710 C.ar    1  UNL1        0.0066
     19 C         -61.4173  -43.6315  -31.8316 C.ar    1  UNL1        0.0785
     20 C         -61.3279  -43.9634  -30.4670 C.ar    1  UNL1        0.0433
     21 C         -62.6447  -43.0170  -32.3935 C.2     1  UNL1        0.3381
     22 O         -62.7503  -42.8587  -33.6390 O.2     1  UNL1       -0.2451
     23 O         -63.6916  -42.5887  -31.5780 O.3     1  UNL1       -0.4771
     24 H         -63.6313  -42.5879  -30.5681 H       1  UNL1        0.2954
     25 C         -65.4430  -53.4672  -23.3442 C.2     1  UNL1        0.2839
     26 O         -65.3953  -53.8715  -24.5371 O.2     1  UNL1       -0.2665
     27 N         -64.5349  -52.4506  -22.8946 N.am    1  UNL1       -0.2766
     28 H         -64.2114  -52.4913  -21.9022 H       1  UNL1        0.1553
     29 C         -69.5295  -55.9325  -19.6905 C.ar    1  UNL1        0.0002
     30 C         -68.3383  -56.4710  -19.1324 C.ar    1  UNL1        0.0031
     31 C         -67.0814  -56.1628  -19.6818 C.ar    1  UNL1        0.0375
     32 C         -67.0409  -55.3175  -20.7853 C.ar    1  UNL1        0.1452
     33 O         -65.9802  -54.9098  -21.4381 O.2     1  UNL1       -0.4492
     34 C         -66.3841  -54.1148  -22.4136 C.ar    1  UNL1        0.1946
     35 C         -67.7815  -54.0203  -22.4062 C.ar    1  UNL1        0.0202
     36 C         -68.6705  -53.2595  -23.3432 C.3     1  UNL1        0.0345
     37 C         -68.1796  -54.7930  -21.3335 C.ar    1  UNL1        0.0337
     38 C         -69.4432  -55.0764  -20.8146 C.ar    1  UNL1        0.0028
     39 C         -73.3668  -56.8950  -17.9843 C.ar    1  UNL1        0.1387
     40 C         -73.2476  -56.6133  -19.3492 C.ar    1  UNL1        0.0369
     41 C         -72.0041  -56.3011  -19.9055 C.ar    1  UNL1        0.0031
     42 C         -70.8515  -56.2640  -19.1010 C.ar    1  UNL1        0.0002
     43 C         -70.9721  -56.5471  -17.7290 C.ar    1  UNL1        0.0031
     44 C         -72.2166  -56.8602  -17.1743 C.ar    1  UNL1        0.0369
     45 C         -75.2450  -56.5363  -16.3738 C.3     1  UNL1        0.2525
     46 O         -74.6371  -57.2030  -17.4753 O.3     1  UNL1       -0.4714
@<TRIPOS>BOND
     1    45    46    1
     2    46    39    1
     3    39    40   ar
     4    40    41   ar
     5    41    42   ar
     6    42    29    1
     7    29    30   ar
     8    30    31   ar
     9    31    32   ar
    10    32    33   ar
    11    33    34   ar
    12    34    25    1
    13    25    26    2
    14    25    27   am
    15    27     1    1
    16     1     2   ar
    17     2     3   ar
    18     3     4   ar
    19     4     7    1
    20     7     8    1
    21     8     9    1
    22     9    10    1
    23    10    13    1
    24    13    14    1
    25    14    15    1
    26    15    16   ar
    27    16    17   ar
    28    17    18   ar
    29    18    19   ar
    30    19    21    1
    31    21    22    2
    32    21    23    1
    33    19    20   ar
    34    10    11    1
    35    11    12    1
    36     4     5   ar
    37     5     6   ar
    38    34    35   ar
    39    35    36    1
    40    35    37   ar
    41    37    38   ar
    42    42    43   ar
    43    43    44   ar
    44    44    39   ar
    45    38    29   ar
    46    37    32   ar
    47     6     1   ar
    48    12     7    1
    49    20    15   ar
    50    27    28    1
    51    23    24    1
@<TRIPOS>MOLECULE
*****
 46 51 0 0 0
SMALL
GASTEIGER

@<TRIPOS>ATOM
      1 C         -61.5317  -44.7989  -22.7039 C.ar    1  UNL1        0.0702
      2 C         -60.6433  -45.6123  -21.9827 C.ar    1  UNL1        0.0191
      3 C         -60.6217  -46.9909  -22.1996 C.ar    1  UNL1        0.0356
      4 C         -61.5094  -47.5608  -23.1257 C.ar    1  UNL1        0.1318
      5 N         -62.3642  -46.7519  -23.8114 N.ar    1  UNL1       -0.2279
      6 C         -62.4024  -45.4072  -23.6172 C.ar    1  UNL1        0.1149
      7 N         -61.5016  -48.9762  -23.3907 N.pl3   1  UNL1       -0.2932
      8 C         -62.2034  -49.5411  -24.5521 C.3     1  UNL1        0.0923
      9 C         -63.0458  -50.7668  -24.1508 C.3     1  UNL1        0.0252
     10 C         -62.5026  -51.5067  -22.9013 C.3     1  UNL1        0.0472
     11 C         -60.9770  -51.3323  -22.7863 C.3     1  UNL1        0.0252
     12 C         -60.6313  -49.8478  -22.5872 C.3     1  UNL1        0.0923
     13 C         -62.8885  -52.9989  -22.8944 C.3     1  UNL1        0.2054
     14 O         -64.1919  -53.1895  -23.4513 O.3     1  UNL1       -0.4755
     15 C         -65.1955  -54.0396  -22.9578 C.ar    1  UNL1        0.1388
     16 C         -64.9271  -55.1321  -22.1119 C.ar    1  UNL1        0.0369
     17 C         -65.9715  -55.9335  -21.6480 C.ar    1  UNL1        0.0033
     18 C         -67.2891  -55.6563  -22.0160 C.ar    1  UNL1        0.0066
     19 C         -67.5796  -54.5696  -22.8583 C.ar    1  UNL1        0.0785
     20 C         -66.5220  -53.7596  -23.3116 C.ar    1  UNL1        0.0433
     21 C         -68.9845  -54.2805  -23.2360 C.2     1  UNL1        0.3381
     22 O         -69.9118  -54.5064  -22.4134 O.2     1  UNL1       -0.2451
     23 O         -69.3187  -53.7760  -24.4923 O.3     1  UNL1       -0.4771
     24 H         -68.6408  -53.6702  -25.2357 H       1  UNL1        0.2954
     25 C         -61.4128  -42.7524  -21.2135 C.2     1  UNL1        0.2839
     26 O         -60.7210  -43.3232  -20.3278 O.2     1  UNL1       -0.2665
     27 N         -61.6000  -43.3784  -22.4915 N.am    1  UNL1       -0.2766
     28 H         -61.6822  -42.7597  -23.3291 H       1  UNL1        0.1553
     29 C         -63.8742  -37.4090  -19.9822 C.ar    1  UNL1        0.0002
     30 C         -62.6657  -36.9903  -20.6024 C.ar    1  UNL1        0.0031
     31 C         -61.7321  -37.9315  -21.0704 C.ar    1  UNL1        0.0375
     32 C         -62.0273  -39.2805  -20.9074 C.ar    1  UNL1        0.1452
     33 O         -61.2972  -40.3058  -21.2725 O.2     1  UNL1       -0.4492
     34 C         -61.9467  -41.4070  -20.9378 C.ar    1  UNL1        0.1946
     35 C         -63.1507  -41.0780  -20.3022 C.ar    1  UNL1        0.0202
     36 C         -64.1855  -41.9986  -19.7292 C.3     1  UNL1        0.0345
     37 C         -63.1861  -39.6977  -20.3112 C.ar    1  UNL1        0.0337
     38 C         -64.1352  -38.7926  -19.8357 C.ar    1  UNL1        0.0028
     39 C         -66.7197  -34.5014  -18.5640 C.ar    1  UNL1        0.1387
     40 C         -67.0982  -35.4641  -19.5054 C.ar    1  UNL1        0.0369
     41 C         -66.1775  -36.4087  -19.9670 C.ar    1  UNL1        0.0031
     42 C         -64.8537  -36.4060  -19.4929 C.ar    1  UNL1        0.0002
     43 C         -64.4738  -35.4377  -18.5466 C.ar    1  UNL1        0.0031
     44 C         -65.3965  -34.4941  -18.0852 C.ar    1  UNL1        0.0369
     45 C         -69.0881  -33.7669  -18.2453 C.3     1  UNL1        0.2525
     46 O         -67.6815  -33.5759  -18.1326 O.3     1  UNL1       -0.4714
@<TRIPOS>BOND
     1    45    46    1
     2    46    39    1
     3    39    40   ar
     4    40    41   ar
     5    41    42   ar
     6    42    29    1
     7    29    30   ar
     8    30    31   ar
     9    31    32   ar
    10    32    33   ar
    11    33    34   ar
    12    34    25    1
    13    25    26    2
    14    25    27   am
    15    27     1    1
    16     1     2   ar
    17     2     3   ar
    18     3     4   ar
    19     4     7    1
    20     7     8    1
    21     8     9    1
    22     9    10    1
    23    10    13    1
    24    13    14    1
    25    14    15    1
    26    15    16   ar
    27    16    17   ar
    28    17    18   ar
    29    18    19   ar
    30    19    21    1
    31    21    22    2
    32    21    23    1
    33    19    20   ar
    34    10    11    1
    35    11    12    1
    36     4     5   ar
    37     5     6   ar
    38    34    35   ar
    39    35    36    1
    40    35    37   ar
    41    37    38   ar
    42    42    43   ar
    43    43    44   ar
    44    44    39   ar
    45    38    29   ar
    46    37    32   ar
    47     6     1   ar
    48    12     7    1
    49    20    15   ar
    50    27    28    1
    51    23    24    1
