@<TRIPOS>MOLECULE
*****
 46 51 0 0 0
SMALL
GASTEIGER

@<TRIPOS>ATOM
      1 C           7.9452   77.4335   22.4463 C.ar    1  UNL1        0.0702
      2 C           7.4258   78.0036   21.2782 C.ar    1  UNL1        0.0191
      3 C           6.5235   77.2902   20.4875 C.ar    1  UNL1        0.0356
      4 C           6.1501   75.9885   20.8624 C.ar    1  UNL1        0.1318
      5 N           6.6987   75.4427   21.9838 N.ar    1  UNL1       -0.2279
      6 C           7.5758   76.1189   22.7706 C.ar    1  UNL1        0.1149
      7 N           5.1936   75.2308   20.0894 N.pl3   1  UNL1       -0.2932
      8 C           4.6284   75.7740   18.8421 C.3     1  UNL1        0.0923
      9 C           3.2311   75.1917   18.5572 C.3     1  UNL1        0.0252
     10 C           2.4249   74.9937   19.8607 C.3     1  UNL1        0.0472
     11 C           3.1639   74.0296   20.8316 C.3     1  UNL1        0.0252
     12 C           4.6797   73.9474   20.5850 C.3     1  UNL1        0.0923
     13 C           2.0800   76.3565   20.5044 C.3     1  UNL1        0.2054
     14 O           3.1133   76.7875   21.3949 O.3     1  UNL1       -0.4755
     15 C           2.9750   77.0818   22.7642 C.ar    1  UNL1        0.1388
     16 C           1.9401   77.8861   23.2839 C.ar    1  UNL1        0.0369
     17 C           1.8651   78.1379   24.6549 C.ar    1  UNL1        0.0033
     18 C           2.8132   77.5952   25.5236 C.ar    1  UNL1        0.0066
     19 C           3.8543   76.7930   25.0264 C.ar    1  UNL1        0.0785
     20 C           3.9243   76.5450   23.6440 C.ar    1  UNL1        0.0433
     21 C           4.8647   76.2166   25.9410 C.2     1  UNL1        0.3381
     22 O           6.0832   76.5167   25.8174 O.2     1  UNL1       -0.2451
     23 O           4.4789   75.3359   26.9483 O.3     1  UNL1       -0.4771
     24 H           5.1627   74.9357   27.5797 H       1  UNL1        0.2954
     25 C          10.3082   78.0579   23.1268 C.2     1  UNL1        0.2839
     26 O          10.8138   77.1052   22.4745 O.2     1  UNL1       -0.2665
     27 N           8.8812   78.1754   23.2469 N.am    1  UNL1       -0.2766
     28 H           8.5002   78.7674   24.0195 H       1  UNL1        0.1553
     29 C           9.5302   81.0279   24.0457 C.3     1  UNL1        0.0345
     30 C          10.8475   80.3308   24.2072 C.ar    1  UNL1        0.0202
     31 C          11.1835   79.0337   23.8037 C.ar    1  UNL1        0.1946
     32 O          12.4395   78.7728   24.1200 O.2     1  UNL1       -0.4492
     33 C          12.9358   79.8342   24.7073 C.ar    1  UNL1        0.1452
     34 C          14.2237   79.9988   25.2046 C.ar    1  UNL1        0.0375
     35 C          14.5480   81.2285   25.8033 C.ar    1  UNL1        0.0031
     36 C          13.5856   82.2702   25.8955 C.ar    1  UNL1        0.0002
     37 C          12.2854   82.0616   25.3759 C.ar    1  UNL1        0.0028
     38 C          11.9982   80.8287   24.7882 C.ar    1  UNL1        0.0337
     39 C          13.9397   83.5650   26.5303 C.ar    1  UNL1        0.0000
     40 C          14.1678   83.6435   27.9170 C.ar    1  UNL1        0.0005
     41 C          14.5001   84.8637   28.5129 C.ar    1  UNL1        0.0059
     42 C          14.6099   86.0190   27.7332 C.ar    1  UNL1        0.0215
     43 S          15.0360   87.5800   28.4984 S.3     1  UNL1       -0.1414
     44 C          14.3856   85.9529   26.3549 C.ar    1  UNL1        0.0059
     45 C          14.0521   84.7347   25.7554 C.ar    1  UNL1        0.0005
     46 H          16.4131   87.3566   28.3126 H       1  UNL1        0.1071
@<TRIPOS>BOND
     1    29    30    1
     2    30    31   ar
     3    31    25    1
     4    25    26    2
     5    25    27   am
     6    27     1    1
     7     1     2   ar
     8     2     3   ar
     9     3     4   ar
    10     4     7    1
    11     7     8    1
    12     8     9    1
    13     9    10    1
    14    10    13    1
    15    13    14    1
    16    14    15    1
    17    15    16   ar
    18    16    17   ar
    19    17    18   ar
    20    18    19   ar
    21    19    21    1
    22    21    22    2
    23    21    23    1
    24    19    20   ar
    25    10    11    1
    26    11    12    1
    27     4     5   ar
    28     5     6   ar
    29    31    32   ar
    30    32    33   ar
    31    33    34   ar
    32    34    35   ar
    33    35    36   ar
    34    36    39    1
    35    39    40   ar
    36    40    41   ar
    37    41    42   ar
    38    42    43    1
    39    42    44   ar
    40    44    45   ar
    41    36    37   ar
    42    37    38   ar
    43    38    30   ar
    44     6     1   ar
    45    38    33   ar
    46    12     7    1
    47    45    39   ar
    48    20    15   ar
    49    27    28    1
    50    23    24    1
    51    43    46    1
@<TRIPOS>MOLECULE
*****
 46 51 0 0 0
SMALL
GASTEIGER

@<TRIPOS>ATOM
      1 C          13.2713   83.3762   24.4092 C.ar    1  UNL1        0.0702
      2 C          13.6079   83.9495   23.1774 C.ar    1  UNL1        0.0191
      3 C          14.3076   85.1563   23.1303 C.ar    1  UNL1        0.0356
      4 C          14.6599   85.8019   24.3275 C.ar    1  UNL1        0.1318
      5 N          14.2878   85.2417   25.5125 N.ar    1  UNL1       -0.2279
      6 C          13.6097   84.0666   25.5832 C.ar    1  UNL1        0.1149
      7 N          15.4133   87.0343   24.3214 N.pl3   1  UNL1       -0.2932
      8 C          14.7859   88.3068   24.7177 C.3     1  UNL1        0.0923
      9 C          15.4686   89.5073   24.0354 C.3     1  UNL1        0.0252
     10 C          15.9006   89.1659   22.5914 C.3     1  UNL1        0.0472
     11 C          16.8934   87.9693   22.5754 C.3     1  UNL1        0.0252
     12 C          16.7919   87.0661   23.8160 C.3     1  UNL1        0.0923
     13 C          14.6658   88.9424   21.6881 C.3     1  UNL1        0.2054
     14 O          15.0269   88.2958   20.4642 O.3     1  UNL1       -0.4755
     15 C          14.4155   87.1604   19.9005 C.ar    1  UNL1        0.1388
     16 C          13.0213   87.0327   19.7340 C.ar    1  UNL1        0.0369
     17 C          12.4829   85.8758   19.1679 C.ar    1  UNL1        0.0033
     18 C          13.3199   84.8357   18.7608 C.ar    1  UNL1        0.0066
     19 C          14.7120   84.9413   18.9199 C.ar    1  UNL1        0.0785
     20 C          15.2470   86.1090   19.4924 C.ar    1  UNL1        0.0433
     21 C          15.6054   83.8415   18.4933 C.2     1  UNL1        0.3381
     22 O          15.9995   83.7659   17.2979 O.2     1  UNL1       -0.2451
     23 O          16.0201   82.8782   19.4094 O.3     1  UNL1       -0.4771
     24 H          16.6315   82.1212   19.1276 H       1  UNL1        0.2954
     25 C          13.1441   80.8602   24.7102 C.2     1  UNL1        0.2839
     26 O          14.3978   80.7317   24.6835 O.2     1  UNL1       -0.2665
     27 N          12.5421   82.1374   24.4438 N.am    1  UNL1       -0.2766
     28 H          11.5328   82.1579   24.1726 H       1  UNL1        0.1553
     29 C          10.5541   80.7550   26.5946 C.3     1  UNL1        0.0345
     30 C          11.1569   79.6380   25.7970 C.ar    1  UNL1        0.0202
     31 C          12.2888   79.6879   24.9757 C.ar    1  UNL1        0.1946
     32 O          12.5093   78.5018   24.4370 O.2     1  UNL1       -0.4492
     33 C          11.5790   77.6849   24.8671 C.ar    1  UNL1        0.1452
     34 C          11.4264   76.3392   24.5525 C.ar    1  UNL1        0.0375
     35 C          10.3485   75.6447   25.1283 C.ar    1  UNL1        0.0031
     36 C           9.4438   76.3017   26.0056 C.ar    1  UNL1        0.0002
     37 C           9.6355   77.6730   26.3003 C.ar    1  UNL1        0.0028
     38 C          10.7162   78.3311   25.7111 C.ar    1  UNL1        0.0337
     39 C           8.3086   75.5578   26.6078 C.ar    1  UNL1        0.0000
     40 C           8.0810   75.6004   27.9961 C.ar    1  UNL1        0.0005
     41 C           7.0122   74.8984   28.5613 C.ar    1  UNL1        0.0059
     42 C           6.1577   74.1471   27.7488 C.ar    1  UNL1        0.0215
     43 S           4.7897   73.2497   28.4747 S.3     1  UNL1       -0.1414
     44 C           6.3741   74.0976   26.3686 C.ar    1  UNL1        0.0059
     45 C           7.4424   74.7973   25.7997 C.ar    1  UNL1        0.0005
     46 H           3.9211   74.3472   28.3267 H       1  UNL1        0.1071
@<TRIPOS>BOND
     1    29    30    1
     2    30    31   ar
     3    31    25    1
     4    25    26    2
     5    25    27   am
     6    27     1    1
     7     1     2   ar
     8     2     3   ar
     9     3     4   ar
    10     4     7    1
    11     7     8    1
    12     8     9    1
    13     9    10    1
    14    10    13    1
    15    13    14    1
    16    14    15    1
    17    15    16   ar
    18    16    17   ar
    19    17    18   ar
    20    18    19   ar
    21    19    21    1
    22    21    22    2
    23    21    23    1
    24    19    20   ar
    25    10    11    1
    26    11    12    1
    27     4     5   ar
    28     5     6   ar
    29    31    32   ar
    30    32    33   ar
    31    33    34   ar
    32    34    35   ar
    33    35    36   ar
    34    36    39    1
    35    39    40   ar
    36    40    41   ar
    37    41    42   ar
    38    42    43    1
    39    42    44   ar
    40    44    45   ar
    41    36    37   ar
    42    37    38   ar
    43    38    30   ar
    44     6     1   ar
    45    38    33   ar
    46    12     7    1
    47    45    39   ar
    48    20    15   ar
    49    27    28    1
    50    23    24    1
    51    43    46    1
@<TRIPOS>MOLECULE
*****
 46 51 0 0 0
SMALL
GASTEIGER

@<TRIPOS>ATOM
      1 C          13.3640   83.2251   24.7241 C.ar    1  UNL1        0.0702
      2 C          13.4935   84.1891   23.7175 C.ar    1  UNL1        0.0191
      3 C          14.0148   85.4497   24.0128 C.ar    1  UNL1        0.0356
      4 C          14.3955   85.7523   25.3311 C.ar    1  UNL1        0.1318
      5 N          14.2245   84.8090   26.2993 N.ar    1  UNL1       -0.2279
      6 C          13.7227   83.5745   26.0352 C.ar    1  UNL1        0.1149
      7 N          14.9704   87.0332   25.6704 N.pl3   1  UNL1       -0.2932
      8 C          14.1286   88.1294   26.1800 C.3     1  UNL1        0.0923
      9 C          14.7342   89.5059   25.8461 C.3     1  UNL1        0.0252
     10 C          15.4082   89.5043   24.4554 C.3     1  UNL1        0.0472
     11 C          16.5443   88.4448   24.3884 C.3     1  UNL1        0.0252
     12 C          16.3899   87.3082   25.4128 C.3     1  UNL1        0.0923
     13 C          14.3549   89.3366   23.3360 C.3     1  UNL1        0.2054
     14 O          14.7320   88.3071   22.4171 O.3     1  UNL1       -0.4755
     15 C          13.8951   87.6606   21.4884 C.ar    1  UNL1        0.1388
     16 C          12.5384   87.9960   21.3024 C.ar    1  UNL1        0.0369
     17 C          11.7662   87.3105   20.3630 C.ar    1  UNL1        0.0033
     18 C          12.3303   86.2877   19.5989 C.ar    1  UNL1        0.0066
     19 C          13.6798   85.9357   19.7702 C.ar    1  UNL1        0.0785
     20 C          14.4511   86.6296   20.7195 C.ar    1  UNL1        0.0433
     21 C          14.2840   84.8505   18.9658 C.2     1  UNL1        0.3381
     22 O          15.5314   84.6664   18.9761 O.2     1  UNL1       -0.2451
     23 O          13.4795   84.0210   18.1888 O.3     1  UNL1       -0.4771
     24 H          13.8831   83.2752   17.6345 H       1  UNL1        0.2954
     25 C          11.4742   81.5323   24.7273 C.2     1  UNL1        0.2839
     26 O          10.7809   82.2157   25.5280 O.2     1  UNL1       -0.2665
     27 N          12.8167   81.9335   24.4085 N.am    1  UNL1       -0.2766
     28 H          13.4606   81.2167   24.0035 H       1  UNL1        0.1553
     29 C          12.2556   78.5238   25.5077 C.3     1  UNL1        0.0345
     30 C          11.2594   78.9791   24.4842 C.ar    1  UNL1        0.0202
     31 C          10.9216   80.2943   24.1457 C.ar    1  UNL1        0.1946
     32 O          10.0005   80.2950   23.1985 O.2     1  UNL1       -0.4492
     33 C           9.7239   79.0481   22.9046 C.ar    1  UNL1        0.1452
     34 C           8.8108   78.5855   21.9637 C.ar    1  UNL1        0.0375
     35 C           8.6686   77.1956   21.8096 C.ar    1  UNL1        0.0031
     36 C           9.4372   76.2933   22.5936 C.ar    1  UNL1        0.0002
     37 C          10.3565   76.8059   23.5401 C.ar    1  UNL1        0.0028
     38 C          10.4719   78.1911   23.6666 C.ar    1  UNL1        0.0337
     39 C           9.2782   74.8269   22.4220 C.ar    1  UNL1        0.0000
     40 C          10.3383   73.9518   22.7249 C.ar    1  UNL1        0.0005
     41 C          10.1869   72.5716   22.5617 C.ar    1  UNL1        0.0059
     42 C           8.9771   72.0482   22.0959 C.ar    1  UNL1        0.0215
     43 S           8.7857   70.2807   21.8884 S.3     1  UNL1       -0.1414
     44 C           7.9174   72.9078   21.7920 C.ar    1  UNL1        0.0059
     45 C           8.0651   74.2887   21.9529 C.ar    1  UNL1        0.0005
     46 H           8.3156   70.1227   23.2056 H       1  UNL1        0.1071
@<TRIPOS>BOND
     1    29    30    1
     2    30    31   ar
     3    31    25    1
     4    25    26    2
     5    25    27   am
     6    27     1    1
     7     1     2   ar
     8     2     3   ar
     9     3     4   ar
    10     4     7    1
    11     7     8    1
    12     8     9    1
    13     9    10    1
    14    10    13    1
    15    13    14    1
    16    14    15    1
    17    15    16   ar
    18    16    17   ar
    19    17    18   ar
    20    18    19   ar
    21    19    21    1
    22    21    22    2
    23    21    23    1
    24    19    20   ar
    25    10    11    1
    26    11    12    1
    27     4     5   ar
    28     5     6   ar
    29    31    32   ar
    30    32    33   ar
    31    33    34   ar
    32    34    35   ar
    33    35    36   ar
    34    36    39    1
    35    39    40   ar
    36    40    41   ar
    37    41    42   ar
    38    42    43    1
    39    42    44   ar
    40    44    45   ar
    41    36    37   ar
    42    37    38   ar
    43    38    30   ar
    44     6     1   ar
    45    38    33   ar
    46    12     7    1
    47    45    39   ar
    48    20    15   ar
    49    27    28    1
    50    23    24    1
    51    43    46    1
@<TRIPOS>MOLECULE
*****
 46 51 0 0 0
SMALL
GASTEIGER

@<TRIPOS>ATOM
      1 C          13.3634   83.6579   24.3846 C.ar    1  UNL1        0.0702
      2 C          13.7444   84.2141   23.1579 C.ar    1  UNL1        0.0191
      3 C          14.4036   85.4437   23.1167 C.ar    1  UNL1        0.0356
      4 C          14.6699   86.1292   24.3139 C.ar    1  UNL1        0.1318
      5 N          14.2555   85.5838   25.4918 N.ar    1  UNL1       -0.2279
      6 C          13.6156   84.3872   25.5568 C.ar    1  UNL1        0.1149
      7 N          15.3797   87.3873   24.3158 N.pl3   1  UNL1       -0.2932
      8 C          14.8499   88.5561   23.5925 C.3     1  UNL1        0.0923
      9 C          15.9802   89.5074   23.1559 C.3     1  UNL1        0.0252
     10 C          17.2447   88.7259   22.7335 C.3     1  UNL1        0.0472
     11 C          17.7735   87.8481   23.9031 C.3     1  UNL1        0.0252
     12 C          16.7003   87.5005   24.9483 C.3     1  UNL1        0.0923
     13 C          16.9848   87.9205   21.4396 C.3     1  UNL1        0.2054
     14 O          15.8988   88.4747   20.6913 O.3     1  UNL1       -0.4755
     15 C          14.8216   87.7688   20.1236 C.ar    1  UNL1        0.1388
     16 C          14.8432   86.3788   19.8887 C.ar    1  UNL1        0.0369
     17 C          13.7377   85.7437   19.3200 C.ar    1  UNL1        0.0033
     18 C          12.6011   86.4788   18.9797 C.ar    1  UNL1        0.0066
     19 C          12.5596   87.8655   19.2029 C.ar    1  UNL1        0.0785
     20 C          13.6775   88.4986   19.7747 C.ar    1  UNL1        0.0433
     21 C          11.3591   88.6518   18.8420 C.2     1  UNL1        0.3381
     22 O          11.3689   89.4044   17.8304 O.2     1  UNL1       -0.2451
     23 O          10.2054   88.5678   19.6174 O.3     1  UNL1       -0.4771
     24 H           9.3782   89.1019   19.3790 H       1  UNL1        0.2954
     25 C          13.3208   81.1380   24.6757 C.2     1  UNL1        0.2839
     26 O          14.5782   81.0522   24.6519 O.2     1  UNL1       -0.2665
     27 N          12.6765   82.3951   24.4125 N.am    1  UNL1       -0.2766
     28 H          11.6679   82.3824   24.1387 H       1  UNL1        0.1553
     29 C          10.6432   80.9706   26.4286 C.3     1  UNL1        0.0345
     30 C          11.3352   79.8592   25.6984 C.ar    1  UNL1        0.0202
     31 C          12.5051   79.9364   24.9345 C.ar    1  UNL1        0.1946
     32 O          12.8051   78.7462   24.4455 O.2     1  UNL1       -0.4492
     33 C          11.8904   77.9008   24.8535 C.ar    1  UNL1        0.1452
     34 C          11.8136   76.5410   24.5742 C.ar    1  UNL1        0.0375
     35 C          10.7386   75.8155   25.1163 C.ar    1  UNL1        0.0031
     36 C           9.7615   76.4561   25.9253 C.ar    1  UNL1        0.0002
     37 C           9.8772   77.8428   26.1858 C.ar    1  UNL1        0.0028
     38 C          10.9572   78.5317   25.6317 C.ar    1  UNL1        0.0337
     39 C           8.6302   75.6794   26.4924 C.ar    1  UNL1        0.0000
     40 C           7.6461   75.1293   25.6496 C.ar    1  UNL1        0.0005
     41 C           6.5812   74.3992   26.1856 C.ar    1  UNL1        0.0059
     42 C           6.4858   74.2081   27.5674 C.ar    1  UNL1        0.0215
     43 S           5.1217   73.2725   28.2511 S.3     1  UNL1       -0.1414
     44 C           7.4575   74.7498   28.4140 C.ar    1  UNL1        0.0059
     45 C           8.5234   75.4815   27.8820 C.ar    1  UNL1        0.0005
     46 H           5.8357   72.0629   28.1606 H       1  UNL1        0.1071
@<TRIPOS>BOND
     1    29    30    1
     2    30    31   ar
     3    31    25    1
     4    25    26    2
     5    25    27   am
     6    27     1    1
     7     1     2   ar
     8     2     3   ar
     9     3     4   ar
    10     4     7    1
    11     7     8    1
    12     8     9    1
    13     9    10    1
    14    10    13    1
    15    13    14    1
    16    14    15    1
    17    15    16   ar
    18    16    17   ar
    19    17    18   ar
    20    18    19   ar
    21    19    21    1
    22    21    22    2
    23    21    23    1
    24    19    20   ar
    25    10    11    1
    26    11    12    1
    27     4     5   ar
    28     5     6   ar
    29    31    32   ar
    30    32    33   ar
    31    33    34   ar
    32    34    35   ar
    33    35    36   ar
    34    36    39    1
    35    39    40   ar
    36    40    41   ar
    37    41    42   ar
    38    42    43    1
    39    42    44   ar
    40    44    45   ar
    41    36    37   ar
    42    37    38   ar
    43    38    30   ar
    44     6     1   ar
    45    38    33   ar
    46    12     7    1
    47    45    39   ar
    48    20    15   ar
    49    27    28    1
    50    23    24    1
    51    43    46    1
@<TRIPOS>MOLECULE
*****
 46 51 0 0 0
SMALL
GASTEIGER

@<TRIPOS>ATOM
      1 C           9.8009   77.1976   27.5104 C.ar    1  UNL1        0.0702
      2 C           8.5619   77.1017   26.8662 C.ar    1  UNL1        0.0191
      3 C           7.6166   76.1678   27.2934 C.ar    1  UNL1        0.0356
      4 C           7.9211   75.3123   28.3656 C.ar    1  UNL1        0.1318
      5 N           9.1482   75.4008   28.9513 N.ar    1  UNL1       -0.2279
      6 C          10.0826   76.3039   28.5551 C.ar    1  UNL1        0.1149
      7 N           6.9575   74.3560   28.8591 N.pl3   1  UNL1       -0.2932
      8 C           5.7816   73.9826   28.0543 C.3     1  UNL1        0.0923
      9 C           4.6079   73.5363   28.9465 C.3     1  UNL1        0.0252
     10 C           4.5400   74.3667   30.2481 C.3     1  UNL1        0.0472
     11 C           5.8538   74.2257   31.0677 C.3     1  UNL1        0.0252
     12 C           7.0694   73.8151   30.2199 C.3     1  UNL1        0.0923
     13 C           4.1702   75.8364   29.9420 C.3     1  UNL1        0.2054
     14 O           4.9968   76.7444   30.6760 O.3     1  UNL1       -0.4755
     15 C           5.8475   77.7289   30.1395 C.ar    1  UNL1        0.1388
     16 C           5.4957   78.5450   29.0450 C.ar    1  UNL1        0.0369
     17 C           6.3911   79.5016   28.5635 C.ar    1  UNL1        0.0033
     18 C           7.6423   79.6593   29.1618 C.ar    1  UNL1        0.0066
     19 C           8.0141   78.8546   30.2520 C.ar    1  UNL1        0.0785
     20 C           7.1074   77.8920   30.7305 C.ar    1  UNL1        0.0433
     21 C           9.3400   79.0140   30.8895 C.2     1  UNL1        0.3381
     22 O           9.4603   78.9333   32.1421 O.2     1  UNL1       -0.2451
     23 O          10.4691   79.2550   30.1108 O.3     1  UNL1       -0.4771
     24 H          11.3813   79.3658   30.5373 H       1  UNL1        0.2954
     25 C          11.1084   78.3595   25.6727 C.2     1  UNL1        0.2839
     26 O          10.7468   77.5230   24.8018 O.2     1  UNL1       -0.2665
     27 N          10.7694   78.1575   27.0543 N.am    1  UNL1       -0.2766
     28 H          11.3208   78.6746   27.7762 H       1  UNL1        0.1553
     29 C          10.0276   81.2819   24.9234 C.3     1  UNL1        0.0345
     30 C          11.4492   80.8068   24.9528 C.ar    1  UNL1        0.0202
     31 C          11.9170   79.5292   25.2799 C.ar    1  UNL1        0.1946
     32 O          13.2350   79.4945   25.1940 O.2     1  UNL1       -0.4492
     33 C          13.6461   80.6837   24.8273 C.ar    1  UNL1        0.1452
     34 C          14.9573   81.0955   24.6168 C.ar    1  UNL1        0.0375
     35 C          15.1762   82.4277   24.2256 C.ar    1  UNL1        0.0031
     36 C          14.0872   83.3240   24.0511 C.ar    1  UNL1        0.0002
     37 C          12.7673   82.8642   24.2752 C.ar    1  UNL1        0.0028
     38 C          12.5869   81.5354   24.6626 C.ar    1  UNL1        0.0337
     39 C          14.3307   84.7293   23.6377 C.ar    1  UNL1        0.0000
     40 C          13.9787   85.7960   24.4859 C.ar    1  UNL1        0.0005
     41 C          14.2079   87.1184   24.0943 C.ar    1  UNL1        0.0059
     42 C          14.7915   87.3922   22.8536 C.ar    1  UNL1        0.0215
     43 S          15.0843   89.0861   22.3549 S.3     1  UNL1       -0.1414
     44 C          15.1452   86.3407   22.0031 C.ar    1  UNL1        0.0059
     45 C          14.9168   85.0169   22.3906 C.ar    1  UNL1        0.0005
     46 H          16.3692   89.0897   22.9295 H       1  UNL1        0.1071
@<TRIPOS>BOND
     1    29    30    1
     2    30    31   ar
     3    31    25    1
     4    25    26    2
     5    25    27   am
     6    27     1    1
     7     1     2   ar
     8     2     3   ar
     9     3     4   ar
    10     4     7    1
    11     7     8    1
    12     8     9    1
    13     9    10    1
    14    10    13    1
    15    13    14    1
    16    14    15    1
    17    15    16   ar
    18    16    17   ar
    19    17    18   ar
    20    18    19   ar
    21    19    21    1
    22    21    22    2
    23    21    23    1
    24    19    20   ar
    25    10    11    1
    26    11    12    1
    27     4     5   ar
    28     5     6   ar
    29    31    32   ar
    30    32    33   ar
    31    33    34   ar
    32    34    35   ar
    33    35    36   ar
    34    36    39    1
    35    39    40   ar
    36    40    41   ar
    37    41    42   ar
    38    42    43    1
    39    42    44   ar
    40    44    45   ar
    41    36    37   ar
    42    37    38   ar
    43    38    30   ar
    44     6     1   ar
    45    38    33   ar
    46    12     7    1
    47    45    39   ar
    48    20    15   ar
    49    27    28    1
    50    23    24    1
    51    43    46    1
@<TRIPOS>MOLECULE
*****
 46 51 0 0 0
SMALL
GASTEIGER

@<TRIPOS>ATOM
      1 C           8.7251   79.1637   28.3920 C.ar    1  UNL1        0.0702
      2 C           8.8148   78.5574   29.6505 C.ar    1  UNL1        0.0191
      3 C           7.8247   77.6709   30.0772 C.ar    1  UNL1        0.0356
      4 C           6.7275   77.4011   29.2419 C.ar    1  UNL1        0.1318
      5 N           6.6451   78.0329   28.0375 N.ar    1  UNL1       -0.2279
      6 C           7.5980   78.8966   27.5997 C.ar    1  UNL1        0.1149
      7 N           5.6999   76.4642   29.6328 N.pl3   1  UNL1       -0.2932
      8 C           6.0054   75.3372   30.5309 C.3     1  UNL1        0.0923
      9 C           5.0501   74.1525   30.2920 C.3     1  UNL1        0.0252
     10 C           4.7044   73.9988   28.7936 C.3     1  UNL1        0.0472
     11 C           4.0284   75.2863   28.2431 C.3     1  UNL1        0.0252
     12 C           4.3512   76.5499   29.0580 C.3     1  UNL1        0.0923
     13 C           5.9514   73.5743   27.9840 C.3     1  UNL1        0.2054
     14 O           6.1240   74.3959   26.8257 O.3     1  UNL1       -0.4755
     15 C           7.3254   74.9755   26.3769 C.ar    1  UNL1        0.1388
     16 C           7.5219   75.4285   25.0563 C.ar    1  UNL1        0.0369
     17 C           8.7419   75.9927   24.6797 C.ar    1  UNL1        0.0033
     18 C           9.7779   76.1142   25.6072 C.ar    1  UNL1        0.0066
     19 C           9.6041   75.6668   26.9279 C.ar    1  UNL1        0.0785
     20 C           8.3728   75.0981   27.2995 C.ar    1  UNL1        0.0433
     21 C          10.6988   75.7896   27.9159 C.2     1  UNL1        0.3381
     22 O          10.8965   74.8801   28.7665 O.2     1  UNL1       -0.2451
     23 O          11.5222   76.9126   27.9156 O.3     1  UNL1       -0.4771
     24 H          12.2744   77.0066   28.5877 H       1  UNL1        0.2954
     25 C          10.5220   79.9215   26.7691 C.2     1  UNL1        0.2839
     26 O          10.5122   78.8238   26.1497 O.2     1  UNL1       -0.2665
     27 N           9.7469   80.0823   27.9684 N.am    1  UNL1       -0.2766
     28 H           9.9995   80.8631   28.6157 H       1  UNL1        0.1553
     29 C          10.7045   81.0315   23.7683 C.3     1  UNL1        0.0345
     30 C          11.4447   81.5212   24.9765 C.ar    1  UNL1        0.0202
     31 C          11.3627   81.0330   26.2854 C.ar    1  UNL1        0.1946
     32 O          12.1653   81.7228   27.0763 O.2     1  UNL1       -0.4492
     33 C          12.7643   82.6328   26.3478 C.ar    1  UNL1        0.1452
     34 C          13.6914   83.5780   26.7724 C.ar    1  UNL1        0.0375
     35 C          14.2117   84.4680   25.8171 C.ar    1  UNL1        0.0031
     36 C          13.8003   84.4007   24.4584 C.ar    1  UNL1        0.0002
     37 C          12.8544   83.4227   24.0675 C.ar    1  UNL1        0.0028
     38 C          12.3589   82.5553   25.0423 C.ar    1  UNL1        0.0337
     39 C          14.3568   85.3464   23.4580 C.ar    1  UNL1        0.0000
     40 C          14.7968   84.8841   22.2035 C.ar    1  UNL1        0.0005
     41 C          15.3214   85.7760   21.2634 C.ar    1  UNL1        0.0059
     42 C          15.4122   87.1387   21.5627 C.ar    1  UNL1        0.0215
     43 S          16.0837   88.2786   20.3572 S.3     1  UNL1       -0.1414
     44 C          14.9782   87.6091   22.8055 C.ar    1  UNL1        0.0059
     45 C          14.4539   86.7203   23.7488 C.ar    1  UNL1        0.0005
     46 H          14.8154   88.5146   19.7944 H       1  UNL1        0.1071
@<TRIPOS>BOND
     1    29    30    1
     2    30    31   ar
     3    31    25    1
     4    25    26    2
     5    25    27   am
     6    27     1    1
     7     1     2   ar
     8     2     3   ar
     9     3     4   ar
    10     4     7    1
    11     7     8    1
    12     8     9    1
    13     9    10    1
    14    10    13    1
    15    13    14    1
    16    14    15    1
    17    15    16   ar
    18    16    17   ar
    19    17    18   ar
    20    18    19   ar
    21    19    21    1
    22    21    22    2
    23    21    23    1
    24    19    20   ar
    25    10    11    1
    26    11    12    1
    27     4     5   ar
    28     5     6   ar
    29    31    32   ar
    30    32    33   ar
    31    33    34   ar
    32    34    35   ar
    33    35    36   ar
    34    36    39    1
    35    39    40   ar
    36    40    41   ar
    37    41    42   ar
    38    42    43    1
    39    42    44   ar
    40    44    45   ar
    41    36    37   ar
    42    37    38   ar
    43    38    30   ar
    44     6     1   ar
    45    38    33   ar
    46    12     7    1
    47    45    39   ar
    48    20    15   ar
    49    27    28    1
    50    23    24    1
    51    43    46    1
@<TRIPOS>MOLECULE
*****
 46 51 0 0 0
SMALL
GASTEIGER

@<TRIPOS>ATOM
      1 C           7.8914   77.1918   23.1207 C.ar    1  UNL1        0.0702
      2 C           6.6776   76.9186   23.7620 C.ar    1  UNL1        0.0191
      3 C           5.6784   76.2012   23.1021 C.ar    1  UNL1        0.0356
      4 C           5.8916   75.7668   21.7830 C.ar    1  UNL1        0.1318
      5 N           7.0672   76.0779   21.1685 N.ar    1  UNL1       -0.2279
      6 C           8.0552   76.7717   21.7916 C.ar    1  UNL1        0.1149
      7 N           4.8961   74.9929   21.0782 N.pl3   1  UNL1       -0.2932
      8 C           5.2582   74.1900   19.8974 C.3     1  UNL1        0.0923
      9 C           4.0595   74.0169   18.9456 C.3     1  UNL1        0.0252
     10 C           3.1907   75.2939   18.8930 C.3     1  UNL1        0.0472
     11 C           2.6430   75.6533   20.3033 C.3     1  UNL1        0.0252
     12 C           3.4794   75.0739   21.4565 C.3     1  UNL1        0.0923
     13 C           3.9639   76.4560   18.2279 C.3     1  UNL1        0.2054
     14 O           3.8643   77.6561   19.0000 O.3     1  UNL1       -0.4755
     15 C           4.9289   78.3871   19.5597 C.ar    1  UNL1        0.1388
     16 C           4.8544   79.0292   20.8127 C.ar    1  UNL1        0.0369
     17 C           5.9504   79.7393   21.3061 C.ar    1  UNL1        0.0033
     18 C           7.1298   79.8192   20.5640 C.ar    1  UNL1        0.0066
     19 C           7.2244   79.1889   19.3117 C.ar    1  UNL1        0.0785
     20 C           6.1158   78.4767   18.8205 C.ar    1  UNL1        0.0433
     21 C           8.4706   79.2717   18.5180 C.2     1  UNL1        0.3381
     22 O           8.5068   79.9485   17.4548 O.2     1  UNL1       -0.2451
     23 O           9.6168   78.6020   18.9386 O.3     1  UNL1       -0.4771
     24 H          10.4750   78.6522   18.4026 H       1  UNL1        0.2954
     25 C          10.2476   78.1121   23.3158 C.2     1  UNL1        0.2839
     26 O          10.6703   77.4010   22.3647 O.2     1  UNL1       -0.2665
     27 N           8.9087   77.9399   23.8082 N.am    1  UNL1       -0.2766
     28 H           8.6854   78.3041   24.7622 H       1  UNL1        0.1553
     29 C           9.4815   81.0754   24.2658 C.3     1  UNL1        0.0345
     30 C          10.8113   80.3912   24.3703 C.ar    1  UNL1        0.0202
     31 C          11.1420   79.0970   23.9533 C.ar    1  UNL1        0.1946
     32 O          12.4130   78.8486   24.2148 O.2     1  UNL1       -0.4492
     33 C          12.9241   79.9153   24.7793 C.ar    1  UNL1        0.1452
     34 C          14.2307   80.0929   25.2200 C.ar    1  UNL1        0.0375
     35 C          14.5688   81.3263   25.8032 C.ar    1  UNL1        0.0031
     36 C          13.6013   82.3587   25.9366 C.ar    1  UNL1        0.0002
     37 C          12.2819   82.1371   25.4743 C.ar    1  UNL1        0.0028
     38 C          11.9813   80.9008   24.9003 C.ar    1  UNL1        0.0337
     39 C          13.9701   83.6576   26.5546 C.ar    1  UNL1        0.0000
     40 C          14.1995   83.7513   27.9402 C.ar    1  UNL1        0.0005
     41 C          14.5457   84.9754   28.5202 C.ar    1  UNL1        0.0059
     42 C          14.6682   86.1192   27.7256 C.ar    1  UNL1        0.0215
     43 S          15.1120   87.6850   28.4706 S.3     1  UNL1       -0.1414
     44 C          14.4428   86.0378   26.3484 C.ar    1  UNL1        0.0059
     45 C          14.0954   84.8159   25.7646 C.ar    1  UNL1        0.0005
     46 H          16.4865   87.4438   28.2875 H       1  UNL1        0.1071
@<TRIPOS>BOND
     1    29    30    1
     2    30    31   ar
     3    31    25    1
     4    25    26    2
     5    25    27   am
     6    27     1    1
     7     1     2   ar
     8     2     3   ar
     9     3     4   ar
    10     4     7    1
    11     7     8    1
    12     8     9    1
    13     9    10    1
    14    10    13    1
    15    13    14    1
    16    14    15    1
    17    15    16   ar
    18    16    17   ar
    19    17    18   ar
    20    18    19   ar
    21    19    21    1
    22    21    22    2
    23    21    23    1
    24    19    20   ar
    25    10    11    1
    26    11    12    1
    27     4     5   ar
    28     5     6   ar
    29    31    32   ar
    30    32    33   ar
    31    33    34   ar
    32    34    35   ar
    33    35    36   ar
    34    36    39    1
    35    39    40   ar
    36    40    41   ar
    37    41    42   ar
    38    42    43    1
    39    42    44   ar
    40    44    45   ar
    41    36    37   ar
    42    37    38   ar
    43    38    30   ar
    44     6     1   ar
    45    38    33   ar
    46    12     7    1
    47    45    39   ar
    48    20    15   ar
    49    27    28    1
    50    23    24    1
    51    43    46    1
@<TRIPOS>MOLECULE
*****
 46 51 0 0 0
SMALL
GASTEIGER

@<TRIPOS>ATOM
      1 C           8.0313   79.2164   27.6696 C.ar    1  UNL1        0.0702
      2 C           7.3306   79.3017   28.8783 C.ar    1  UNL1        0.0191
      3 C           6.2626   78.4406   29.1354 C.ar    1  UNL1        0.0356
      4 C           5.8838   77.4958   28.1668 C.ar    1  UNL1        0.1318
      5 N           6.5584   77.4584   26.9836 N.ar    1  UNL1       -0.2279
      6 C           7.6028   78.2837   26.7124 C.ar    1  UNL1        0.1149
      7 N           4.8063   76.5647   28.4086 N.pl3   1  UNL1       -0.2932
      8 C           3.9273   76.7125   29.5814 C.3     1  UNL1        0.0923
      9 C           3.3433   75.3566   30.0213 C.3     1  UNL1        0.0252
     10 C           4.3703   74.2152   29.8452 C.3     1  UNL1        0.0472
     11 C           4.8177   74.0927   28.3611 C.3     1  UNL1        0.0252
     12 C           4.6291   75.3860   27.5505 C.3     1  UNL1        0.0923
     13 C           5.5547   74.3877   30.8240 C.3     1  UNL1        0.2054
     14 O           6.5837   75.2035   30.2566 O.3     1  UNL1       -0.4755
     15 C           7.9080   74.8156   29.9796 C.ar    1  UNL1        0.1388
     16 C           8.5438   73.7248   30.6071 C.ar    1  UNL1        0.0369
     17 C           9.8619   73.3975   30.2842 C.ar    1  UNL1        0.0033
     18 C          10.5618   74.1464   29.3369 C.ar    1  UNL1        0.0066
     19 C           9.9479   75.2391   28.7016 C.ar    1  UNL1        0.0785
     20 C           8.6204   75.5638   29.0330 C.ar    1  UNL1        0.0433
     21 C          10.6846   76.0394   27.6984 C.2     1  UNL1        0.3381
     22 O          10.7310   75.6682   26.4942 O.2     1  UNL1       -0.2451
     23 O          11.3344   77.2119   28.0753 O.3     1  UNL1       -0.4771
     24 H          11.8416   77.7671   27.3963 H       1  UNL1        0.2954
     25 C          10.1832   79.8445   26.4815 C.2     1  UNL1        0.2839
     26 O          10.3394   78.6824   26.0189 O.2     1  UNL1       -0.2665
     27 N           9.1235   80.1157   27.4133 N.am    1  UNL1       -0.2766
     28 H           9.1961   80.9753   28.0034 H       1  UNL1        0.1553
     29 C          10.6674   81.0114   23.5363 C.3     1  UNL1        0.0345
     30 C          11.3288   81.4346   24.8133 C.ar    1  UNL1        0.0202
     31 C          11.1151   80.9218   26.0976 C.ar    1  UNL1        0.1946
     32 O          11.8831   81.5510   26.9694 O.2     1  UNL1       -0.4492
     33 C          12.5846   82.4451   26.3165 C.ar    1  UNL1        0.1452
     34 C          13.5193   83.3312   26.8402 C.ar    1  UNL1        0.0375
     35 C          14.1601   84.2146   25.9544 C.ar    1  UNL1        0.0031
     36 C          13.8592   84.1994   24.5656 C.ar    1  UNL1        0.0002
     37 C          12.9014   83.2808   24.0731 C.ar    1  UNL1        0.0028
     38 C          12.2848   82.4183   24.9808 C.ar    1  UNL1        0.0337
     39 C          14.5426   85.1376   23.6394 C.ar    1  UNL1        0.0000
     40 C          15.0193   86.3789   24.1010 C.ar    1  UNL1        0.0005
     41 C          15.6615   87.2611   23.2271 C.ar    1  UNL1        0.0059
     42 C          15.8368   86.9156   21.8838 C.ar    1  UNL1        0.0215
     43 S          16.6598   88.0467   20.7671 S.3     1  UNL1       -0.1414
     44 C          15.3674   85.6854   21.4142 C.ar    1  UNL1        0.0059
     45 C          14.7238   84.8007   22.2847 C.ar    1  UNL1        0.0005
     46 H          17.9216   87.4894   21.0468 H       1  UNL1        0.1071
@<TRIPOS>BOND
     1    29    30    1
     2    30    31   ar
     3    31    25    1
     4    25    26    2
     5    25    27   am
     6    27     1    1
     7     1     2   ar
     8     2     3   ar
     9     3     4   ar
    10     4     7    1
    11     7     8    1
    12     8     9    1
    13     9    10    1
    14    10    13    1
    15    13    14    1
    16    14    15    1
    17    15    16   ar
    18    16    17   ar
    19    17    18   ar
    20    18    19   ar
    21    19    21    1
    22    21    22    2
    23    21    23    1
    24    19    20   ar
    25    10    11    1
    26    11    12    1
    27     4     5   ar
    28     5     6   ar
    29    31    32   ar
    30    32    33   ar
    31    33    34   ar
    32    34    35   ar
    33    35    36   ar
    34    36    39    1
    35    39    40   ar
    36    40    41   ar
    37    41    42   ar
    38    42    43    1
    39    42    44   ar
    40    44    45   ar
    41    36    37   ar
    42    37    38   ar
    43    38    30   ar
    44     6     1   ar
    45    38    33   ar
    46    12     7    1
    47    45    39   ar
    48    20    15   ar
    49    27    28    1
    50    23    24    1
    51    43    46    1
@<TRIPOS>MOLECULE
*****
 46 51 0 0 0
SMALL
GASTEIGER

@<TRIPOS>ATOM
      1 C          10.5367   76.0127   22.7196 C.ar    1  UNL1        0.0702
      2 C          10.6706   76.1414   24.1070 C.ar    1  UNL1        0.0191
      3 C          11.8823   76.5561   24.6620 C.ar    1  UNL1        0.0356
      4 C          12.9738   76.8299   23.8206 C.ar    1  UNL1        0.1318
      5 N          12.8283   76.6610   22.4764 N.ar    1  UNL1       -0.2279
      6 C          11.6581   76.2618   21.9134 C.ar    1  UNL1        0.1149
      7 N          14.2337   77.2938   24.3535 N.pl3   1  UNL1       -0.2932
      8 C          14.4063   77.5210   25.7987 C.3     1  UNL1        0.0923
      9 C          15.4820   78.5882   26.0759 C.3     1  UNL1        0.0252
     10 C          15.4456   79.7151   25.0189 C.3     1  UNL1        0.0472
     11 C          15.6819   79.1470   23.5909 C.3     1  UNL1        0.0252
     12 C          15.3388   77.6540   23.4557 C.3     1  UNL1        0.0923
     13 C          14.1406   80.5358   25.1373 C.3     1  UNL1        0.2054
     14 O          13.1846   80.1380   24.1503 O.3     1  UNL1       -0.4755
     15 C          11.8074   79.9278   24.3497 C.ar    1  UNL1        0.1388
     16 C          10.8680   79.8938   23.2989 C.ar    1  UNL1        0.0369
     17 C           9.5152   79.6819   23.5705 C.ar    1  UNL1        0.0033
     18 C           9.0805   79.5010   24.8844 C.ar    1  UNL1        0.0066
     19 C           9.9996   79.5339   25.9468 C.ar    1  UNL1        0.0785
     20 C          11.3605   79.7493   25.6657 C.ar    1  UNL1        0.0433
     21 C           9.5458   79.3459   27.3427 C.2     1  UNL1        0.3381
     22 O          10.2476   78.6902   28.1597 O.2     1  UNL1       -0.2451
     23 O           8.3375   79.8922   27.7678 O.3     1  UNL1       -0.4771
     24 H           8.0176   79.7692   28.7212 H       1  UNL1        0.2954
     25 C           8.0022   76.0423   22.6075 C.2     1  UNL1        0.2839
     26 O           7.9004   76.6816   23.6891 O.2     1  UNL1       -0.2665
     27 N           9.2859   75.5754   22.1613 N.am    1  UNL1       -0.2766
     28 H           9.3103   74.8089   21.4512 H       1  UNL1        0.1553
     29 C           4.9692   76.0487   23.6424 C.3     1  UNL1        0.0345
     30 C           5.4697   75.7389   22.2637 C.ar    1  UNL1        0.0202
     31 C           6.7955   75.7365   21.8159 C.ar    1  UNL1        0.1946
     32 O           6.8397   75.4150   20.5352 O.2     1  UNL1       -0.4492
     33 C           5.6108   75.2080   20.1293 C.ar    1  UNL1        0.1452
     34 C           5.1929   74.8497   18.8525 C.ar    1  UNL1        0.0375
     35 C           3.8151   74.6793   18.6324 C.ar    1  UNL1        0.0031
     36 C           2.8802   74.8682   19.6859 C.ar    1  UNL1        0.0002
     37 C           3.3477   75.2322   20.9715 C.ar    1  UNL1        0.0028
     38 C           4.7221   75.3927   21.1543 C.ar    1  UNL1        0.0337
     39 C           1.4270   74.6854   19.4414 C.ar    1  UNL1        0.0000
     40 C           0.8767   73.3947   19.3305 C.ar    1  UNL1        0.0005
     41 C          -0.4916   73.2249   19.0993 C.ar    1  UNL1        0.0059
     42 C          -1.3268   74.3395   18.9773 C.ar    1  UNL1        0.0215
     43 S          -3.0783   74.1194   18.6818 S.3     1  UNL1       -0.1414
     44 C          -0.7912   75.6262   19.0858 C.ar    1  UNL1        0.0059
     45 C           0.5768   75.8003   19.3160 C.ar    1  UNL1        0.0005
     46 H          -3.3621   74.0917   20.0601 H       1  UNL1        0.1071
@<TRIPOS>BOND
     1    29    30    1
     2    30    31   ar
     3    31    25    1
     4    25    26    2
     5    25    27   am
     6    27     1    1
     7     1     2   ar
     8     2     3   ar
     9     3     4   ar
    10     4     7    1
    11     7     8    1
    12     8     9    1
    13     9    10    1
    14    10    13    1
    15    13    14    1
    16    14    15    1
    17    15    16   ar
    18    16    17   ar
    19    17    18   ar
    20    18    19   ar
    21    19    21    1
    22    21    22    2
    23    21    23    1
    24    19    20   ar
    25    10    11    1
    26    11    12    1
    27     4     5   ar
    28     5     6   ar
    29    31    32   ar
    30    32    33   ar
    31    33    34   ar
    32    34    35   ar
    33    35    36   ar
    34    36    39    1
    35    39    40   ar
    36    40    41   ar
    37    41    42   ar
    38    42    43    1
    39    42    44   ar
    40    44    45   ar
    41    36    37   ar
    42    37    38   ar
    43    38    30   ar
    44     6     1   ar
    45    38    33   ar
    46    12     7    1
    47    45    39   ar
    48    20    15   ar
    49    27    28    1
    50    23    24    1
    51    43    46    1
