@<TRIPOS>MOLECULE
*****
 41 45 0 0 0
SMALL
GASTEIGER

@<TRIPOS>ATOM
      1 C         -28.8423   50.7329  -11.9206 C.3     1  UNL1        0.1332
      2 N         -27.4478   51.0626  -12.2162 N.ar    1  UNL1       -0.2977
      3 C         -26.8706   51.2997  -13.4297 C.ar    1  UNL1        0.2018
      4 N         -25.5347   51.5342  -13.3646 N.ar    1  UNL1       -0.2135
      5 C         -25.2810   51.4735  -12.0462 C.ar    1  UNL1        0.0999
      6 C         -24.0504   51.6846  -11.4109 C.ar    1  UNL1        0.0282
      7 C         -24.0053   51.6375   -9.9947 C.ar    1  UNL1        0.0888
      8 C         -25.2055   51.3492   -9.3001 C.ar    1  UNL1        0.1401
      9 C         -26.3979   51.1313   -9.9518 C.ar    1  UNL1        0.0327
     10 C         -26.4274   51.2009  -11.3479 C.ar    1  UNL1        0.0789
     11 C         -27.4729   50.8415   -8.9630 C.3     1  UNL1        0.0709
     12 C         -26.7258   50.9747   -7.5955 C.3     1  UNL1        0.1375
     13 C         -26.8064   49.6773   -6.7800 C.3     1  UNL1        0.0439
     14 C         -27.2691   52.1549   -6.7785 C.3     1  UNL1        0.0439
     15 O         -25.3622   51.2322   -7.9347 O.3     1  UNL1       -0.4824
     16 C         -22.7285   51.8696   -9.2875 C.2     1  UNL1        0.2525
     17 O         -22.6315   51.5247   -8.0784 O.2     1  UNL1       -0.2697
     18 N         -21.6107   52.4780   -9.9601 N.am    1  UNL1       -0.2803
     19 H         -21.7264   52.7922  -10.9487 H       1  UNL1        0.1552
     20 C         -20.3503   52.7588   -9.3295 C.ar    1  UNL1        0.0510
     21 C         -20.2013   53.9447   -8.5982 C.ar    1  UNL1        0.0205
     22 C         -18.9849   54.2467   -7.9800 C.ar    1  UNL1        0.0227
     23 S         -18.8205   55.7456   -7.0154 S.3     1  UNL1       -0.1414
     24 C         -17.8983   53.3765   -8.1101 C.ar    1  UNL1        0.0098
     25 C         -18.0107   52.2098   -8.8856 C.ar    1  UNL1        0.0731
     26 C         -19.2470   51.8999   -9.4803 C.ar    1  UNL1        0.0186
     27 H         -18.4006   56.4851   -8.1370 H       1  UNL1        0.1071
     28 C         -16.8478   51.2564   -9.0058 C.3     1  UNL1        0.4186
     29 F         -16.0630   51.5736  -10.1010 F       1  UNL1       -0.1659
     30 F         -17.2971   49.9561   -9.1592 F       1  UNL1       -0.1659
     31 F         -16.0763   51.3342   -7.8616 F       1  UNL1       -0.1659
     32 N         -27.5783   51.3360  -14.6774 N.pl3   1  UNL1       -0.2814
     33 H         -28.4796   51.8634  -14.7059 H       1  UNL1        0.1551
     34 C         -27.1599   50.6511  -15.8693 C.ar    1  UNL1        0.0889
     35 C         -25.9455   51.0206  -16.4718 C.ar    1  UNL1        0.1543
     36 F         -25.1804   51.9978  -15.9231 F       1  UNL1       -0.2028
     37 C         -25.5000   50.3681  -17.6245 C.ar    1  UNL1        0.0310
     38 C         -26.2682   49.3532  -18.1959 C.ar    1  UNL1        0.0033
     39 C         -27.4911   48.9962  -17.6247 C.ar    1  UNL1        0.0128
     40 C         -27.9495   49.6425  -16.4701 C.ar    1  UNL1        0.0733
     41 CL        -29.5436   49.2105  -15.8611 Cl      1  UNL1       -0.0809
@<TRIPOS>BOND
     1     1     2    1
     2     2     3   ar
     3     3    32    1
     4    32    34    1
     5    34    35   ar
     6    35    36    1
     7    35    37   ar
     8    37    38   ar
     9    38    39   ar
    10    39    40   ar
    11    40    41    1
    12     3     4   ar
    13     4     5   ar
    14     5     6   ar
    15     6     7   ar
    16     7    16    1
    17    16    17    2
    18    16    18   am
    19    18    20    1
    20    20    21   ar
    21    21    22   ar
    22    22    23    1
    23    22    24   ar
    24    24    25   ar
    25    25    28    1
    26    28    29    1
    27    28    30    1
    28    28    31    1
    29    25    26   ar
    30     7     8   ar
    31     8     9   ar
    32     9    10   ar
    33     9    11    1
    34    11    12    1
    35    12    13    1
    36    12    14    1
    37    12    15    1
    38    10     2   ar
    39    40    34   ar
    40    10     5   ar
    41    26    20   ar
    42    15     8    1
    43    32    33    1
    44    18    19    1
    45    23    27    1
@<TRIPOS>MOLECULE
*****
 41 45 0 0 0
SMALL
GASTEIGER

@<TRIPOS>ATOM
      1 C         -25.8049   51.3040  -12.2226 C.3     1  UNL1        0.1332
      2 N         -25.1999   51.2249  -10.8928 N.ar    1  UNL1       -0.2977
      3 C         -23.9537   51.6207  -10.5026 C.ar    1  UNL1        0.2018
      4 N         -23.6811   51.3644   -9.1972 N.ar    1  UNL1       -0.2135
      5 C         -24.8245   50.8165   -8.7516 C.ar    1  UNL1        0.0999
      6 C         -25.1090   50.3974   -7.4454 C.ar    1  UNL1        0.0282
      7 C         -26.4066   49.9006   -7.1637 C.ar    1  UNL1        0.0888
      8 C         -27.3370   49.8280   -8.2292 C.ar    1  UNL1        0.1401
      9 C         -27.0248   50.2334   -9.5067 C.ar    1  UNL1        0.0327
     10 C         -25.7462   50.7387   -9.7618 C.ar    1  UNL1        0.0789
     11 C         -28.1932   50.0264  -10.4064 C.3     1  UNL1        0.0709
     12 C         -29.2826   49.4716   -9.4312 C.3     1  UNL1        0.1375
     13 C         -29.7840   48.0901   -9.8726 C.3     1  UNL1        0.0439
     14 C         -30.4578   50.4496   -9.2970 C.3     1  UNL1        0.0439
     15 O         -28.6300   49.3521   -8.1659 O.3     1  UNL1       -0.4824
     16 C         -26.7494   49.4625   -5.7945 C.2     1  UNL1        0.2525
     17 O         -26.3734   50.1669   -4.8185 O.2     1  UNL1       -0.2697
     18 N         -27.4991   48.2542   -5.5707 N.am    1  UNL1       -0.2803
     19 H         -27.7651   47.6659   -6.3908 H       1  UNL1        0.1552
     20 C         -27.8443   47.7532   -4.2689 C.ar    1  UNL1        0.0510
     21 C         -27.1459   46.6535   -3.7526 C.ar    1  UNL1        0.0205
     22 C         -27.4648   46.1411   -2.4922 C.ar    1  UNL1        0.0227
     23 S         -26.5380   44.7613   -1.8278 S.3     1  UNL1       -0.1414
     24 C         -28.5035   46.7087   -1.7479 C.ar    1  UNL1        0.0098
     25 C         -29.2526   47.7761   -2.2718 C.ar    1  UNL1        0.0731
     26 C         -28.9059   48.3035   -3.5287 C.ar    1  UNL1        0.0186
     27 H         -27.4196   43.8247   -2.3993 H       1  UNL1        0.1071
     28 C         -30.3564   48.4070   -1.4596 C.3     1  UNL1        0.4186
     29 F         -31.3905   47.5100   -1.2549 F       1  UNL1       -0.1659
     30 F         -30.8692   49.5152   -2.1116 F       1  UNL1       -0.1659
     31 F         -29.8515   48.7992   -0.2341 F       1  UNL1       -0.1659
     32 N         -23.0014   52.2760  -11.3527 N.pl3   1  UNL1       -0.2814
     33 H         -23.2240   52.3342  -12.3717 H       1  UNL1        0.1551
     34 C         -21.7422   52.8050  -10.9062 C.ar    1  UNL1        0.0889
     35 C         -20.6326   51.9457  -10.8380 C.ar    1  UNL1        0.1543
     36 F         -20.7530   50.6444  -11.2031 F       1  UNL1       -0.2028
     37 C         -19.3889   52.4275  -10.4209 C.ar    1  UNL1        0.0310
     38 C         -19.2439   53.7655  -10.0525 C.ar    1  UNL1        0.0033
     39 C         -20.3448   54.6233  -10.0872 C.ar    1  UNL1        0.0128
     40 C         -21.5968   54.1532  -10.5025 C.ar    1  UNL1        0.0733
     41 CL        -22.9608   55.2633  -10.4276 Cl      1  UNL1       -0.0809
@<TRIPOS>BOND
     1     1     2    1
     2     2     3   ar
     3     3    32    1
     4    32    34    1
     5    34    35   ar
     6    35    36    1
     7    35    37   ar
     8    37    38   ar
     9    38    39   ar
    10    39    40   ar
    11    40    41    1
    12     3     4   ar
    13     4     5   ar
    14     5     6   ar
    15     6     7   ar
    16     7    16    1
    17    16    17    2
    18    16    18   am
    19    18    20    1
    20    20    21   ar
    21    21    22   ar
    22    22    23    1
    23    22    24   ar
    24    24    25   ar
    25    25    28    1
    26    28    29    1
    27    28    30    1
    28    28    31    1
    29    25    26   ar
    30     7     8   ar
    31     8     9   ar
    32     9    10   ar
    33     9    11    1
    34    11    12    1
    35    12    13    1
    36    12    14    1
    37    12    15    1
    38    10     2   ar
    39    40    34   ar
    40    10     5   ar
    41    26    20   ar
    42    15     8    1
    43    32    33    1
    44    18    19    1
    45    23    27    1
@<TRIPOS>MOLECULE
*****
 41 45 0 0 0
SMALL
GASTEIGER

@<TRIPOS>ATOM
      1 C         -25.7311   51.3014  -12.3817 C.3     1  UNL1        0.1332
      2 N         -25.2270   51.2400  -11.0095 N.ar    1  UNL1       -0.2977
      3 C         -23.9946   51.5926  -10.5416 C.ar    1  UNL1        0.2018
      4 N         -23.8283   51.3682   -9.2127 N.ar    1  UNL1       -0.2135
      5 C         -25.0251   50.8871   -8.8353 C.ar    1  UNL1        0.0999
      6 C         -25.4216   50.5250   -7.5413 C.ar    1  UNL1        0.0282
      7 C         -26.7578   50.0964   -7.3400 C.ar    1  UNL1        0.0888
      8 C         -27.6121   50.0296   -8.4678 C.ar    1  UNL1        0.1401
      9 C         -27.1907   50.3777   -9.7309 C.ar    1  UNL1        0.0327
     10 C         -25.8749   50.8167   -9.9072 C.ar    1  UNL1        0.0789
     11 C         -28.3003   50.1930  -10.7067 C.3     1  UNL1        0.0709
     12 C         -29.4814   49.7203   -9.7972 C.3     1  UNL1        0.1375
     13 C         -30.0142   48.3486  -10.2321 C.3     1  UNL1        0.0439
     14 C         -30.6160   50.7537   -9.7786 C.3     1  UNL1        0.0439
     15 O         -28.9272   49.6143   -8.4847 O.3     1  UNL1       -0.4824
     16 C         -27.2178   49.7200   -5.9869 C.2     1  UNL1        0.2525
     17 O         -26.5444   50.0962   -4.9893 O.2     1  UNL1       -0.2697
     18 N         -28.4123   48.9383   -5.8028 N.am    1  UNL1       -0.2803
     19 H         -28.9316   48.6039   -6.6442 H       1  UNL1        0.1552
     20 C         -28.9037   48.5129   -4.5211 C.ar    1  UNL1        0.0510
     21 C         -29.8522   49.3019   -3.8567 C.ar    1  UNL1        0.0205
     22 C         -30.3425   48.9160   -2.6063 C.ar    1  UNL1        0.0227
     23 S         -31.5836   49.9122   -1.7869 S.3     1  UNL1       -0.1414
     24 C         -29.8683   47.7501   -1.9975 C.ar    1  UNL1        0.0098
     25 C         -28.8762   46.9750   -2.6221 C.ar    1  UNL1        0.0731
     26 C         -28.4096   47.3556   -3.8931 C.ar    1  UNL1        0.0186
     27 H         -30.6071   50.6865   -1.1325 H       1  UNL1        0.1071
     28 C         -28.3822   45.7027   -1.9794 C.3     1  UNL1        0.4186
     29 F         -27.0008   45.7005   -1.8915 F       1  UNL1       -0.1659
     30 F         -28.7690   44.5996   -2.7208 F       1  UNL1       -0.1659
     31 F         -28.9142   45.5997   -0.7078 F       1  UNL1       -0.1659
     32 N         -22.9544   52.1760  -11.3394 N.pl3   1  UNL1       -0.2814
     33 H         -23.0762   52.1615  -12.3769 H       1  UNL1        0.1551
     34 C         -21.7363   52.7255  -10.8111 C.ar    1  UNL1        0.0889
     35 C         -20.6196   51.8845  -10.6694 C.ar    1  UNL1        0.1543
     36 F         -20.6942   50.5816  -11.0408 F       1  UNL1       -0.2028
     37 C         -19.4143   52.3867  -10.1713 C.ar    1  UNL1        0.0310
     38 C         -19.3160   53.7266   -9.7950 C.ar    1  UNL1        0.0033
     39 C         -20.4263   54.5662   -9.9027 C.ar    1  UNL1        0.0128
     40 C         -21.6401   54.0756  -10.3995 C.ar    1  UNL1        0.0733
     41 CL        -23.0243   55.1630  -10.4154 Cl      1  UNL1       -0.0809
@<TRIPOS>BOND
     1     1     2    1
     2     2     3   ar
     3     3    32    1
     4    32    34    1
     5    34    35   ar
     6    35    36    1
     7    35    37   ar
     8    37    38   ar
     9    38    39   ar
    10    39    40   ar
    11    40    41    1
    12     3     4   ar
    13     4     5   ar
    14     5     6   ar
    15     6     7   ar
    16     7    16    1
    17    16    17    2
    18    16    18   am
    19    18    20    1
    20    20    21   ar
    21    21    22   ar
    22    22    23    1
    23    22    24   ar
    24    24    25   ar
    25    25    28    1
    26    28    29    1
    27    28    30    1
    28    28    31    1
    29    25    26   ar
    30     7     8   ar
    31     8     9   ar
    32     9    10   ar
    33     9    11    1
    34    11    12    1
    35    12    13    1
    36    12    14    1
    37    12    15    1
    38    10     2   ar
    39    40    34   ar
    40    10     5   ar
    41    26    20   ar
    42    15     8    1
    43    32    33    1
    44    18    19    1
    45    23    27    1
@<TRIPOS>MOLECULE
*****
 41 45 0 0 0
SMALL
GASTEIGER

@<TRIPOS>ATOM
      1 C         -30.6462   49.8920   -9.0601 C.3     1  UNL1        0.1332
      2 N         -29.4956   50.2458   -9.8918 N.ar    1  UNL1       -0.2977
      3 C         -29.4528   50.4441  -11.2412 C.ar    1  UNL1        0.2018
      4 N         -28.2102   50.7174  -11.7157 N.ar    1  UNL1       -0.2135
      5 C         -27.4562   50.7224  -10.6032 C.ar    1  UNL1        0.0999
      6 C         -26.0850   50.9949  -10.5117 C.ar    1  UNL1        0.0282
      7 C         -25.4847   51.0122   -9.2275 C.ar    1  UNL1        0.0888
      8 C         -26.3016   50.7228   -8.1073 C.ar    1  UNL1        0.1401
      9 C         -27.6438   50.4438   -8.2287 C.ar    1  UNL1        0.0327
     10 C         -28.2229   50.4503   -9.5013 C.ar    1  UNL1        0.0789
     11 C         -28.2300   50.1695   -6.8876 C.3     1  UNL1        0.0709
     12 C         -27.0118   50.3837   -5.9306 C.3     1  UNL1        0.1375
     13 C         -26.7100   49.1222   -5.1106 C.3     1  UNL1        0.0439
     14 C         -27.2396   51.5840   -5.0017 C.3     1  UNL1        0.0439
     15 O         -25.9036   50.6626   -6.7880 O.3     1  UNL1       -0.4824
     16 C         -24.0437   51.3101   -9.0890 C.2     1  UNL1        0.2525
     17 O         -23.4747   51.0638   -7.9909 O.2     1  UNL1       -0.2697
     18 N         -23.2962   51.8715  -10.1835 N.am    1  UNL1       -0.2803
     19 H         -23.7963   52.1046  -11.0695 H       1  UNL1        0.1552
     20 C         -21.9018   52.2116  -10.1123 C.ar    1  UNL1        0.0510
     21 C         -21.0414   51.7853  -11.1328 C.ar    1  UNL1        0.0205
     22 C         -19.6797   52.0960  -11.0861 C.ar    1  UNL1        0.0227
     23 S         -18.5991   51.5796  -12.4164 S.3     1  UNL1       -0.1414
     24 C         -19.1621   52.8142  -10.0039 C.ar    1  UNL1        0.0098
     25 C         -19.9983   53.2024   -8.9431 C.ar    1  UNL1        0.0731
     26 C         -21.3722   52.9101   -9.0126 C.ar    1  UNL1        0.0186
     27 H         -18.3122   50.3571  -11.7806 H       1  UNL1        0.1071
     28 C         -19.4471   54.0000   -7.7873 C.3     1  UNL1        0.4186
     29 F         -18.0867   53.7862   -7.6468 F       1  UNL1       -0.1659
     30 F         -20.0656   53.6350   -6.6039 F       1  UNL1       -0.1659
     31 F         -19.6701   55.3448   -8.0159 F       1  UNL1       -0.1659
     32 N         -30.5950   50.4056  -12.1088 N.pl3   1  UNL1       -0.2814
     33 H         -31.3891   51.0482  -11.8902 H       1  UNL1        0.1551
     34 C         -30.7417   49.5060  -13.2198 C.ar    1  UNL1        0.0889
     35 C         -31.2518   50.0033  -14.4310 C.ar    1  UNL1        0.1543
     36 F         -31.5837   51.3139  -14.5455 F       1  UNL1       -0.2028
     37 C         -31.3963   49.1611  -15.5368 C.ar    1  UNL1        0.0310
     38 C         -31.0494   47.8131  -15.4406 C.ar    1  UNL1        0.0033
     39 C         -30.5692   47.2992  -14.2346 C.ar    1  UNL1        0.0128
     40 C         -30.4203   48.1320  -13.1187 C.ar    1  UNL1        0.0733
     41 CL        -29.9037   47.3974  -11.6047 Cl      1  UNL1       -0.0809
@<TRIPOS>BOND
     1     1     2    1
     2     2     3   ar
     3     3    32    1
     4    32    34    1
     5    34    35   ar
     6    35    36    1
     7    35    37   ar
     8    37    38   ar
     9    38    39   ar
    10    39    40   ar
    11    40    41    1
    12     3     4   ar
    13     4     5   ar
    14     5     6   ar
    15     6     7   ar
    16     7    16    1
    17    16    17    2
    18    16    18   am
    19    18    20    1
    20    20    21   ar
    21    21    22   ar
    22    22    23    1
    23    22    24   ar
    24    24    25   ar
    25    25    28    1
    26    28    29    1
    27    28    30    1
    28    28    31    1
    29    25    26   ar
    30     7     8   ar
    31     8     9   ar
    32     9    10   ar
    33     9    11    1
    34    11    12    1
    35    12    13    1
    36    12    14    1
    37    12    15    1
    38    10     2   ar
    39    40    34   ar
    40    10     5   ar
    41    26    20   ar
    42    15     8    1
    43    32    33    1
    44    18    19    1
    45    23    27    1
@<TRIPOS>MOLECULE
*****
 41 45 0 0 0
SMALL
GASTEIGER

@<TRIPOS>ATOM
      1 C         -29.8389   47.2626   -8.2485 C.3     1  UNL1        0.1332
      2 N         -28.4739   47.6179   -7.8597 N.ar    1  UNL1       -0.2977
      3 C         -27.6607   46.9988   -6.9557 C.ar    1  UNL1        0.2018
      4 N         -26.4598   47.6107   -6.7900 N.ar    1  UNL1       -0.2135
      5 C         -26.5204   48.6355   -7.6573 C.ar    1  UNL1        0.0999
      6 C         -25.5181   49.5766   -7.9264 C.ar    1  UNL1        0.0282
      7 C         -25.7570   50.5486   -8.9304 C.ar    1  UNL1        0.0888
      8 C         -27.0118   50.5320   -9.5871 C.ar    1  UNL1        0.1401
      9 C         -27.9841   49.6040   -9.2916 C.ar    1  UNL1        0.0327
     10 C         -27.7235   48.6408   -8.3121 C.ar    1  UNL1        0.0789
     11 C         -29.1902   49.8453  -10.1310 C.3     1  UNL1        0.0709
     12 C         -28.7515   51.0534  -11.0220 C.3     1  UNL1        0.1375
     13 C         -29.6878   52.2558  -10.8427 C.3     1  UNL1        0.0439
     14 C         -28.6727   50.6525  -12.5014 C.3     1  UNL1        0.0439
     15 O         -27.4443   51.4038  -10.5647 O.3     1  UNL1       -0.4824
     16 C         -24.7183   51.5491   -9.2530 C.2     1  UNL1        0.2525
     17 O         -25.0756   52.7165   -9.5687 O.2     1  UNL1       -0.2697
     18 N         -23.3213   51.2048   -9.2097 N.am    1  UNL1       -0.2803
     19 H         -23.0501   50.2222   -8.9852 H       1  UNL1        0.1552
     20 C         -22.2594   52.1162   -9.5367 C.ar    1  UNL1        0.0510
     21 C         -22.1540   52.6006  -10.8473 C.ar    1  UNL1        0.0205
     22 C         -21.1274   53.4827  -11.1951 C.ar    1  UNL1        0.0227
     23 S         -21.0281   54.1253  -12.8629 S.3     1  UNL1       -0.1414
     24 C         -20.1815   53.8677  -10.2402 C.ar    1  UNL1        0.0098
     25 C         -20.2371   53.3492   -8.9351 C.ar    1  UNL1        0.0731
     26 C         -21.2901   52.4845   -8.5866 C.ar    1  UNL1        0.0186
     27 H         -20.2132   53.0574  -13.2830 H       1  UNL1        0.1071
     28 C         -19.2331   53.7835   -7.8963 C.3     1  UNL1        0.4186
     29 F         -18.9819   55.1413   -7.9925 F       1  UNL1       -0.1659
     30 F         -18.0353   53.1102   -8.0643 F       1  UNL1       -0.1659
     31 F         -19.7327   53.5063   -6.6376 F       1  UNL1       -0.1659
     32 N         -27.9935   45.7962   -6.2473 N.pl3   1  UNL1       -0.2814
     33 H         -28.3324   44.9832   -6.8091 H       1  UNL1        0.1551
     34 C         -27.9454   45.6550   -4.8181 C.ar    1  UNL1        0.0889
     35 C         -26.7056   45.4130   -4.2028 C.ar    1  UNL1        0.1543
     36 F         -25.5765   45.3300   -4.9508 F       1  UNL1       -0.2028
     37 C         -26.6181   45.2830   -2.8142 C.ar    1  UNL1        0.0310
     38 C         -27.7672   45.3767   -2.0283 C.ar    1  UNL1        0.0033
     39 C         -29.0097   45.5874   -2.6290 C.ar    1  UNL1        0.0128
     40 C         -29.1115   45.7187   -4.0194 C.ar    1  UNL1        0.0733
     41 CL        -30.7193   45.8838   -4.7166 Cl      1  UNL1       -0.0809
@<TRIPOS>BOND
     1     1     2    1
     2     2     3   ar
     3     3    32    1
     4    32    34    1
     5    34    35   ar
     6    35    36    1
     7    35    37   ar
     8    37    38   ar
     9    38    39   ar
    10    39    40   ar
    11    40    41    1
    12     3     4   ar
    13     4     5   ar
    14     5     6   ar
    15     6     7   ar
    16     7    16    1
    17    16    17    2
    18    16    18   am
    19    18    20    1
    20    20    21   ar
    21    21    22   ar
    22    22    23    1
    23    22    24   ar
    24    24    25   ar
    25    25    28    1
    26    28    29    1
    27    28    30    1
    28    28    31    1
    29    25    26   ar
    30     7     8   ar
    31     8     9   ar
    32     9    10   ar
    33     9    11    1
    34    11    12    1
    35    12    13    1
    36    12    14    1
    37    12    15    1
    38    10     2   ar
    39    40    34   ar
    40    10     5   ar
    41    26    20   ar
    42    15     8    1
    43    32    33    1
    44    18    19    1
    45    23    27    1
@<TRIPOS>MOLECULE
*****
 41 45 0 0 0
SMALL
GASTEIGER

@<TRIPOS>ATOM
      1 C         -24.0050   52.6709  -11.3482 C.3     1  UNL1        0.1332
      2 N         -23.7659   52.0385  -10.0507 N.ar    1  UNL1       -0.2977
      3 C         -22.6349   52.0677   -9.2879 C.ar    1  UNL1        0.2018
      4 N         -22.7230   51.3337   -8.1488 N.ar    1  UNL1       -0.2135
      5 C         -23.9788   50.8569   -8.1929 C.ar    1  UNL1        0.0999
      6 C         -24.6161   50.0619   -7.2314 C.ar    1  UNL1        0.0282
      7 C         -25.9751   49.7142   -7.4365 C.ar    1  UNL1        0.0888
      8 C         -26.6062   50.1670   -8.6209 C.ar    1  UNL1        0.1401
      9 C         -25.9505   50.9350   -9.5559 C.ar    1  UNL1        0.0327
     10 C         -24.6160   51.2845   -9.3275 C.ar    1  UNL1        0.0789
     11 C         -26.8631   51.2445  -10.6911 C.3     1  UNL1        0.0709
     12 C         -28.2022   50.5687  -10.2484 C.3     1  UNL1        0.1375
     13 C         -28.6733   49.5266  -11.2716 C.3     1  UNL1        0.0439
     14 C         -29.2988   51.6149  -10.0065 C.3     1  UNL1        0.0439
     15 O         -27.9037   49.9137   -9.0144 O.3     1  UNL1       -0.4824
     16 C         -26.6861   48.8891   -6.4375 C.2     1  UNL1        0.2525
     17 O         -27.4171   47.9434   -6.8392 O.2     1  UNL1       -0.2697
     18 N         -26.5514   49.1540   -5.0291 N.am    1  UNL1       -0.2803
     19 H         -25.9734   49.9667   -4.7212 H       1  UNL1        0.1552
     20 C         -27.2328   48.4123   -4.0040 C.ar    1  UNL1        0.0510
     21 C         -26.6970   47.1913   -3.5735 C.ar    1  UNL1        0.0205
     22 C         -27.3419   46.4456   -2.5830 C.ar    1  UNL1        0.0227
     23 S         -26.6254   44.9072   -2.0138 S.3     1  UNL1       -0.1414
     24 C         -28.5431   46.9030   -2.0328 C.ar    1  UNL1        0.0098
     25 C         -29.1257   48.0971   -2.4909 C.ar    1  UNL1        0.0731
     26 C         -28.4550   48.8551   -3.4675 C.ar    1  UNL1        0.0186
     27 H         -27.3196   44.1622   -2.9855 H       1  UNL1        0.1071
     28 C         -30.4080   48.6059   -1.8804 C.3     1  UNL1        0.4186
     29 F         -31.3848   47.6252   -1.8999 F       1  UNL1       -0.1659
     30 F         -30.8818   49.7007   -2.5826 F       1  UNL1       -0.1659
     31 F         -30.1710   48.9790   -0.5707 F       1  UNL1       -0.1659
     32 N         -21.4527   52.8150   -9.6087 N.pl3   1  UNL1       -0.2814
     33 H         -21.5695   53.6801  -10.1826 H       1  UNL1        0.1551
     34 C         -20.1195   52.4237   -9.2423 C.ar    1  UNL1        0.0889
     35 C         -19.6749   52.6767   -7.9336 C.ar    1  UNL1        0.1543
     36 F         -20.5012   53.2672   -7.0337 F       1  UNL1       -0.2028
     37 C         -18.3892   52.2987   -7.5375 C.ar    1  UNL1        0.0310
     38 C         -17.5299   51.6802   -8.4462 C.ar    1  UNL1        0.0033
     39 C         -17.9482   51.4496   -9.7581 C.ar    1  UNL1        0.0128
     40 C         -19.2336   51.8241  -10.1682 C.ar    1  UNL1        0.0733
     41 CL        -19.6591   51.5933  -11.8606 Cl      1  UNL1       -0.0809
@<TRIPOS>BOND
     1     1     2    1
     2     2     3   ar
     3     3    32    1
     4    32    34    1
     5    34    35   ar
     6    35    36    1
     7    35    37   ar
     8    37    38   ar
     9    38    39   ar
    10    39    40   ar
    11    40    41    1
    12     3     4   ar
    13     4     5   ar
    14     5     6   ar
    15     6     7   ar
    16     7    16    1
    17    16    17    2
    18    16    18   am
    19    18    20    1
    20    20    21   ar
    21    21    22   ar
    22    22    23    1
    23    22    24   ar
    24    24    25   ar
    25    25    28    1
    26    28    29    1
    27    28    30    1
    28    28    31    1
    29    25    26   ar
    30     7     8   ar
    31     8     9   ar
    32     9    10   ar
    33     9    11    1
    34    11    12    1
    35    12    13    1
    36    12    14    1
    37    12    15    1
    38    10     2   ar
    39    40    34   ar
    40    10     5   ar
    41    26    20   ar
    42    15     8    1
    43    32    33    1
    44    18    19    1
    45    23    27    1
@<TRIPOS>MOLECULE
*****
 41 45 0 0 0
SMALL
GASTEIGER

@<TRIPOS>ATOM
      1 C         -23.7148   52.9145  -11.3684 C.3     1  UNL1        0.1332
      2 N         -23.4975   52.2354  -10.0909 N.ar    1  UNL1       -0.2977
      3 C         -22.3791   52.2355   -9.3091 C.ar    1  UNL1        0.2018
      4 N         -22.4865   51.4610   -8.1989 N.ar    1  UNL1       -0.2135
      5 C         -23.7418   50.9880   -8.2806 C.ar    1  UNL1        0.0999
      6 C         -24.3955   50.1597   -7.3590 C.ar    1  UNL1        0.0282
      7 C         -25.7512   49.8216   -7.5987 C.ar    1  UNL1        0.0888
      8 C         -26.3624   50.3177   -8.7761 C.ar    1  UNL1        0.1401
      9 C         -25.6908   51.1180   -9.6720 C.ar    1  UNL1        0.0327
     10 C         -24.3600   51.4571   -9.4094 C.ar    1  UNL1        0.0789
     11 C         -26.5844   51.4695  -10.8101 C.3     1  UNL1        0.0709
     12 C         -27.9312   50.7801  -10.4140 C.3     1  UNL1        0.1375
     13 C         -28.3863   49.7763  -11.4816 C.3     1  UNL1        0.0439
     14 C         -29.0307   51.8185  -10.1525 C.3     1  UNL1        0.0439
     15 O         -27.6535   50.0807   -9.1997 O.3     1  UNL1       -0.4824
     16 C         -26.4792   48.9620   -6.6419 C.2     1  UNL1        0.2525
     17 O         -27.2336   48.0565   -7.0901 O.2     1  UNL1       -0.2697
     18 N         -26.3347   49.1490   -5.2220 N.am    1  UNL1       -0.2803
     19 H         -25.7366   49.9304   -4.8739 H       1  UNL1        0.1552
     20 C         -27.0309   48.3706   -4.2349 C.ar    1  UNL1        0.0510
     21 C         -28.2411   48.8497   -3.7158 C.ar    1  UNL1        0.0205
     22 C         -28.9362   48.1169   -2.7500 C.ar    1  UNL1        0.0227
     23 S         -30.5010   48.7209   -2.1249 S.3     1  UNL1       -0.1414
     24 C         -28.4130   46.9101   -2.2759 C.ar    1  UNL1        0.0098
     25 C         -27.1734   46.4404   -2.7428 C.ar    1  UNL1        0.0731
     26 C         -26.4950   47.1701   -3.7355 C.ar    1  UNL1        0.0186
     27 H         -29.8720   49.4352   -1.0880 H       1  UNL1        0.1071
     28 C         -26.6196   45.1257   -2.2521 C.3     1  UNL1        0.4186
     29 F         -27.0900   44.8372   -0.9826 F       1  UNL1       -0.1659
     30 F         -25.2369   45.1678   -2.2007 F       1  UNL1       -0.1659
     31 F         -27.0077   44.1185   -3.1155 F       1  UNL1       -0.1659
     32 N         -21.1912   52.9922   -9.5834 N.pl3   1  UNL1       -0.2814
     33 H         -21.3022   53.8962  -10.0951 H       1  UNL1        0.1551
     34 C         -19.8601   52.5638   -9.2522 C.ar    1  UNL1        0.0889
     35 C         -19.3863   52.7738   -7.9462 C.ar    1  UNL1        0.1543
     36 F         -20.1831   53.3582   -7.0163 F       1  UNL1       -0.2028
     37 C         -18.1019   52.3589   -7.5841 C.ar    1  UNL1        0.0310
     38 C         -17.2729   51.7460   -8.5243 C.ar    1  UNL1        0.0033
     39 C         -17.7201   51.5578   -9.8334 C.ar    1  UNL1        0.0128
     40 C         -19.0045   51.9696  -10.2096 C.ar    1  UNL1        0.0733
     41 CL        -19.4658   51.7912  -11.8989 Cl      1  UNL1       -0.0809
@<TRIPOS>BOND
     1     1     2    1
     2     2     3   ar
     3     3    32    1
     4    32    34    1
     5    34    35   ar
     6    35    36    1
     7    35    37   ar
     8    37    38   ar
     9    38    39   ar
    10    39    40   ar
    11    40    41    1
    12     3     4   ar
    13     4     5   ar
    14     5     6   ar
    15     6     7   ar
    16     7    16    1
    17    16    17    2
    18    16    18   am
    19    18    20    1
    20    20    21   ar
    21    21    22   ar
    22    22    23    1
    23    22    24   ar
    24    24    25   ar
    25    25    28    1
    26    28    29    1
    27    28    30    1
    28    28    31    1
    29    25    26   ar
    30     7     8   ar
    31     8     9   ar
    32     9    10   ar
    33     9    11    1
    34    11    12    1
    35    12    13    1
    36    12    14    1
    37    12    15    1
    38    10     2   ar
    39    40    34   ar
    40    10     5   ar
    41    26    20   ar
    42    15     8    1
    43    32    33    1
    44    18    19    1
    45    23    27    1
@<TRIPOS>MOLECULE
*****
 41 45 0 0 0
SMALL
GASTEIGER

@<TRIPOS>ATOM
      1 C         -29.2895   51.2577  -12.1894 C.3     1  UNL1        0.1332
      2 N         -29.6443   49.9473  -11.6439 N.ar    1  UNL1       -0.2977
      3 C         -30.4135   48.9725  -12.2096 C.ar    1  UNL1        0.2018
      4 N         -30.5899   47.8844  -11.4165 N.ar    1  UNL1       -0.2135
      5 C         -29.8677   48.1863  -10.3241 C.ar    1  UNL1        0.0999
      6 C         -29.6676   47.3834   -9.1937 C.ar    1  UNL1        0.0282
      7 C         -28.8132   47.8620   -8.1686 C.ar    1  UNL1        0.0888
      8 C         -28.2310   49.1428   -8.3319 C.ar    1  UNL1        0.1401
      9 C         -28.4573   49.9165   -9.4473 C.ar    1  UNL1        0.0327
     10 C         -29.2874   49.4200  -10.4570 C.ar    1  UNL1        0.0789
     11 C         -27.7251   51.2076   -9.3285 C.3     1  UNL1        0.0709
     12 C         -26.9753   51.0523   -7.9649 C.3     1  UNL1        0.1375
     13 C         -27.3612   52.1632   -6.9792 C.3     1  UNL1        0.0439
     14 C         -25.4543   51.0215   -8.1677 C.3     1  UNL1        0.0439
     15 O         -27.4006   49.7924   -7.4425 O.3     1  UNL1       -0.4824
     16 C         -28.5657   47.0375   -6.9673 C.2     1  UNL1        0.2525
     17 O         -28.4912   45.7851   -7.0941 O.2     1  UNL1       -0.2697
     18 N         -28.4113   47.6460   -5.6719 N.am    1  UNL1       -0.2803
     19 H         -28.5169   48.6807   -5.5842 H       1  UNL1        0.1552
     20 C         -28.1964   46.9069   -4.4584 C.ar    1  UNL1        0.0510
     21 C         -29.2548   46.7579   -3.5524 C.ar    1  UNL1        0.0205
     22 C         -29.0724   46.0499   -2.3614 C.ar    1  UNL1        0.0227
     23 S         -30.4440   45.8330   -1.2318 S.3     1  UNL1       -0.1414
     24 C         -27.8213   45.5067   -2.0543 C.ar    1  UNL1        0.0098
     25 C         -26.7326   45.6930   -2.9234 C.ar    1  UNL1        0.0731
     26 C         -26.9328   46.3823   -4.1329 C.ar    1  UNL1        0.0186
     27 H         -30.1319   47.0187   -0.5405 H       1  UNL1        0.1071
     28 C         -25.3885   45.0855   -2.6067 C.3     1  UNL1        0.4186
     29 F         -25.3981   44.4963   -1.3542 F       1  UNL1       -0.1659
     30 F         -24.4000   46.0545   -2.6201 F       1  UNL1       -0.1659
     31 F         -25.0898   44.1243   -3.5540 F       1  UNL1       -0.1659
     32 N         -30.9772   49.0390  -13.5275 N.pl3   1  UNL1       -0.2814
     33 H         -31.6678   49.7991  -13.7192 H       1  UNL1        0.1551
     34 C         -30.6987   48.1000  -14.5790 C.ar    1  UNL1        0.0889
     35 C         -30.2534   48.5855  -15.8201 C.ar    1  UNL1        0.1543
     36 F         -30.0780   49.9177  -16.0093 F       1  UNL1       -0.2028
     37 C         -29.9603   47.7015  -16.8619 C.ar    1  UNL1        0.0310
     38 C         -30.1239   46.3276  -16.6815 C.ar    1  UNL1        0.0033
     39 C         -30.5938   45.8336  -15.4632 C.ar    1  UNL1        0.0128
     40 C         -30.8920   46.7086  -14.4113 C.ar    1  UNL1        0.0733
     41 CL        -31.5730   46.0258  -12.9387 Cl      1  UNL1       -0.0809
@<TRIPOS>BOND
     1     1     2    1
     2     2     3   ar
     3     3    32    1
     4    32    34    1
     5    34    35   ar
     6    35    36    1
     7    35    37   ar
     8    37    38   ar
     9    38    39   ar
    10    39    40   ar
    11    40    41    1
    12     3     4   ar
    13     4     5   ar
    14     5     6   ar
    15     6     7   ar
    16     7    16    1
    17    16    17    2
    18    16    18   am
    19    18    20    1
    20    20    21   ar
    21    21    22   ar
    22    22    23    1
    23    22    24   ar
    24    24    25   ar
    25    25    28    1
    26    28    29    1
    27    28    30    1
    28    28    31    1
    29    25    26   ar
    30     7     8   ar
    31     8     9   ar
    32     9    10   ar
    33     9    11    1
    34    11    12    1
    35    12    13    1
    36    12    14    1
    37    12    15    1
    38    10     2   ar
    39    40    34   ar
    40    10     5   ar
    41    26    20   ar
    42    15     8    1
    43    32    33    1
    44    18    19    1
    45    23    27    1
@<TRIPOS>MOLECULE
*****
 41 45 0 0 0
SMALL
GASTEIGER

@<TRIPOS>ATOM
      1 C         -24.0460   52.6962  -11.4306 C.3     1  UNL1        0.1332
      2 N         -23.7460   52.0921  -10.1322 N.ar    1  UNL1       -0.2977
      3 C         -22.5922   52.1669   -9.4076 C.ar    1  UNL1        0.2018
      4 N         -22.6213   51.4490   -8.2553 N.ar    1  UNL1       -0.2135
      5 C         -23.8630   50.9349   -8.2507 C.ar    1  UNL1        0.0999
      6 C         -24.4448   50.1372   -7.2569 C.ar    1  UNL1        0.0282
      7 C         -25.7987   49.7464   -7.4118 C.ar    1  UNL1        0.0888
      8 C         -26.4812   50.1613   -8.5814 C.ar    1  UNL1        0.1401
      9 C         -25.8794   50.9330   -9.5491 C.ar    1  UNL1        0.0327
     10 C         -24.5493   51.3252   -9.3701 C.ar    1  UNL1        0.0789
     11 C         -26.8372   51.1972  -10.6582 C.3     1  UNL1        0.0709
     12 C         -28.1404   50.4896  -10.1615 C.3     1  UNL1        0.1375
     13 C         -28.6132   49.4177  -11.1526 C.3     1  UNL1        0.0439
     14 C         -29.2594   51.5069   -9.8995 C.3     1  UNL1        0.0439
     15 O         -27.7826   49.8637   -8.9281 O.3     1  UNL1       -0.4824
     16 C         -26.4519   48.9170   -6.3775 C.2     1  UNL1        0.2525
     17 O         -27.1525   49.4845   -5.4960 O.2     1  UNL1       -0.2697
     18 N         -26.2958   47.4860   -6.3699 N.am    1  UNL1       -0.2803
     19 H         -25.6787   47.0416   -7.0849 H       1  UNL1        0.1552
     20 C         -26.8776   46.6203   -5.3814 C.ar    1  UNL1        0.0510
     21 C         -26.0419   45.9807   -4.4563 C.ar    1  UNL1        0.0205
     22 C         -26.5797   45.1282   -3.4883 C.ar    1  UNL1        0.0227
     23 S         -25.5050   44.3490   -2.2874 S.3     1  UNL1       -0.1414
     24 C         -27.9566   44.8879   -3.4540 C.ar    1  UNL1        0.0098
     25 C         -28.8049   45.4758   -4.4079 C.ar    1  UNL1        0.0731
     26 C         -28.2584   46.3545   -5.3604 C.ar    1  UNL1        0.0186
     27 H         -25.3004   43.2304   -3.1168 H       1  UNL1        0.1071
     28 C         -30.2938   45.2387   -4.3567 C.3     1  UNL1        0.4186
     29 F         -30.5878   44.1202   -3.5960 F       1  UNL1       -0.1659
     30 F         -30.8001   45.0399   -5.6297 F       1  UNL1       -0.1659
     31 F         -30.9103   46.3404   -3.7939 F       1  UNL1       -0.1659
     32 N         -21.4440   52.9433   -9.7785 N.pl3   1  UNL1       -0.2814
     33 H         -21.6121   53.8447  -10.2792 H       1  UNL1        0.1551
     34 C         -20.0831   52.5381   -9.5579 C.ar    1  UNL1        0.0889
     35 C         -19.4141   51.8315  -10.5715 C.ar    1  UNL1        0.1543
     36 F         -20.0444   51.5536  -11.7406 F       1  UNL1       -0.2028
     37 C         -18.0862   51.4324  -10.3979 C.ar    1  UNL1        0.0310
     38 C         -17.4187   51.7195   -9.2067 C.ar    1  UNL1        0.0033
     39 C         -18.0806   52.3949   -8.1798 C.ar    1  UNL1        0.0128
     40 C         -19.4115   52.7998   -8.3405 C.ar    1  UNL1        0.0733
     41 CL        -20.2138   53.5584   -6.9696 Cl      1  UNL1       -0.0809
@<TRIPOS>BOND
     1     1     2    1
     2     2     3   ar
     3     3    32    1
     4    32    34    1
     5    34    35   ar
     6    35    36    1
     7    35    37   ar
     8    37    38   ar
     9    38    39   ar
    10    39    40   ar
    11    40    41    1
    12     3     4   ar
    13     4     5   ar
    14     5     6   ar
    15     6     7   ar
    16     7    16    1
    17    16    17    2
    18    16    18   am
    19    18    20    1
    20    20    21   ar
    21    21    22   ar
    22    22    23    1
    23    22    24   ar
    24    24    25   ar
    25    25    28    1
    26    28    29    1
    27    28    30    1
    28    28    31    1
    29    25    26   ar
    30     7     8   ar
    31     8     9   ar
    32     9    10   ar
    33     9    11    1
    34    11    12    1
    35    12    13    1
    36    12    14    1
    37    12    15    1
    38    10     2   ar
    39    40    34   ar
    40    10     5   ar
    41    26    20   ar
    42    15     8    1
    43    32    33    1
    44    18    19    1
    45    23    27    1
