@<TRIPOS>MOLECULE
*****
 40 44 0 0 0
SMALL
GASTEIGER

@<TRIPOS>ATOM
      1 C          -7.3910  -18.1814   21.3950 C.3     1  UNL1        0.1333
      2 N          -6.9336  -17.1555   22.3329 N.ar    1  UNL1       -0.2950
      3 C          -5.9297  -16.2483   22.1743 C.ar    1  UNL1        0.2019
      4 N          -5.8148  -15.3750   23.2071 N.ar    1  UNL1       -0.2134
      5 C          -6.7747  -15.7860   24.0548 C.ar    1  UNL1        0.1033
      6 C          -7.0816  -15.2472   25.3020 C.ar    1  UNL1        0.0284
      7 C          -8.1361  -15.8270   26.0434 C.ar    1  UNL1        0.0922
      8 C          -8.8208  -16.9580   25.5180 C.ar    1  UNL1        0.1782
      9 C          -8.4628  -17.4912   24.2614 C.ar    1  UNL1        0.1897
     10 C          -7.4457  -16.8586   23.5419 C.ar    1  UNL1        0.1173
     11 O          -9.1123  -18.6365   23.7912 O.3     1  UNL1       -0.4669
     12 C          -9.9217  -19.4342   24.6574 C.3     1  UNL1        0.2527
     13 C         -10.7125  -18.5382   25.6175 C.3     1  UNL1        0.2526
     14 O          -9.8408  -17.5913   26.2388 O.3     1  UNL1       -0.4682
     15 C          -8.4906  -15.2533   27.3583 C.2     1  UNL1        0.2526
     16 O          -8.8538  -16.0293   28.2835 O.2     1  UNL1       -0.2697
     17 N          -8.4193  -13.8339   27.5849 N.am    1  UNL1       -0.2803
     18 H          -8.1546  -13.2121   26.7887 H       1  UNL1        0.1552
     19 C          -8.7690  -13.1986   28.8258 C.ar    1  UNL1        0.0506
     20 C         -10.0218  -13.4052   29.4264 C.ar    1  UNL1        0.0170
     21 C         -10.3256  -12.7985   30.6464 C.ar    1  UNL1        0.0309
     22 C          -9.3825  -11.9912   31.2867 C.ar    1  UNL1        0.1441
     23 F          -9.7019  -11.4172   32.4748 F       1  UNL1       -0.2042
     24 C          -8.1143  -11.7882   30.7120 C.ar    1  UNL1        0.1000
     25 C          -7.8143  -12.4086   29.4840 C.ar    1  UNL1        0.0208
     26 C          -7.0985  -10.9281   31.4253 C.3     1  UNL1        0.4207
     27 F          -7.0238  -11.2322   32.7738 F       1  UNL1       -0.1658
     28 F          -7.4493   -9.5969   31.2932 F       1  UNL1       -0.1658
     29 F          -5.8499  -11.1239   30.8633 F       1  UNL1       -0.1658
     30 N          -5.0613  -16.1890   21.0343 N.pl3   1  UNL1       -0.2814
     31 H          -5.3259  -15.5377   20.2618 H       1  UNL1        0.1551
     32 C          -3.7827  -16.8440   20.9659 C.ar    1  UNL1        0.0889
     33 C          -2.6526  -16.2966   21.6078 C.ar    1  UNL1        0.1547
     34 F          -2.7365  -15.1250   22.2868 F       1  UNL1       -0.2028
     35 C          -1.4156  -16.9424   21.5269 C.ar    1  UNL1        0.0368
     36 C          -1.2872  -18.1279   20.8004 C.ar    1  UNL1        0.0332
     37 I           0.5826  -19.0966   20.6836 I       1  UNL1       -0.0424
     38 C          -2.3965  -18.6684   20.1458 C.ar    1  UNL1        0.0186
     39 C          -3.6401  -18.0307   20.2198 C.ar    1  UNL1        0.0737
     40 CL         -5.0147  -18.7633   19.4031 Cl      1  UNL1       -0.0809
@<TRIPOS>BOND
     1     1     2    1
     2     2     3   ar
     3     3    30    1
     4    30    32    1
     5    32    33   ar
     6    33    34    1
     7    33    35   ar
     8    35    36   ar
     9    36    37    1
    10    36    38   ar
    11    38    39   ar
    12    39    40    1
    13     3     4   ar
    14     4     5   ar
    15     5     6   ar
    16     6     7   ar
    17     7    15    1
    18    15    16    2
    19    15    17   am
    20    17    19    1
    21    19    20   ar
    22    20    21   ar
    23    21    22   ar
    24    22    23    1
    25    22    24   ar
    26    24    26    1
    27    26    27    1
    28    26    28    1
    29    26    29    1
    30    24    25   ar
    31     7     8   ar
    32     8     9   ar
    33     9    10   ar
    34     9    11    1
    35    11    12    1
    36    12    13    1
    37    13    14    1
    38    10     2   ar
    39    39    32   ar
    40    10     5   ar
    41    25    19   ar
    42    14     8    1
    43    30    31    1
    44    17    18    1
@<TRIPOS>MOLECULE
*****
 40 44 0 0 0
SMALL
GASTEIGER

@<TRIPOS>ATOM
      1 C          -7.4910  -18.1350   21.4439 C.3     1  UNL1        0.1333
      2 N          -6.9754  -17.1262   22.3701 N.ar    1  UNL1       -0.2950
      3 C          -5.9440  -16.2551   22.1871 C.ar    1  UNL1        0.2019
      4 N          -5.7738  -15.3867   23.2163 N.ar    1  UNL1       -0.2134
      5 C          -6.7273  -15.7635   24.0869 C.ar    1  UNL1        0.1033
      6 C          -6.9852  -15.2145   25.3406 C.ar    1  UNL1        0.0284
      7 C          -8.0417  -15.7566   26.1072 C.ar    1  UNL1        0.0922
      8 C          -8.7784  -16.8625   25.5988 C.ar    1  UNL1        0.1782
      9 C          -8.4694  -17.4078   24.3345 C.ar    1  UNL1        0.1897
     10 C          -7.4479  -16.8116   23.5906 C.ar    1  UNL1        0.1173
     11 O          -9.1701  -18.5293   23.8805 O.3     1  UNL1       -0.4669
     12 C          -9.9865  -19.2979   24.7661 C.3     1  UNL1        0.2527
     13 C         -10.7221  -18.3746   25.7441 C.3     1  UNL1        0.2526
     14 O          -9.8028  -17.4594   26.3440 O.3     1  UNL1       -0.4682
     15 C          -8.3444  -15.1711   27.4298 C.2     1  UNL1        0.2526
     16 O          -8.7541  -15.9276   28.3516 O.2     1  UNL1       -0.2697
     17 N          -8.1713  -13.7623   27.6674 N.am    1  UNL1       -0.2803
     18 H          -7.8697  -13.1537   26.8741 H       1  UNL1        0.1552
     19 C          -8.4655  -13.1149   28.9165 C.ar    1  UNL1        0.0506
     20 C          -7.5627  -12.2135   29.5043 C.ar    1  UNL1        0.0170
     21 C          -7.8854  -11.5766   30.7039 C.ar    1  UNL1        0.0309
     22 C          -9.1134  -11.8200   31.3235 C.ar    1  UNL1        0.1441
     23 F          -9.4041  -11.1835   32.4868 F       1  UNL1       -0.2042
     24 C         -10.0402  -12.7035   30.7404 C.ar    1  UNL1        0.1000
     25 C          -9.7088  -13.3374   29.5273 C.ar    1  UNL1        0.0208
     26 C         -11.3714  -12.9421   31.4122 C.3     1  UNL1        0.4207
     27 F         -11.3606  -12.5323   32.7345 F       1  UNL1       -0.1658
     28 F         -11.6714  -14.2916   31.3722 F       1  UNL1       -0.1658
     29 F         -12.3590  -12.2402   30.7451 F       1  UNL1       -0.1658
     30 N          -5.1013  -16.2265   21.0269 N.pl3   1  UNL1       -0.2814
     31 H          -5.3895  -15.6047   20.2387 H       1  UNL1        0.1551
     32 C          -3.8176  -16.8707   20.9526 C.ar    1  UNL1        0.0889
     33 C          -2.6869  -16.3084   21.5804 C.ar    1  UNL1        0.1547
     34 F          -2.7753  -15.1322   22.2508 F       1  UNL1       -0.2028
     35 C          -1.4450  -16.9440   21.4938 C.ar    1  UNL1        0.0368
     36 C          -1.3124  -18.1341   20.7756 C.ar    1  UNL1        0.0332
     37 I           0.5648  -19.0872   20.6503 I       1  UNL1       -0.0424
     38 C          -2.4225  -18.6894   20.1349 C.ar    1  UNL1        0.0186
     39 C          -3.6709  -18.0620   20.2147 C.ar    1  UNL1        0.0737
     40 CL         -5.0460  -18.8131   19.4156 Cl      1  UNL1       -0.0809
@<TRIPOS>BOND
     1     1     2    1
     2     2     3   ar
     3     3    30    1
     4    30    32    1
     5    32    33   ar
     6    33    34    1
     7    33    35   ar
     8    35    36   ar
     9    36    37    1
    10    36    38   ar
    11    38    39   ar
    12    39    40    1
    13     3     4   ar
    14     4     5   ar
    15     5     6   ar
    16     6     7   ar
    17     7    15    1
    18    15    16    2
    19    15    17   am
    20    17    19    1
    21    19    20   ar
    22    20    21   ar
    23    21    22   ar
    24    22    23    1
    25    22    24   ar
    26    24    26    1
    27    26    27    1
    28    26    28    1
    29    26    29    1
    30    24    25   ar
    31     7     8   ar
    32     8     9   ar
    33     9    10   ar
    34     9    11    1
    35    11    12    1
    36    12    13    1
    37    13    14    1
    38    10     2   ar
    39    39    32   ar
    40    10     5   ar
    41    25    19   ar
    42    14     8    1
    43    30    31    1
    44    17    18    1
@<TRIPOS>MOLECULE
*****
 40 44 0 0 0
SMALL
GASTEIGER

@<TRIPOS>ATOM
      1 C          -2.6122  -16.2893   22.3908 C.3     1  UNL1        0.1333
      2 N          -3.6093  -17.0283   21.6156 N.ar    1  UNL1       -0.2950
      3 C          -3.4261  -17.7757   20.4913 C.ar    1  UNL1        0.2019
      4 N          -4.5510  -18.4038   20.0640 N.ar    1  UNL1       -0.2134
      5 C          -5.4764  -17.9970   20.9512 C.ar    1  UNL1        0.1033
      6 C          -6.8293  -18.3277   20.9657 C.ar    1  UNL1        0.0284
      7 C          -7.6407  -17.7932   21.9922 C.ar    1  UNL1        0.0922
      8 C          -7.0669  -16.9095   22.9483 C.ar    1  UNL1        0.1782
      9 C          -5.6968  -16.5778   22.8844 C.ar    1  UNL1        0.1897
     10 C          -4.9219  -17.1652   21.8810 C.ar    1  UNL1        0.1173
     11 O          -5.1681  -15.6640   23.8010 O.3     1  UNL1       -0.4669
     12 C          -6.0214  -14.8551   24.6128 C.3     1  UNL1        0.2527
     13 C          -7.2399  -15.6647   25.0710 C.3     1  UNL1        0.2526
     14 O          -7.8434  -16.3216   23.9545 O.3     1  UNL1       -0.4682
     15 C          -9.0735  -18.1522   22.0367 C.2     1  UNL1        0.2526
     16 O          -9.4361  -19.2691   21.5773 O.2     1  UNL1       -0.2697
     17 N         -10.0413  -17.2474   22.5986 N.am    1  UNL1       -0.2803
     18 H          -9.7179  -16.3129   22.9343 H       1  UNL1        0.1552
     19 C         -11.4526  -17.5135   22.6570 C.ar    1  UNL1        0.0506
     20 C         -12.2404  -17.5449   21.4946 C.ar    1  UNL1        0.0170
     21 C         -13.6037  -17.8338   21.5765 C.ar    1  UNL1        0.0309
     22 C         -14.1938  -18.1068   22.8128 C.ar    1  UNL1        0.1441
     23 F         -15.5205  -18.3897   22.8636 F       1  UNL1       -0.2042
     24 C         -13.4180  -18.1008   23.9866 C.ar    1  UNL1        0.1000
     25 C         -12.0425  -17.8138   23.8942 C.ar    1  UNL1        0.0208
     26 C         -14.0662  -18.4163   25.3136 C.3     1  UNL1        0.4207
     27 F         -14.3707  -17.2672   26.0231 F       1  UNL1       -0.1658
     28 F         -13.2061  -19.1879   26.0736 F       1  UNL1       -0.1658
     29 F         -15.2368  -19.1218   25.1007 F       1  UNL1       -0.1658
     30 N          -2.1757  -17.9130   19.8023 N.pl3   1  UNL1       -0.2814
     31 H          -1.9928  -17.2644   19.0044 H       1  UNL1        0.1551
     32 C          -1.1083  -18.7707   20.2422 C.ar    1  UNL1        0.0889
     33 C          -1.3765  -20.0554   20.7585 C.ar    1  UNL1        0.1547
     34 F          -2.6506  -20.5067   20.8760 F       1  UNL1       -0.2028
     35 C          -0.3283  -20.8745   21.1872 C.ar    1  UNL1        0.0368
     36 C           0.9911  -20.4225   21.1183 C.ar    1  UNL1        0.0332
     37 I           2.5673  -21.6648   21.7667 I       1  UNL1       -0.0424
     38 C           1.2657  -19.1446   20.6256 C.ar    1  UNL1        0.0186
     39 C           0.2243  -18.3156   20.1934 C.ar    1  UNL1        0.0737
     40 CL          0.6205  -16.7256   19.5542 Cl      1  UNL1       -0.0809
@<TRIPOS>BOND
     1     1     2    1
     2     2     3   ar
     3     3    30    1
     4    30    32    1
     5    32    33   ar
     6    33    34    1
     7    33    35   ar
     8    35    36   ar
     9    36    37    1
    10    36    38   ar
    11    38    39   ar
    12    39    40    1
    13     3     4   ar
    14     4     5   ar
    15     5     6   ar
    16     6     7   ar
    17     7    15    1
    18    15    16    2
    19    15    17   am
    20    17    19    1
    21    19    20   ar
    22    20    21   ar
    23    21    22   ar
    24    22    23    1
    25    22    24   ar
    26    24    26    1
    27    26    27    1
    28    26    28    1
    29    26    29    1
    30    24    25   ar
    31     7     8   ar
    32     8     9   ar
    33     9    10   ar
    34     9    11    1
    35    11    12    1
    36    12    13    1
    37    13    14    1
    38    10     2   ar
    39    39    32   ar
    40    10     5   ar
    41    25    19   ar
    42    14     8    1
    43    30    31    1
    44    17    18    1
@<TRIPOS>MOLECULE
*****
 40 44 0 0 0
SMALL
GASTEIGER

@<TRIPOS>ATOM
      1 C          -9.2614  -15.1932   27.5066 C.3     1  UNL1        0.1333
      2 N          -7.8849  -14.8430   27.1545 N.ar    1  UNL1       -0.2950
      3 C          -6.9754  -14.1393   27.8851 C.ar    1  UNL1        0.2019
      4 N          -5.7514  -14.0608   27.3036 N.ar    1  UNL1       -0.2134
      5 C          -5.9271  -14.7219   26.1456 C.ar    1  UNL1        0.1033
      6 C          -4.9831  -14.9240   25.1416 C.ar    1  UNL1        0.0284
      7 C          -5.3688  -15.6525   23.9934 C.ar    1  UNL1        0.0922
      8 C          -6.7078  -16.1194   23.8788 C.ar    1  UNL1        0.1782
      9 C          -7.6425  -15.8716   24.9065 C.ar    1  UNL1        0.1897
     10 C          -7.2064  -15.1878   26.0443 C.ar    1  UNL1        0.1173
     11 O          -8.9665  -16.2915   24.7464 O.3     1  UNL1       -0.4669
     12 C          -9.4591  -16.7104   23.4722 C.3     1  UNL1        0.2527
     13 C          -8.3863  -17.5130   22.7273 C.3     1  UNL1        0.2526
     14 O          -7.1446  -16.8055   22.7388 O.3     1  UNL1       -0.4682
     15 C          -4.3734  -15.8965   22.9289 C.2     1  UNL1        0.2526
     16 O          -4.4717  -15.2594   21.8452 O.2     1  UNL1       -0.2697
     17 N          -3.3051  -16.8411   23.1234 N.am    1  UNL1       -0.2803
     18 H          -3.2723  -17.3838   24.0150 H       1  UNL1        0.1552
     19 C          -2.3136  -17.1503   22.1299 C.ar    1  UNL1        0.0506
     20 C          -1.9873  -16.2384   21.1125 C.ar    1  UNL1        0.0170
     21 C          -1.0002  -16.5522   20.1767 C.ar    1  UNL1        0.0309
     22 C          -0.3194  -17.7697   20.2510 C.ar    1  UNL1        0.1441
     23 F           0.6396  -18.0477   19.3313 F       1  UNL1       -0.2042
     24 C          -0.6167  -18.6882   21.2746 C.ar    1  UNL1        0.1000
     25 C          -1.6100  -18.3611   22.2177 C.ar    1  UNL1        0.0208
     26 C           0.1408  -19.9922   21.3532 C.3     1  UNL1        0.4207
     27 F           0.8737  -20.2310   20.2032 F       1  UNL1       -0.1658
     28 F          -0.7526  -21.0331   21.5297 F       1  UNL1       -0.1658
     29 F           1.0116  -19.9576   22.4273 F       1  UNL1       -0.1658
     30 N          -7.2495  -13.5309   29.1546 N.pl3   1  UNL1       -0.2814
     31 H          -7.2220  -14.1459   29.9984 H       1  UNL1        0.1551
     32 C          -7.3983  -12.1136   29.3486 C.ar    1  UNL1        0.0889
     33 C          -6.3158  -11.2351   29.1354 C.ar    1  UNL1        0.1547
     34 F          -5.0988  -11.7066   28.7646 F       1  UNL1       -0.2028
     35 C          -6.4751   -9.8608   29.3340 C.ar    1  UNL1        0.0368
     36 C          -7.7037   -9.3488   29.7562 C.ar    1  UNL1        0.0332
     37 I          -7.9361   -7.2737   30.0530 I       1  UNL1       -0.0424
     38 C          -8.7767  -10.2125   29.9878 C.ar    1  UNL1        0.0186
     39 C          -8.6290  -11.5904   29.7922 C.ar    1  UNL1        0.0737
     40 CL        -10.0160  -12.6361   30.0691 Cl      1  UNL1       -0.0809
@<TRIPOS>BOND
     1     1     2    1
     2     2     3   ar
     3     3    30    1
     4    30    32    1
     5    32    33   ar
     6    33    34    1
     7    33    35   ar
     8    35    36   ar
     9    36    37    1
    10    36    38   ar
    11    38    39   ar
    12    39    40    1
    13     3     4   ar
    14     4     5   ar
    15     5     6   ar
    16     6     7   ar
    17     7    15    1
    18    15    16    2
    19    15    17   am
    20    17    19    1
    21    19    20   ar
    22    20    21   ar
    23    21    22   ar
    24    22    23    1
    25    22    24   ar
    26    24    26    1
    27    26    27    1
    28    26    28    1
    29    26    29    1
    30    24    25   ar
    31     7     8   ar
    32     8     9   ar
    33     9    10   ar
    34     9    11    1
    35    11    12    1
    36    12    13    1
    37    13    14    1
    38    10     2   ar
    39    39    32   ar
    40    10     5   ar
    41    25    19   ar
    42    14     8    1
    43    30    31    1
    44    17    18    1
@<TRIPOS>MOLECULE
*****
 40 44 0 0 0
SMALL
GASTEIGER

@<TRIPOS>ATOM
      1 C          -8.5099   -9.2785   32.5712 C.3     1  UNL1        0.1333
      2 N          -8.6308  -10.5348   31.8307 N.ar    1  UNL1       -0.2950
      3 C          -9.5760  -11.5076   31.9590 C.ar    1  UNL1        0.2019
      4 N          -9.4500  -12.5138   31.0568 N.ar    1  UNL1       -0.2134
      5 C          -8.3556  -12.1568   30.3611 C.ar    1  UNL1        0.1033
      6 C          -7.7585  -12.8574   29.3160 C.ar    1  UNL1        0.0284
      7 C          -6.6058  -12.3075   28.7104 C.ar    1  UNL1        0.0922
      8 C          -6.0702  -11.0865   29.2069 C.ar    1  UNL1        0.1782
      9 C          -6.6893  -10.4196   30.2854 C.ar    1  UNL1        0.1897
     10 C          -7.8531  -10.9747   30.8238 C.ar    1  UNL1        0.1173
     11 O          -6.1128   -9.2509   30.7921 O.3     1  UNL1       -0.4669
     12 C          -4.7822   -8.8703   30.4371 C.3     1  UNL1        0.2527
     13 C          -4.5169   -9.1860   28.9607 C.3     1  UNL1        0.2526
     14 O          -4.9043  -10.5299   28.6666 O.3     1  UNL1       -0.4682
     15 C          -5.9730  -13.0257   27.5846 C.2     1  UNL1        0.2526
     16 O          -4.9143  -12.5597   27.0828 O.2     1  UNL1       -0.2697
     17 N          -6.5493  -14.2399   27.0699 N.am    1  UNL1       -0.2803
     18 H          -7.4482  -14.5802   27.4781 H       1  UNL1        0.1552
     19 C          -6.0075  -14.9823   25.9648 C.ar    1  UNL1        0.0506
     20 C          -4.9520  -15.8922   26.1414 C.ar    1  UNL1        0.0170
     21 C          -4.4632  -16.6216   25.0562 C.ar    1  UNL1        0.0309
     22 C          -5.0274  -16.4628   23.7882 C.ar    1  UNL1        0.1441
     23 F          -4.5364  -17.1882   22.7511 F       1  UNL1       -0.2042
     24 C          -6.0989  -15.5718   23.5942 C.ar    1  UNL1        0.1000
     25 C          -6.5894  -14.8442   24.6956 C.ar    1  UNL1        0.0208
     26 C          -6.7108  -15.4249   22.2215 C.3     1  UNL1        0.4207
     27 F          -7.0555  -16.6507   21.6784 F       1  UNL1       -0.1658
     28 F          -5.8045  -14.8090   21.3776 F       1  UNL1       -0.1658
     29 F          -7.8515  -14.6470   22.3040 F       1  UNL1       -0.1658
     30 N         -10.6229  -11.4982   32.9394 N.pl3   1  UNL1       -0.2814
     31 H         -10.6988  -10.6568   33.5536 H       1  UNL1        0.1551
     32 C         -11.6579  -12.4938   33.0161 C.ar    1  UNL1        0.0889
     33 C         -12.7769  -12.4438   32.1592 C.ar    1  UNL1        0.1547
     34 F         -12.9183  -11.4413   31.2560 F       1  UNL1       -0.2028
     35 C         -13.7772  -13.4158   32.2504 C.ar    1  UNL1        0.0368
     36 C         -13.6817  -14.4367   33.1982 C.ar    1  UNL1        0.0332
     37 I         -15.1949  -15.9000   33.3290 I       1  UNL1       -0.0424
     38 C         -12.5864  -14.4846   34.0637 C.ar    1  UNL1        0.0186
     39 C         -11.5787  -13.5169   33.9817 C.ar    1  UNL1        0.0737
     40 CL        -10.2046  -13.6340   35.0733 Cl      1  UNL1       -0.0809
@<TRIPOS>BOND
     1     1     2    1
     2     2     3   ar
     3     3    30    1
     4    30    32    1
     5    32    33   ar
     6    33    34    1
     7    33    35   ar
     8    35    36   ar
     9    36    37    1
    10    36    38   ar
    11    38    39   ar
    12    39    40    1
    13     3     4   ar
    14     4     5   ar
    15     5     6   ar
    16     6     7   ar
    17     7    15    1
    18    15    16    2
    19    15    17   am
    20    17    19    1
    21    19    20   ar
    22    20    21   ar
    23    21    22   ar
    24    22    23    1
    25    22    24   ar
    26    24    26    1
    27    26    27    1
    28    26    28    1
    29    26    29    1
    30    24    25   ar
    31     7     8   ar
    32     8     9   ar
    33     9    10   ar
    34     9    11    1
    35    11    12    1
    36    12    13    1
    37    13    14    1
    38    10     2   ar
    39    39    32   ar
    40    10     5   ar
    41    25    19   ar
    42    14     8    1
    43    30    31    1
    44    17    18    1
