@<TRIPOS>MOLECULE
*****
 50 55 0 0 0
SMALL
GASTEIGER

@<TRIPOS>ATOM
      1 O          14.3434   83.3261   25.8041 O.2     1  UNL1       -0.2701
      2 C          13.5679   82.8954   24.9068 C.2     1  UNL1        0.2483
      3 N          13.6114   83.4705   23.5912 N.am    1  UNL1       -0.2945
      4 H          13.1559   82.9572   22.8027 H       1  UNL1        0.1501
      5 C          12.6490   81.7770   25.2186 C.ar    1  UNL1        0.0808
      6 C          11.3326   82.0535   25.6215 C.ar    1  UNL1        0.0080
      7 C          10.4489   81.0155   25.9261 C.ar    1  UNL1        0.0148
      8 C          10.8585   79.6744   25.8261 C.ar    1  UNL1        0.0502
      9 C          12.1698   79.3979   25.4014 C.ar    1  UNL1        0.0443
     10 C          13.0574   80.4349   25.0978 C.ar    1  UNL1        0.1457
     11 F          14.2964   80.1190   24.6426 F       1  UNL1       -0.2040
     12 N           9.9439   78.5992   26.1361 N.pl3   1  UNL1       -0.3040
     13 C          10.2716   77.6541   27.2150 C.3     1  UNL1        0.1123
     14 C           9.4566   76.3621   27.1019 C.3     1  UNL1        0.1136
     15 N           8.0255   76.6655   26.9590 N.pl3   1  UNL1       -0.2897
     16 C           7.6015   77.8117   26.1371 C.3     1  UNL1        0.1136
     17 C           8.7563   78.3730   25.3002 C.3     1  UNL1        0.1123
     18 C           7.0444   75.7570   27.5087 C.ar    1  UNL1        0.1322
     19 C           6.0795   76.1923   28.4312 C.ar    1  UNL1        0.0401
     20 C           5.1433   75.2897   28.9438 C.ar    1  UNL1        0.0383
     21 I           3.7290   76.0496   30.3347 I       1  UNL1       -0.0424
     22 C           5.1702   73.9391   28.5341 C.ar    1  UNL1        0.0960
     23 C           6.1572   73.5464   27.6129 C.ar    1  UNL1        0.1046
     24 N           7.0517   74.4486   27.1337 N.ar    1  UNL1       -0.2292
     25 C           4.1721   72.9358   29.0692 C.3     1  UNL1        0.4204
     26 F           4.4515   71.6517   28.6333 F       1  UNL1       -0.1658
     27 F           4.2044   72.9391   30.4517 F       1  UNL1       -0.1658
     28 F           2.9005   73.2697   28.6402 F       1  UNL1       -0.1658
     29 C          14.4326   84.6453   23.2850 C.3     1  UNL1        0.1535
     30 C          14.7709   84.6659   21.8162 C.2     1  UNL1        0.2443
     31 O          15.5885   83.8224   21.3567 O.2     1  UNL1       -0.2730
     32 N          14.0764   85.5667   20.9372 N.am    1  UNL1       -0.2825
     33 H          13.3116   86.1495   21.3471 H       1  UNL1        0.1549
     34 C          14.1800   85.5216   19.5053 C.ar    1  UNL1        0.0535
     35 C          14.3877   84.3130   18.8215 C.ar    1  UNL1        0.0353
     36 C          14.4860   84.3197   17.4277 C.ar    1  UNL1        0.1002
     37 N          14.3933   85.4902   16.7424 N.ar    1  UNL1       -0.2422
     38 C          14.2108   86.6764   17.3806 C.ar    1  UNL1        0.1002
     39 C          14.1118   86.7143   18.7729 C.ar    1  UNL1        0.0353
     40 C          13.6887   85.9321   23.6906 C.3     1  UNL1        0.0569
     41 C          14.5100   86.7766   24.6248 C.ar    1  UNL1       -0.0017
     42 C          14.3089   86.9222   25.9942 C.ar    1  UNL1        0.0681
     43 N          15.3120   87.6428   26.5455 N.ar    1  UNL1       -0.3523
     44 C          16.1522   87.9410   25.5395 C.ar    1  UNL1        0.0563
     45 C          17.3607   88.6311   25.6256 C.ar    1  UNL1        0.0170
     46 C          18.1124   88.7911   24.4474 C.ar    1  UNL1        0.0015
     47 C          17.6463   88.2617   23.2239 C.ar    1  UNL1        0.0001
     48 C          16.4237   87.5687   23.1669 C.ar    1  UNL1        0.0012
     49 C          15.6981   87.4286   24.3511 C.ar    1  UNL1        0.0131
     50 H          15.4233   87.8886   27.5542 H       1  UNL1        0.1660
@<TRIPOS>BOND
     1     1     2    2
     2     2     3   am
     3     3    29    1
     4    29    40    1
     5    40    41    1
     6    41    42   ar
     7    42    43   ar
     8    43    44   ar
     9    44    45   ar
    10    45    46   ar
    11    46    47   ar
    12    47    48   ar
    13    48    49   ar
    14    29    30    1
    15    30    31    2
    16    30    32   am
    17    32    34    1
    18    34    35   ar
    19    35    36   ar
    20    36    37   ar
    21    37    38   ar
    22    38    39   ar
    23     2     5    1
    24     5     6   ar
    25     6     7   ar
    26     7     8   ar
    27     8    12    1
    28    12    13    1
    29    13    14    1
    30    14    15    1
    31    15    18    1
    32    18    19   ar
    33    19    20   ar
    34    20    21    1
    35    20    22   ar
    36    22    25    1
    37    25    26    1
    38    25    27    1
    39    25    28    1
    40    22    23   ar
    41    23    24   ar
    42    15    16    1
    43    16    17    1
    44     8     9   ar
    45     9    10   ar
    46    10    11    1
    47    49    41   ar
    48    39    34   ar
    49    10     5   ar
    50    49    44   ar
    51    17    12    1
    52    24    18   ar
    53     3     4    1
    54    43    50    1
    55    32    33    1
@<TRIPOS>MOLECULE
*****
 50 55 0 0 0
SMALL
GASTEIGER

@<TRIPOS>ATOM
      1 O          10.4402   74.6308   25.8614 O.2     1  UNL1       -0.2701
      2 C           9.7747   75.6279   25.4676 C.2     1  UNL1        0.2483
      3 N           8.3764   75.4801   25.1733 N.am    1  UNL1       -0.2945
      4 H           7.7867   76.3391   25.0898 H       1  UNL1        0.1501
      5 C          10.4423   76.9442   25.3499 C.ar    1  UNL1        0.0808
      6 C           9.9769   78.0278   26.1121 C.ar    1  UNL1        0.0080
      7 C          10.5869   79.2806   26.0142 C.ar    1  UNL1        0.0148
      8 C          11.6840   79.4774   25.1575 C.ar    1  UNL1        0.0502
      9 C          12.1633   78.3867   24.4113 C.ar    1  UNL1        0.0443
     10 C          11.5534   77.1318   24.5056 C.ar    1  UNL1        0.1457
     11 F          12.0827   76.0965   23.8056 F       1  UNL1       -0.2040
     12 N          12.3194   80.7717   25.0588 N.pl3   1  UNL1       -0.3040
     13 C          13.7876   80.8602   25.0239 C.3     1  UNL1        0.1123
     14 C          14.2777   82.2685   25.3744 C.3     1  UNL1        0.1136
     15 N          13.5779   83.2752   24.5635 N.pl3   1  UNL1       -0.2897
     16 C          12.1447   83.1070   24.2696 C.3     1  UNL1        0.1136
     17 C          11.5131   81.9992   25.1197 C.3     1  UNL1        0.1123
     18 C          14.2656   84.4882   24.1814 C.ar    1  UNL1        0.1322
     19 C          14.3266   85.5968   25.0408 C.ar    1  UNL1        0.0401
     20 C          15.0003   86.7551   24.6430 C.ar    1  UNL1        0.0383
     21 I          15.0312   88.3755   26.0162 I       1  UNL1       -0.0424
     22 C          15.6180   86.8096   23.3748 C.ar    1  UNL1        0.0960
     23 C          15.5270   85.6781   22.5450 C.ar    1  UNL1        0.1046
     24 N          14.8653   84.5682   22.9623 N.ar    1  UNL1       -0.2292
     25 C          16.3550   88.0473   22.9125 C.3     1  UNL1        0.4204
     26 F          17.3761   88.3912   23.7819 F       1  UNL1       -0.1658
     27 F          16.9078   87.8213   21.6651 F       1  UNL1       -0.1658
     28 F          15.4758   89.1122   22.8373 F       1  UNL1       -0.1658
     29 C           7.7168   74.1713   25.1787 C.3     1  UNL1        0.1535
     30 C           6.5170   74.2054   26.0907 C.2     1  UNL1        0.2443
     31 O           5.3779   74.4507   25.6073 O.2     1  UNL1       -0.2730
     32 N           6.6634   73.8472   27.4751 N.am    1  UNL1       -0.2825
     33 H           7.6037   73.5203   27.7937 H       1  UNL1        0.1549
     34 C           5.5565   73.6536   28.3698 C.ar    1  UNL1        0.0535
     35 C           4.7636   72.4960   28.3179 C.ar    1  UNL1        0.0353
     36 C           3.6946   72.3544   29.2064 C.ar    1  UNL1        0.1002
     37 N           3.4189   73.3367   30.1050 N.ar    1  UNL1       -0.2422
     38 C           4.1588   74.4754   30.1643 C.ar    1  UNL1        0.1002
     39 C           5.2331   74.6586   29.2913 C.ar    1  UNL1        0.0353
     40 C           7.3016   73.7813   23.7472 C.3     1  UNL1        0.0569
     41 C           8.3671   74.1314   22.7458 C.ar    1  UNL1       -0.0017
     42 C           8.3938   75.2614   21.9338 C.ar    1  UNL1        0.0681
     43 N           9.5624   75.3293   21.2562 N.ar    1  UNL1       -0.3523
     44 C          10.2798   74.2605   21.6438 C.ar    1  UNL1        0.0563
     45 C          11.5761   73.9275   21.2531 C.ar    1  UNL1        0.0170
     46 C          12.1612   72.7820   21.8230 C.ar    1  UNL1        0.0015
     47 C          11.4468   72.0055   22.7616 C.ar    1  UNL1        0.0001
     48 C          10.1405   72.3661   23.1382 C.ar    1  UNL1        0.0012
     49 C           9.5849   73.5055   22.5536 C.ar    1  UNL1        0.0131
     50 H           9.8562   76.0788   20.5912 H       1  UNL1        0.1660
@<TRIPOS>BOND
     1     1     2    2
     2     2     3   am
     3     3    29    1
     4    29    40    1
     5    40    41    1
     6    41    42   ar
     7    42    43   ar
     8    43    44   ar
     9    44    45   ar
    10    45    46   ar
    11    46    47   ar
    12    47    48   ar
    13    48    49   ar
    14    29    30    1
    15    30    31    2
    16    30    32   am
    17    32    34    1
    18    34    35   ar
    19    35    36   ar
    20    36    37   ar
    21    37    38   ar
    22    38    39   ar
    23     2     5    1
    24     5     6   ar
    25     6     7   ar
    26     7     8   ar
    27     8    12    1
    28    12    13    1
    29    13    14    1
    30    14    15    1
    31    15    18    1
    32    18    19   ar
    33    19    20   ar
    34    20    21    1
    35    20    22   ar
    36    22    25    1
    37    25    26    1
    38    25    27    1
    39    25    28    1
    40    22    23   ar
    41    23    24   ar
    42    15    16    1
    43    16    17    1
    44     8     9   ar
    45     9    10   ar
    46    10    11    1
    47    49    41   ar
    48    39    34   ar
    49    10     5   ar
    50    49    44   ar
    51    17    12    1
    52    24    18   ar
    53     3     4    1
    54    43    50    1
    55    32    33    1
@<TRIPOS>MOLECULE
*****
 50 55 0 0 0
SMALL
GASTEIGER

@<TRIPOS>ATOM
      1 O           8.8149   75.4540   27.6305 O.2     1  UNL1       -0.2701
      2 C           8.6505   76.0553   26.5335 C.2     1  UNL1        0.2483
      3 N           7.6365   75.6069   25.6201 N.am    1  UNL1       -0.2945
      4 H           7.3422   76.2424   24.8441 H       1  UNL1        0.1501
      5 C           9.4854   77.2380   26.2230 C.ar    1  UNL1        0.0808
      6 C           9.1305   78.4928   26.7440 C.ar    1  UNL1        0.0080
      7 C           9.8994   79.6241   26.4608 C.ar    1  UNL1        0.0148
      8 C          11.0479   79.5257   25.6562 C.ar    1  UNL1        0.0502
      9 C          11.4149   78.2653   25.1531 C.ar    1  UNL1        0.0443
     10 C          10.6461   77.1313   25.4331 C.ar    1  UNL1        0.1457
     11 F          11.0679   75.9279   24.9686 F       1  UNL1       -0.2040
     12 N          11.8472   80.6942   25.3662 N.pl3   1  UNL1       -0.3040
     13 C          13.2023   80.5304   24.8169 C.3     1  UNL1        0.1123
     14 C          14.0440   81.7970   25.0009 C.3     1  UNL1        0.1136
     15 N          13.3161   82.9761   24.5103 N.pl3   1  UNL1       -0.2897
     16 C          11.8651   83.0843   24.7379 C.3     1  UNL1        0.1136
     17 C          11.3628   82.0326   25.7332 C.3     1  UNL1        0.1123
     18 C          14.0506   84.0805   23.9351 C.ar    1  UNL1        0.1322
     19 C          14.1725   85.3074   24.6068 C.ar    1  UNL1        0.0401
     20 C          14.8906   86.3561   24.0249 C.ar    1  UNL1        0.0383
     21 I          15.0122   88.1706   25.1227 I       1  UNL1       -0.0424
     22 C          15.4917   86.1806   22.7597 C.ar    1  UNL1        0.0960
     23 C          15.3393   84.9372   22.1212 C.ar    1  UNL1        0.1046
     24 N          14.6357   83.9388   22.7144 N.ar    1  UNL1       -0.2292
     25 C          16.2755   87.2945   22.1011 C.3     1  UNL1        0.4204
     26 F          17.4334   87.5900   22.8002 F       1  UNL1       -0.1658
     27 F          16.6297   86.9190   20.8181 F       1  UNL1       -0.1658
     28 F          15.5013   88.4392   22.0457 F       1  UNL1       -0.1658
     29 C           6.8705   74.3792   25.8533 C.3     1  UNL1        0.1535
     30 C           6.0609   74.5123   27.1179 C.2     1  UNL1        0.2443
     31 O           5.6782   73.4726   27.7210 O.2     1  UNL1       -0.2730
     32 N           5.8315   75.8136   27.6840 N.am    1  UNL1       -0.2825
     33 H           6.2862   76.6313   27.2178 H       1  UNL1        0.1549
     34 C           5.2523   76.0280   28.9808 C.ar    1  UNL1        0.0535
     35 C           3.9776   76.5973   29.1310 C.ar    1  UNL1        0.0353
     36 C           3.4576   76.7902   30.4135 C.ar    1  UNL1        0.1002
     37 N           4.1871   76.4400   31.5059 N.ar    1  UNL1       -0.2422
     38 C           5.4310   75.9043   31.3894 C.ar    1  UNL1        0.1002
     39 C           5.9895   75.6990   30.1262 C.ar    1  UNL1        0.0353
     40 C           5.9549   74.0890   24.6487 C.3     1  UNL1        0.0569
     41 C           5.5328   75.3545   23.9553 C.ar    1  UNL1       -0.0017
     42 C           6.0494   75.8508   22.7621 C.ar    1  UNL1        0.0681
     43 N           5.3466   76.9327   22.3561 N.ar    1  UNL1       -0.3523
     44 C           4.3818   77.1155   23.2742 C.ar    1  UNL1        0.0563
     45 C           3.3759   78.0808   23.2606 C.ar    1  UNL1        0.0170
     46 C           2.4320   78.0623   24.3036 C.ar    1  UNL1        0.0015
     47 C           2.5121   77.0889   25.3236 C.ar    1  UNL1        0.0001
     48 C           3.5373   76.1260   25.3111 C.ar    1  UNL1        0.0012
     49 C           4.4612   76.1713   24.2657 C.ar    1  UNL1        0.0131
     50 H           5.5054   77.4911   21.4882 H       1  UNL1        0.1660
@<TRIPOS>BOND
     1     1     2    2
     2     2     3   am
     3     3    29    1
     4    29    40    1
     5    40    41    1
     6    41    42   ar
     7    42    43   ar
     8    43    44   ar
     9    44    45   ar
    10    45    46   ar
    11    46    47   ar
    12    47    48   ar
    13    48    49   ar
    14    29    30    1
    15    30    31    2
    16    30    32   am
    17    32    34    1
    18    34    35   ar
    19    35    36   ar
    20    36    37   ar
    21    37    38   ar
    22    38    39   ar
    23     2     5    1
    24     5     6   ar
    25     6     7   ar
    26     7     8   ar
    27     8    12    1
    28    12    13    1
    29    13    14    1
    30    14    15    1
    31    15    18    1
    32    18    19   ar
    33    19    20   ar
    34    20    21    1
    35    20    22   ar
    36    22    25    1
    37    25    26    1
    38    25    27    1
    39    25    28    1
    40    22    23   ar
    41    23    24   ar
    42    15    16    1
    43    16    17    1
    44     8     9   ar
    45     9    10   ar
    46    10    11    1
    47    49    41   ar
    48    39    34   ar
    49    10     5   ar
    50    49    44   ar
    51    17    12    1
    52    24    18   ar
    53     3     4    1
    54    43    50    1
    55    32    33    1
@<TRIPOS>MOLECULE
*****
 50 55 0 0 0
SMALL
GASTEIGER

@<TRIPOS>ATOM
      1 O           8.7557   74.5930   25.0466 O.2     1  UNL1       -0.2701
      2 C           8.3336   75.6782   25.5326 C.2     1  UNL1        0.2483
      3 N           7.0567   75.7157   26.1898 N.am    1  UNL1       -0.2945
      4 H           6.8266   76.5363   26.7950 H       1  UNL1        0.1501
      5 C           9.1814   76.8890   25.4471 C.ar    1  UNL1        0.0808
      6 C           9.0421   77.7566   24.3519 C.ar    1  UNL1        0.0080
      7 C           9.8343   78.9022   24.2464 C.ar    1  UNL1        0.0148
      8 C          10.7795   79.2126   25.2396 C.ar    1  UNL1        0.0502
      9 C          10.9029   78.3553   26.3469 C.ar    1  UNL1        0.0443
     10 C          10.1127   77.2065   26.4543 C.ar    1  UNL1        0.1457
     11 F          10.2307   76.4369   27.5658 F       1  UNL1       -0.2040
     12 N          11.5964   80.4001   25.1345 N.pl3   1  UNL1       -0.3040
     13 C          12.9908   80.2856   24.6794 C.3     1  UNL1        0.1123
     14 C          13.8125   81.5218   25.0575 C.3     1  UNL1        0.1136
     15 N          13.1227   82.7490   24.6347 N.pl3   1  UNL1       -0.2897
     16 C          11.6580   82.8417   24.7576 C.3     1  UNL1        0.1136
     17 C          11.0815   81.6967   25.5975 C.3     1  UNL1        0.1123
     18 C          13.8976   83.9023   24.2350 C.ar    1  UNL1        0.1322
     19 C          13.9758   85.0475   25.0435 C.ar    1  UNL1        0.0401
     20 C          14.7347   86.1462   24.6300 C.ar    1  UNL1        0.0383
     21 I          14.7846   87.8291   25.9253 I       1  UNL1       -0.0424
     22 C          15.4210   86.1036   23.3972 C.ar    1  UNL1        0.0960
     23 C          15.3100   84.9387   22.6177 C.ar    1  UNL1        0.1046
     24 N          14.5649   83.8886   23.0489 N.ar    1  UNL1       -0.2292
     25 C          16.2508   87.2749   22.9192 C.3     1  UNL1        0.4204
     26 F          15.5506   88.4666   22.9997 F       1  UNL1       -0.1658
     27 F          17.3877   87.3886   23.6983 F       1  UNL1       -0.1658
     28 F          16.6175   87.0785   21.6003 F       1  UNL1       -0.1658
     29 C           6.1531   74.5617   26.1953 C.3     1  UNL1        0.1535
     30 C           6.1376   73.9159   24.8332 C.2     1  UNL1        0.2443
     31 O           6.0909   72.6585   24.7441 O.2     1  UNL1       -0.2730
     32 N           6.0606   74.7370   23.6558 N.am    1  UNL1       -0.2825
     33 H           5.9645   75.7690   23.7908 H       1  UNL1        0.1549
     34 C           5.8378   74.2179   22.3352 C.ar    1  UNL1        0.0535
     35 C           6.8903   73.7049   21.5602 C.ar    1  UNL1        0.0353
     36 C           6.6251   73.2146   20.2790 C.ar    1  UNL1        0.1002
     37 N           5.3592   73.2465   19.7842 N.ar    1  UNL1       -0.2422
     38 C           4.3253   73.7545   20.5058 C.ar    1  UNL1        0.1002
     39 C           4.5480   74.2587   21.7887 C.ar    1  UNL1        0.0353
     40 C           6.5913   73.5507   27.2722 C.3     1  UNL1        0.0569
     41 C           6.8813   74.2275   28.5830 C.ar    1  UNL1       -0.0017
     42 C           8.1328   74.3759   29.1734 C.ar    1  UNL1        0.0681
     43 N           8.0461   75.1533   30.2768 N.ar    1  UNL1       -0.3523
     44 C           6.7540   75.5092   30.3805 C.ar    1  UNL1        0.0563
     45 C           6.1844   76.3508   31.3351 C.ar    1  UNL1        0.0170
     46 C           4.8100   76.6313   31.2286 C.ar    1  UNL1        0.0015
     47 C           4.0450   76.0731   30.1810 C.ar    1  UNL1        0.0001
     48 C           4.6465   75.2281   29.2311 C.ar    1  UNL1        0.0012
     49 C           6.0110   74.9651   29.3642 C.ar    1  UNL1        0.0131
     50 H           8.8319   75.4415   30.9011 H       1  UNL1        0.1660
@<TRIPOS>BOND
     1     1     2    2
     2     2     3   am
     3     3    29    1
     4    29    40    1
     5    40    41    1
     6    41    42   ar
     7    42    43   ar
     8    43    44   ar
     9    44    45   ar
    10    45    46   ar
    11    46    47   ar
    12    47    48   ar
    13    48    49   ar
    14    29    30    1
    15    30    31    2
    16    30    32   am
    17    32    34    1
    18    34    35   ar
    19    35    36   ar
    20    36    37   ar
    21    37    38   ar
    22    38    39   ar
    23     2     5    1
    24     5     6   ar
    25     6     7   ar
    26     7     8   ar
    27     8    12    1
    28    12    13    1
    29    13    14    1
    30    14    15    1
    31    15    18    1
    32    18    19   ar
    33    19    20   ar
    34    20    21    1
    35    20    22   ar
    36    22    25    1
    37    25    26    1
    38    25    27    1
    39    25    28    1
    40    22    23   ar
    41    23    24   ar
    42    15    16    1
    43    16    17    1
    44     8     9   ar
    45     9    10   ar
    46    10    11    1
    47    49    41   ar
    48    39    34   ar
    49    10     5   ar
    50    49    44   ar
    51    17    12    1
    52    24    18   ar
    53     3     4    1
    54    43    50    1
    55    32    33    1
@<TRIPOS>MOLECULE
*****
 50 55 0 0 0
SMALL
GASTEIGER

@<TRIPOS>ATOM
      1 O           9.2122   75.1375   26.8141 O.2     1  UNL1       -0.2701
      2 C           9.0163   75.8449   25.7878 C.2     1  UNL1        0.2483
      3 N           8.0182   75.4526   24.8320 N.am    1  UNL1       -0.2945
      4 H           7.6926   76.1540   24.1285 H       1  UNL1        0.1501
      5 C           9.7973   77.0895   25.6055 C.ar    1  UNL1        0.0808
      6 C           9.3803   78.2688   26.2434 C.ar    1  UNL1        0.0080
      7 C          10.0975   79.4566   26.0823 C.ar    1  UNL1        0.0148
      8 C          11.2554   79.4911   25.2858 C.ar    1  UNL1        0.0502
      9 C          11.6846   78.3049   24.6653 C.ar    1  UNL1        0.0443
     10 C          10.9675   77.1147   24.8230 C.ar    1  UNL1        0.1457
     11 F          11.4485   75.9838   24.2471 F       1  UNL1       -0.2040
     12 N          12.0013   80.7180   25.1221 N.pl3   1  UNL1       -0.3040
     13 C          13.4545   80.6612   24.8988 C.3     1  UNL1        0.1123
     14 C          14.1259   82.0045   25.2007 C.3     1  UNL1        0.1136
     15 N          13.4346   83.0961   24.4999 N.pl3   1  UNL1       -0.2897
     16 C          11.9660   83.0785   24.3915 C.3     1  UNL1        0.1136
     17 C          11.3384   82.0175   25.3021 C.3     1  UNL1        0.1123
     18 C          14.1878   84.2442   24.0474 C.ar    1  UNL1        0.1322
     19 C          14.3152   85.3952   24.8412 C.ar    1  UNL1        0.0401
     20 C          15.0513   86.4888   24.3762 C.ar    1  UNL1        0.0383
     21 I          15.1799   88.1812   25.6536 I       1  UNL1       -0.0424
     22 C          15.6652   86.4351   23.1062 C.ar    1  UNL1        0.0960
     23 C          15.5067   85.2647   22.3433 C.ar    1  UNL1        0.1046
     24 N          14.7854   84.2198   22.8248 N.ar    1  UNL1       -0.2292
     25 C          16.4687   87.6005   22.5721 C.3     1  UNL1        0.4204
     26 F          15.7458   88.7808   22.6065 F       1  UNL1       -0.1658
     27 F          17.6082   87.7697   23.3372 F       1  UNL1       -0.1658
     28 F          16.8306   87.3545   21.2602 F       1  UNL1       -0.1658
     29 C           7.3076   74.1747   24.9327 C.3     1  UNL1        0.1535
     30 C           6.2488   74.2595   26.0022 C.2     1  UNL1        0.2443
     31 O           5.1264   74.7638   25.7245 O.2     1  UNL1       -0.2730
     32 N           6.4861   73.6644   27.2891 N.am    1  UNL1       -0.2825
     33 H           7.3804   73.1400   27.4225 H       1  UNL1        0.1549
     34 C           5.4739   73.5151   28.2972 C.ar    1  UNL1        0.0535
     35 C           5.3091   74.4639   29.3191 C.ar    1  UNL1        0.0353
     36 C           4.3129   74.2734   30.2801 C.ar    1  UNL1        0.1002
     37 N           3.5188   73.1710   30.2311 N.ar    1  UNL1       -0.2422
     38 C           3.6690   72.2279   29.2638 C.ar    1  UNL1        0.1002
     39 C           4.6554   72.3777   28.2869 C.ar    1  UNL1        0.0353
     40 C           6.6808   73.8085   23.5737 C.3     1  UNL1        0.0569
     41 C           6.4399   75.0276   22.7275 C.ar    1  UNL1       -0.0017
     42 C           5.2176   75.6623   22.5277 C.ar    1  UNL1        0.0681
     43 N           5.3875   76.8054   21.8249 N.ar    1  UNL1       -0.3523
     44 C           6.7075   76.9059   21.5916 C.ar    1  UNL1        0.0563
     45 C           7.3731   77.9450   20.9426 C.ar    1  UNL1        0.0170
     46 C           8.7750   77.8721   20.8502 C.ar    1  UNL1        0.0015
     47 C           9.4724   76.7763   21.4043 C.ar    1  UNL1        0.0001
     48 C           8.7748   75.7426   22.0548 C.ar    1  UNL1        0.0012
     49 C           7.3843   75.8405   22.1280 C.ar    1  UNL1        0.0131
     50 H           4.6445   77.4851   21.5486 H       1  UNL1        0.1660
@<TRIPOS>BOND
     1     1     2    2
     2     2     3   am
     3     3    29    1
     4    29    40    1
     5    40    41    1
     6    41    42   ar
     7    42    43   ar
     8    43    44   ar
     9    44    45   ar
    10    45    46   ar
    11    46    47   ar
    12    47    48   ar
    13    48    49   ar
    14    29    30    1
    15    30    31    2
    16    30    32   am
    17    32    34    1
    18    34    35   ar
    19    35    36   ar
    20    36    37   ar
    21    37    38   ar
    22    38    39   ar
    23     2     5    1
    24     5     6   ar
    25     6     7   ar
    26     7     8   ar
    27     8    12    1
    28    12    13    1
    29    13    14    1
    30    14    15    1
    31    15    18    1
    32    18    19   ar
    33    19    20   ar
    34    20    21    1
    35    20    22   ar
    36    22    25    1
    37    25    26    1
    38    25    27    1
    39    25    28    1
    40    22    23   ar
    41    23    24   ar
    42    15    16    1
    43    16    17    1
    44     8     9   ar
    45     9    10   ar
    46    10    11    1
    47    49    41   ar
    48    39    34   ar
    49    10     5   ar
    50    49    44   ar
    51    17    12    1
    52    24    18   ar
    53     3     4    1
    54    43    50    1
    55    32    33    1
@<TRIPOS>MOLECULE
*****
 50 55 0 0 0
SMALL
GASTEIGER

@<TRIPOS>ATOM
      1 O           8.2727   74.9880   25.8046 O.2     1  UNL1       -0.2701
      2 C           8.2263   75.7984   24.8386 C.2     1  UNL1        0.2483
      3 N           7.3049   75.5698   23.7604 N.am    1  UNL1       -0.2945
      4 H           7.0972   76.3544   23.1016 H       1  UNL1        0.1501
      5 C           9.1007   76.9931   24.8521 C.ar    1  UNL1        0.0808
      6 C           8.5658   78.2392   25.2165 C.ar    1  UNL1        0.0080
      7 C           9.3696   79.3816   25.2316 C.ar    1  UNL1        0.0148
      8 C          10.7313   79.3031   24.8910 C.ar    1  UNL1        0.0502
      9 C          11.2712   78.0513   24.5477 C.ar    1  UNL1        0.0443
     10 C          10.4685   76.9063   24.5296 C.ar    1  UNL1        0.1457
     11 F          11.0450   75.7117   24.2421 F       1  UNL1       -0.2040
     12 N          11.5654   80.4830   24.9109 N.pl3   1  UNL1       -0.3040
     13 C          12.9850   80.3765   24.5395 C.3     1  UNL1        0.1123
     14 C          13.7932   81.5759   25.0441 C.3     1  UNL1        0.1136
     15 N          13.1447   82.8360   24.6538 N.pl3   1  UNL1       -0.2897
     16 C          11.6762   82.9418   24.6885 C.3     1  UNL1        0.1136
     17 C          11.0350   81.7565   25.4184 C.3     1  UNL1        0.1123
     18 C          13.9556   84.0002   24.3756 C.ar    1  UNL1        0.1322
     19 C          14.0274   85.0746   25.2767 C.ar    1  UNL1        0.0401
     20 C          14.8216   86.1859   24.9797 C.ar    1  UNL1        0.0383
     21 I          14.8583   87.7574   26.4084 I       1  UNL1       -0.0424
     22 C          15.5501   86.2274   23.7713 C.ar    1  UNL1        0.0960
     23 C          15.4442   85.1319   22.8964 C.ar    1  UNL1        0.1046
     24 N          14.6641   84.0673   23.2155 N.ar    1  UNL1       -0.2292
     25 C          16.4190   87.4147   23.4183 C.3     1  UNL1        0.4204
     26 F          15.7085   88.6021   23.4641 F       1  UNL1       -0.1658
     27 F          17.4694   87.5052   24.3134 F       1  UNL1       -0.1658
     28 F          16.9201   87.2611   22.1385 F       1  UNL1       -0.1658
     29 C           6.5063   74.3442   23.6693 C.3     1  UNL1        0.1535
     30 C           5.2700   74.5977   22.8449 C.2     1  UNL1        0.2443
     31 O           4.3652   75.3497   23.2999 O.2     1  UNL1       -0.2730
     32 N           5.1850   74.0758   21.5082 N.am    1  UNL1       -0.2825
     33 H           6.0204   73.5737   21.1306 H       1  UNL1        0.1549
     34 C           4.1483   74.4289   20.5789 C.ar    1  UNL1        0.0535
     35 C           2.7955   74.1745   20.8560 C.ar    1  UNL1        0.0353
     36 C           1.8227   74.5324   19.9190 C.ar    1  UNL1        0.1002
     37 N           2.1867   75.1110   18.7439 N.ar    1  UNL1       -0.2422
     38 C           3.4901   75.3515   18.4424 C.ar    1  UNL1        0.1002
     39 C           4.4939   75.0052   19.3492 C.ar    1  UNL1        0.0353
     40 C           7.3469   73.2085   23.0550 C.3     1  UNL1        0.0569
     41 C           8.5252   73.7426   22.2888 C.ar    1  UNL1       -0.0017
     42 C           8.5657   74.9299   21.5640 C.ar    1  UNL1        0.0681
     43 N           9.8198   75.1690   21.1176 N.ar    1  UNL1       -0.3523
     44 C          10.5747   74.1512   21.5663 C.ar    1  UNL1        0.0563
     45 C          11.9489   73.9830   21.4012 C.ar    1  UNL1        0.0170
     46 C          12.5510   72.8613   21.9998 C.ar    1  UNL1        0.0015
     47 C          11.7757   71.9448   22.7437 C.ar    1  UNL1        0.0001
     48 C          10.3910   72.1405   22.8947 C.ar    1  UNL1        0.0012
     49 C           9.8210   73.2603   22.2867 C.ar    1  UNL1        0.0131
     50 H          10.1389   75.9945   20.5634 H       1  UNL1        0.1660
@<TRIPOS>BOND
     1     1     2    2
     2     2     3   am
     3     3    29    1
     4    29    40    1
     5    40    41    1
     6    41    42   ar
     7    42    43   ar
     8    43    44   ar
     9    44    45   ar
    10    45    46   ar
    11    46    47   ar
    12    47    48   ar
    13    48    49   ar
    14    29    30    1
    15    30    31    2
    16    30    32   am
    17    32    34    1
    18    34    35   ar
    19    35    36   ar
    20    36    37   ar
    21    37    38   ar
    22    38    39   ar
    23     2     5    1
    24     5     6   ar
    25     6     7   ar
    26     7     8   ar
    27     8    12    1
    28    12    13    1
    29    13    14    1
    30    14    15    1
    31    15    18    1
    32    18    19   ar
    33    19    20   ar
    34    20    21    1
    35    20    22   ar
    36    22    25    1
    37    25    26    1
    38    25    27    1
    39    25    28    1
    40    22    23   ar
    41    23    24   ar
    42    15    16    1
    43    16    17    1
    44     8     9   ar
    45     9    10   ar
    46    10    11    1
    47    49    41   ar
    48    39    34   ar
    49    10     5   ar
    50    49    44   ar
    51    17    12    1
    52    24    18   ar
    53     3     4    1
    54    43    50    1
    55    32    33    1
@<TRIPOS>MOLECULE
*****
 50 55 0 0 0
SMALL
GASTEIGER

@<TRIPOS>ATOM
      1 O           8.8090   75.2588   26.9141 O.2     1  UNL1       -0.2701
      2 C           8.7875   75.8586   25.8043 C.2     1  UNL1        0.2483
      3 N           7.9485   75.3691   24.7459 N.am    1  UNL1       -0.2945
      4 H           7.7479   75.9950   23.9331 H       1  UNL1        0.1501
      5 C           9.6038   77.0809   25.6250 C.ar    1  UNL1        0.0808
      6 C           9.1370   78.3058   26.1284 C.ar    1  UNL1        0.0080
      7 C           9.8867   79.4733   25.9670 C.ar    1  UNL1        0.0148
      8 C          11.1267   79.4419   25.3055 C.ar    1  UNL1        0.0502
      9 C          11.6036   78.2114   24.8212 C.ar    1  UNL1        0.0443
     10 C          10.8544   77.0412   24.9794 C.ar    1  UNL1        0.1457
     11 F          11.3786   75.8684   24.5414 F       1  UNL1       -0.2040
     12 N          11.9058   80.6481   25.1420 N.pl3   1  UNL1       -0.3040
     13 C          13.3254   80.5517   24.7679 C.3     1  UNL1        0.1123
     14 C          14.0820   81.8461   25.0816 C.3     1  UNL1        0.1136
     15 N          13.3729   83.0065   24.5236 N.pl3   1  UNL1       -0.2897
     16 C          11.9014   83.0512   24.5654 C.3     1  UNL1        0.1136
     17 C          11.3219   81.9569   25.4685 C.3     1  UNL1        0.1123
     18 C          14.1268   84.1528   24.0678 C.ar    1  UNL1        0.1322
     19 C          14.2544   85.3063   24.8580 C.ar    1  UNL1        0.0401
     20 C          14.9913   86.3980   24.3899 C.ar    1  UNL1        0.0383
     21 I          15.1201   88.0944   25.6618 I       1  UNL1       -0.0424
     22 C          15.6058   86.3399   23.1203 C.ar    1  UNL1        0.0960
     23 C          15.4471   85.1671   22.3611 C.ar    1  UNL1        0.1046
     24 N          14.7251   84.1242   22.8456 N.ar    1  UNL1       -0.2292
     25 C          16.4102   87.5032   22.5829 C.3     1  UNL1        0.4204
     26 F          17.5621   87.7149   23.3211 F       1  UNL1       -0.1658
     27 F          16.7768   87.2503   21.2736 F       1  UNL1       -0.1658
     28 F          15.6493   88.6571   22.6305 F       1  UNL1       -0.1658
     29 C           7.2144   74.1057   24.8595 C.3     1  UNL1        0.1535
     30 C           6.1944   74.2029   25.9652 C.2     1  UNL1        0.2443
     31 O           5.0914   74.7730   25.7424 O.2     1  UNL1       -0.2730
     32 N           6.4400   73.5484   27.2212 N.am    1  UNL1       -0.2825
     33 H           7.3099   72.9752   27.3064 H       1  UNL1        0.1549
     34 C           5.4527   73.4120   28.2555 C.ar    1  UNL1        0.0535
     35 C           5.3181   74.3695   29.2736 C.ar    1  UNL1        0.0353
     36 C           4.3455   74.1914   30.2608 C.ar    1  UNL1        0.1002
     37 N           3.5452   73.0925   30.2405 N.ar    1  UNL1       -0.2422
     38 C           3.6667   72.1411   29.2773 C.ar    1  UNL1        0.1002
     39 C           4.6289   72.2785   28.2748 C.ar    1  UNL1        0.0353
     40 C           6.5341   73.7659   23.5195 C.3     1  UNL1        0.0569
     41 C           6.5904   74.9220   22.5600 C.ar    1  UNL1       -0.0017
     42 C           7.5527   75.1286   21.5760 C.ar    1  UNL1        0.0681
     43 N           7.2215   76.1901   20.8061 N.ar    1  UNL1       -0.3523
     44 C           6.0517   76.6468   21.2854 C.ar    1  UNL1        0.0563
     45 C           5.2885   77.7011   20.7853 C.ar    1  UNL1        0.0170
     46 C           4.0619   77.9817   21.4144 C.ar    1  UNL1        0.0015
     47 C           3.6292   77.2097   22.5148 C.ar    1  UNL1        0.0001
     48 C           4.4193   76.1509   22.9975 C.ar    1  UNL1        0.0012
     49 C           5.6328   75.8982   22.3555 C.ar    1  UNL1        0.0131
     50 H           7.7541   76.5578   19.9866 H       1  UNL1        0.1660
@<TRIPOS>BOND
     1     1     2    2
     2     2     3   am
     3     3    29    1
     4    29    40    1
     5    40    41    1
     6    41    42   ar
     7    42    43   ar
     8    43    44   ar
     9    44    45   ar
    10    45    46   ar
    11    46    47   ar
    12    47    48   ar
    13    48    49   ar
    14    29    30    1
    15    30    31    2
    16    30    32   am
    17    32    34    1
    18    34    35   ar
    19    35    36   ar
    20    36    37   ar
    21    37    38   ar
    22    38    39   ar
    23     2     5    1
    24     5     6   ar
    25     6     7   ar
    26     7     8   ar
    27     8    12    1
    28    12    13    1
    29    13    14    1
    30    14    15    1
    31    15    18    1
    32    18    19   ar
    33    19    20   ar
    34    20    21    1
    35    20    22   ar
    36    22    25    1
    37    25    26    1
    38    25    27    1
    39    25    28    1
    40    22    23   ar
    41    23    24   ar
    42    15    16    1
    43    16    17    1
    44     8     9   ar
    45     9    10   ar
    46    10    11    1
    47    49    41   ar
    48    39    34   ar
    49    10     5   ar
    50    49    44   ar
    51    17    12    1
    52    24    18   ar
    53     3     4    1
    54    43    50    1
    55    32    33    1
@<TRIPOS>MOLECULE
*****
 50 55 0 0 0
SMALL
GASTEIGER

@<TRIPOS>ATOM
      1 O          10.6081   74.6394   25.3339 O.2     1  UNL1       -0.2701
      2 C           9.9084   75.6810   25.2020 C.2     1  UNL1        0.2483
      3 N           8.4782   75.5731   25.1212 N.am    1  UNL1       -0.2945
      4 H           7.9005   76.4332   25.2598 H       1  UNL1        0.1501
      5 C          10.5751   77.0026   25.1687 C.ar    1  UNL1        0.0808
      6 C          10.0354   78.0697   25.9048 C.ar    1  UNL1        0.0080
      7 C          10.6434   79.3271   25.8849 C.ar    1  UNL1        0.0148
      8 C          11.8121   79.5452   25.1346 C.ar    1  UNL1        0.0502
      9 C          12.3642   78.4707   24.4156 C.ar    1  UNL1        0.0443
     10 C          11.7566   77.2112   24.4319 C.ar    1  UNL1        0.1457
     11 F          12.3540   76.1917   23.7644 F       1  UNL1       -0.2040
     12 N          12.4451   80.8442   25.1169 N.pl3   1  UNL1       -0.3040
     13 C          11.6884   82.0156   24.6479 C.3     1  UNL1        0.1123
     14 C          12.6165   83.1744   24.2708 C.3     1  UNL1        0.1136
     15 N          13.5687   83.4475   25.3568 N.pl3   1  UNL1       -0.2897
     16 C          14.1521   82.3272   26.1141 C.3     1  UNL1        0.1136
     17 C          13.8719   80.9774   25.4445 C.3     1  UNL1        0.1123
     18 C          14.0302   84.7995   25.5788 C.ar    1  UNL1        0.1322
     19 C          14.2535   85.6816   24.5095 C.ar    1  UNL1        0.0401
     20 C          14.6986   86.9834   24.7568 C.ar    1  UNL1        0.0383
     21 I          15.0079   88.2361   23.0694 I       1  UNL1       -0.0424
     22 C          14.9251   87.4097   26.0833 C.ar    1  UNL1        0.0960
     23 C          14.6936   86.4912   27.1224 C.ar    1  UNL1        0.1046
     24 N          14.2607   85.2338   26.8479 N.ar    1  UNL1       -0.2292
     25 C          15.4070   88.8114   26.3865 C.3     1  UNL1        0.4204
     26 F          16.5512   88.8032   27.1659 F       1  UNL1       -0.1658
     27 F          15.6940   89.4707   25.2052 F       1  UNL1       -0.1658
     28 F          14.4245   89.5041   27.0702 F       1  UNL1       -0.1658
     29 C           7.8014   74.2753   25.0447 C.3     1  UNL1        0.1535
     30 C           6.6066   74.2650   25.9639 C.2     1  UNL1        0.2443
     31 O           5.4485   74.1675   25.4737 O.2     1  UNL1       -0.2730
     32 N           6.8028   74.2507   27.3878 N.am    1  UNL1       -0.2825
     33 H           7.7852   74.1950   27.7406 H       1  UNL1        0.1549
     34 C           5.7453   74.0376   28.3362 C.ar    1  UNL1        0.0535
     35 C           5.5373   74.9135   29.4137 C.ar    1  UNL1        0.0353
     36 C           4.4977   74.6625   30.3130 C.ar    1  UNL1        0.1002
     37 N           3.7031   73.5714   30.1507 N.ar    1  UNL1       -0.2422
     38 C           3.8941   72.6974   29.1273 C.ar    1  UNL1        0.1002
     39 C           4.9244   72.9090   28.2090 C.ar    1  UNL1        0.0353
     40 C           7.3740   73.9854   23.5931 C.3     1  UNL1        0.0569
     41 C           8.4674   74.3178   22.6161 C.ar    1  UNL1       -0.0017
     42 C           8.5746   75.4859   21.8671 C.ar    1  UNL1        0.0681
     43 N           9.7498   75.5126   21.1983 N.ar    1  UNL1       -0.3523
     44 C          10.3922   74.3792   21.5294 C.ar    1  UNL1        0.0563
     45 C          11.6664   73.9824   21.1256 C.ar    1  UNL1        0.0170
     46 C          12.1703   72.7714   21.6341 C.ar    1  UNL1        0.0015
     47 C          11.3995   71.9942   22.5264 C.ar    1  UNL1        0.0001
     48 C          10.1173   72.4198   22.9176 C.ar    1  UNL1        0.0012
     49 C           9.6424   73.6237   22.3942 C.ar    1  UNL1        0.0131
     50 H          10.0973   76.2759   20.5761 H       1  UNL1        0.1660
@<TRIPOS>BOND
     1     1     2    2
     2     2     3   am
     3     3    29    1
     4    29    40    1
     5    40    41    1
     6    41    42   ar
     7    42    43   ar
     8    43    44   ar
     9    44    45   ar
    10    45    46   ar
    11    46    47   ar
    12    47    48   ar
    13    48    49   ar
    14    29    30    1
    15    30    31    2
    16    30    32   am
    17    32    34    1
    18    34    35   ar
    19    35    36   ar
    20    36    37   ar
    21    37    38   ar
    22    38    39   ar
    23     2     5    1
    24     5     6   ar
    25     6     7   ar
    26     7     8   ar
    27     8    12    1
    28    12    13    1
    29    13    14    1
    30    14    15    1
    31    15    18    1
    32    18    19   ar
    33    19    20   ar
    34    20    21    1
    35    20    22   ar
    36    22    25    1
    37    25    26    1
    38    25    27    1
    39    25    28    1
    40    22    23   ar
    41    23    24   ar
    42    15    16    1
    43    16    17    1
    44     8     9   ar
    45     9    10   ar
    46    10    11    1
    47    49    41   ar
    48    39    34   ar
    49    10     5   ar
    50    49    44   ar
    51    17    12    1
    52    24    18   ar
    53     3     4    1
    54    43    50    1
    55    32    33    1
@<TRIPOS>MOLECULE
*****
 50 55 0 0 0
SMALL
GASTEIGER

@<TRIPOS>ATOM
      1 O           9.3948   75.0142   27.2660 O.2     1  UNL1       -0.2701
      2 C           9.0387   75.7570   26.3102 C.2     1  UNL1        0.2483
      3 N           7.9065   75.3896   25.5058 N.am    1  UNL1       -0.2945
      4 H           7.4724   76.1129   24.8885 H       1  UNL1        0.1501
      5 C           9.7757   77.0159   26.0572 C.ar    1  UNL1        0.0808
      6 C          11.1152   76.9627   25.6394 C.ar    1  UNL1        0.0080
      7 C          11.8329   78.1369   25.3996 C.ar    1  UNL1        0.0148
      8 C          11.2245   79.3936   25.5633 C.ar    1  UNL1        0.0502
      9 C           9.8769   79.4457   25.9603 C.ar    1  UNL1        0.0443
     10 C           9.1564   78.2720   26.2031 C.ar    1  UNL1        0.1457
     11 F           7.8439   78.3706   26.5343 F       1  UNL1       -0.2040
     12 N          11.9641   80.6092   25.3109 N.pl3   1  UNL1       -0.3040
     13 C          13.3914   80.5329   24.9620 C.3     1  UNL1        0.1123
     14 C          14.0988   81.8743   25.1775 C.3     1  UNL1        0.1136
     15 N          13.3583   82.9599   24.5188 N.pl3   1  UNL1       -0.2897
     16 C          11.8857   82.9559   24.5402 C.3     1  UNL1        0.1136
     17 C          11.3313   81.9188   25.5229 C.3     1  UNL1        0.1123
     18 C          14.0790   84.0913   23.9796 C.ar    1  UNL1        0.1322
     19 C          14.2069   85.2890   24.7010 C.ar    1  UNL1        0.0401
     20 C          14.9112   86.3649   24.1529 C.ar    1  UNL1        0.0383
     21 I          15.0434   88.1315   25.3252 I       1  UNL1       -0.0424
     22 C          15.4923   86.2463   22.8719 C.ar    1  UNL1        0.0960
     23 C          15.3345   85.0306   22.1834 C.ar    1  UNL1        0.1046
     24 N          14.6446   84.0045   22.7447 N.ar    1  UNL1       -0.2292
     25 C          16.2609   87.3910   22.2489 C.3     1  UNL1        0.4204
     26 F          17.4195   87.6738   22.9520 F       1  UNL1       -0.1658
     27 F          16.6118   87.0646   20.9517 F       1  UNL1       -0.1658
     28 F          15.4746   88.5286   22.2380 F       1  UNL1       -0.1658
     29 C           7.2266   74.1011   25.6660 C.3     1  UNL1        0.1535
     30 C           6.1735   74.2069   26.7395 C.2     1  UNL1        0.2443
     31 O           5.7197   73.1553   27.2681 O.2     1  UNL1       -0.2730
     32 N           5.7816   75.5005   27.2286 N.am    1  UNL1       -0.2825
     33 H           6.2872   76.3341   26.8518 H       1  UNL1        0.1549
     34 C           4.9441   75.6977   28.3788 C.ar    1  UNL1        0.0535
     35 C           4.6298   74.6411   29.2485 C.ar    1  UNL1        0.0353
     36 C           3.8075   74.8808   30.3525 C.ar    1  UNL1        0.1002
     37 N           3.3070   76.1253   30.5737 N.ar    1  UNL1       -0.2422
     38 C           3.5803   77.1615   29.7375 C.ar    1  UNL1        0.1002
     39 C           4.3942   76.9638   28.6203 C.ar    1  UNL1        0.0353
     40 C           6.5990   73.6633   24.3288 C.3     1  UNL1        0.0569
     41 C           7.3782   74.1846   23.1534 C.ar    1  UNL1       -0.0017
     42 C           6.9262   75.0994   22.2070 C.ar    1  UNL1        0.0681
     43 N           7.9303   75.4505   21.3715 N.ar    1  UNL1       -0.3523
     44 C           9.0156   74.7771   21.7905 C.ar    1  UNL1        0.0563
     45 C          10.3072   74.8507   21.2708 C.ar    1  UNL1        0.0170
     46 C          11.3127   74.0917   21.8969 C.ar    1  UNL1        0.0015
     47 C          11.0087   73.2873   23.0172 C.ar    1  UNL1        0.0001
     48 C           9.6966   73.2332   23.5209 C.ar    1  UNL1        0.0012
     49 C           8.7195   73.9943   22.8771 C.ar    1  UNL1        0.0131
     50 H           7.8763   76.1311   20.5814 H       1  UNL1        0.1660
@<TRIPOS>BOND
     1     1     2    2
     2     2     3   am
     3     3    29    1
     4    29    40    1
     5    40    41    1
     6    41    42   ar
     7    42    43   ar
     8    43    44   ar
     9    44    45   ar
    10    45    46   ar
    11    46    47   ar
    12    47    48   ar
    13    48    49   ar
    14    29    30    1
    15    30    31    2
    16    30    32   am
    17    32    34    1
    18    34    35   ar
    19    35    36   ar
    20    36    37   ar
    21    37    38   ar
    22    38    39   ar
    23     2     5    1
    24     5     6   ar
    25     6     7   ar
    26     7     8   ar
    27     8    12    1
    28    12    13    1
    29    13    14    1
    30    14    15    1
    31    15    18    1
    32    18    19   ar
    33    19    20   ar
    34    20    21    1
    35    20    22   ar
    36    22    25    1
    37    25    26    1
    38    25    27    1
    39    25    28    1
    40    22    23   ar
    41    23    24   ar
    42    15    16    1
    43    16    17    1
    44     8     9   ar
    45     9    10   ar
    46    10    11    1
    47    49    41   ar
    48    39    34   ar
    49    10     5   ar
    50    49    44   ar
    51    17    12    1
    52    24    18   ar
    53     3     4    1
    54    43    50    1
    55    32    33    1
