@<TRIPOS>MOLECULE
*****
 34 36 0 0 0
SMALL
GASTEIGER

@<TRIPOS>ATOM
      1 C         -23.5172  -10.8039  -12.3340 C.ar    1  UNL1       -0.0023
      2 C         -24.3568   -9.7527  -11.9309 C.ar    1  UNL1       -0.0026
      3 C         -23.8146   -8.5388  -11.5025 C.ar    1  UNL1       -0.0003
      4 C         -22.4231   -8.3594  -11.4613 C.ar    1  UNL1        0.0001
      5 C         -21.5832   -9.4107  -11.8589 C.ar    1  UNL1       -0.0003
      6 C         -22.1261  -10.6250  -12.2864 C.ar    1  UNL1       -0.0026
      7 C         -21.8464   -7.0603  -11.0454 C.ar    1  UNL1        0.0030
      8 C         -21.5078   -6.1327  -12.0469 C.ar    1  UNL1        0.0001
      9 C         -21.0550   -4.8565  -11.7109 C.ar    1  UNL1        0.0000
     10 C         -20.9401   -4.4861  -10.3723 C.ar    1  UNL1        0.0001
     11 C         -21.2606   -5.3963   -9.3637 C.ar    1  UNL1        0.0031
     12 C         -21.6968   -6.6950   -9.6805 C.ar    1  UNL1        0.0371
     13 C         -21.9525   -7.6387   -8.5677 C.ar    1  UNL1        0.1806
     14 N         -23.1794   -7.9740   -8.1249 N.ar    1  UNL1       -0.1084
     15 N         -22.9650   -8.7872   -7.1000 N.ar    1  UNL1       -0.0229
     16 N         -21.6634   -8.9387   -6.9078 N.ar    1  UNL1       -0.0464
     17 N         -21.0115   -8.2282   -7.8099 N.ar    1  UNL1       -0.2388
     18 H         -19.9737   -8.1340   -7.8639 H       1  UNL1        0.1923
     19 C         -24.1077  -12.0741  -12.8942 C.3     1  UNL1        0.1206
     20 C         -24.2172  -10.8686  -15.0840 C.2     1  UNL1        0.2262
     21 O         -25.2065  -10.1431  -14.7935 O.2     1  UNL1       -0.2749
     22 N         -24.0009  -12.0995  -14.3647 N.am    1  UNL1       -0.2673
     23 C         -23.2243  -10.3752  -16.1009 C.3     1  UNL1        0.0853
     24 C         -23.0510   -8.8550  -15.9837 C.3     1  UNL1        0.0096
     25 C         -20.6156   -8.2364  -16.4208 C.3     1  UNL1        0.0000
     26 C         -21.7015   -8.4576  -15.3686 C.3     1  UNL1        0.0005
     27 C         -23.7516  -13.3479  -15.1234 C.3     1  UNL1        0.1746
     28 C         -25.0130  -14.1635  -15.3117 C.2     1  UNL1        0.3320
     29 O         -25.8837  -14.1882  -14.4005 O.2     1  UNL1       -0.2485
     30 O         -25.1853  -14.9630  -16.4385 O.3     1  UNL1       -0.4790
     31 H         -26.0161  -15.5315  -16.5511 H       1  UNL1        0.2951
     32 C         -22.5392  -14.1424  -14.5294 C.3     1  UNL1        0.0292
     33 C         -21.2119  -13.4166  -14.8004 C.3     1  UNL1        0.0023
     34 C         -22.4263  -15.6027  -15.0095 C.3     1  UNL1        0.0023
@<TRIPOS>BOND
     1    25    26    1
     2    26    24    1
     3    24    23    1
     4    23    20    1
     5    20    21    2
     6    20    22   am
     7    22    19    1
     8    19     1    1
     9     1     2   ar
    10     2     3   ar
    11     3     4   ar
    12     4     7    1
    13     7     8   ar
    14     8     9   ar
    15     9    10   ar
    16    10    11   ar
    17    11    12   ar
    18    12    13    1
    19    13    14   ar
    20    14    15   ar
    21    15    16   ar
    22    16    17   ar
    23     4     5   ar
    24     5     6   ar
    25    22    27    1
    26    27    28    1
    27    28    29    2
    28    28    30    1
    29    27    32    1
    30    32    33    1
    31    32    34    1
    32     6     1   ar
    33    12     7   ar
    34    17    13   ar
    35    17    18    1
    36    30    31    1
@<TRIPOS>MOLECULE
*****
 34 36 0 0 0
SMALL
GASTEIGER

@<TRIPOS>ATOM
      1 C         -23.3321   -9.2890  -10.3812 C.ar    1  UNL1       -0.0023
      2 C         -24.5649   -9.2317  -11.0517 C.ar    1  UNL1       -0.0026
      3 C         -24.8571  -10.1380  -12.0737 C.ar    1  UNL1       -0.0003
      4 C         -23.9173  -11.1108  -12.4485 C.ar    1  UNL1        0.0001
      5 C         -22.6833  -11.1656  -11.7828 C.ar    1  UNL1       -0.0003
      6 C         -22.3911  -10.2584  -10.7613 C.ar    1  UNL1       -0.0026
      7 C         -24.2399  -12.0978  -13.5044 C.ar    1  UNL1        0.0030
      8 C         -25.0110  -13.2198  -13.1515 C.ar    1  UNL1        0.0001
      9 C         -25.4294  -14.1295  -14.1232 C.ar    1  UNL1        0.0000
     10 C         -25.0902  -13.9290  -15.4599 C.ar    1  UNL1        0.0001
     11 C         -24.3161  -12.8275  -15.8285 C.ar    1  UNL1        0.0031
     12 C         -23.8648  -11.9113  -14.8620 C.ar    1  UNL1        0.0371
     13 C         -22.9868  -10.8030  -15.3039 C.ar    1  UNL1        0.1806
     14 N         -23.3991   -9.5328  -15.4783 N.ar    1  UNL1       -0.1084
     15 N         -22.3329   -8.8831  -15.9238 N.ar    1  UNL1       -0.0229
     16 N         -21.3090   -9.7160  -16.0332 N.ar    1  UNL1       -0.0464
     17 N         -21.6946  -10.9210  -15.6552 N.ar    1  UNL1       -0.2388
     18 H         -21.0984  -11.7770  -15.6800 H       1  UNL1        0.1923
     19 C         -23.0627   -8.3773   -9.2099 C.3     1  UNL1        0.1206
     20 C         -20.6432   -8.2642   -8.5820 C.2     1  UNL1        0.2262
     21 O         -20.8034   -8.5408   -7.3625 O.2     1  UNL1       -0.2749
     22 N         -21.7454   -7.7279   -9.3415 N.am    1  UNL1       -0.2673
     23 C         -19.3349   -8.6053   -9.2417 C.3     1  UNL1        0.0853
     24 C         -19.2619  -10.1096   -9.5362 C.3     1  UNL1        0.0096
     25 C         -17.8278  -12.2156   -9.4226 C.3     1  UNL1        0.0000
     26 C         -17.9875  -10.7615   -8.9810 C.3     1  UNL1        0.0005
     27 C         -21.5353   -6.5132  -10.1642 C.3     1  UNL1        0.1746
     28 C         -21.4797   -5.2559   -9.3227 C.2     1  UNL1        0.3320
     29 O         -20.5318   -4.4399   -9.4792 O.2     1  UNL1       -0.2485
     30 O         -22.4102   -5.0313   -8.3116 O.3     1  UNL1       -0.4790
     31 H         -22.3561   -4.2045   -7.7289 H       1  UNL1        0.2951
     32 C         -22.5423   -6.4563  -11.3627 C.3     1  UNL1        0.0292
     33 C         -21.8912   -6.9592  -12.6609 C.3     1  UNL1        0.0023
     34 C         -23.1705   -5.0713  -11.6135 C.3     1  UNL1        0.0023
@<TRIPOS>BOND
     1    25    26    1
     2    26    24    1
     3    24    23    1
     4    23    20    1
     5    20    21    2
     6    20    22   am
     7    22    19    1
     8    19     1    1
     9     1     2   ar
    10     2     3   ar
    11     3     4   ar
    12     4     7    1
    13     7     8   ar
    14     8     9   ar
    15     9    10   ar
    16    10    11   ar
    17    11    12   ar
    18    12    13    1
    19    13    14   ar
    20    14    15   ar
    21    15    16   ar
    22    16    17   ar
    23     4     5   ar
    24     5     6   ar
    25    22    27    1
    26    27    28    1
    27    28    29    2
    28    28    30    1
    29    27    32    1
    30    32    33    1
    31    32    34    1
    32     6     1   ar
    33    12     7   ar
    34    17    13   ar
    35    17    18    1
    36    30    31    1
@<TRIPOS>MOLECULE
*****
 34 36 0 0 0
SMALL
GASTEIGER

@<TRIPOS>ATOM
      1 C         -20.0915   -9.4210  -11.1835 C.ar    1  UNL1       -0.0023
      2 C         -20.7705   -9.0028  -12.3396 C.ar    1  UNL1       -0.0026
      3 C         -21.5133   -9.9151  -13.0927 C.ar    1  UNL1       -0.0003
      4 C         -21.5816  -11.2630  -12.7070 C.ar    1  UNL1        0.0001
      5 C         -20.8994  -11.6829  -11.5550 C.ar    1  UNL1       -0.0003
      6 C         -20.1558  -10.7702  -10.8027 C.ar    1  UNL1       -0.0026
      7 C         -22.4005  -12.2240  -13.4811 C.ar    1  UNL1        0.0030
      8 C         -21.7440  -13.2875  -14.1260 C.ar    1  UNL1        0.0001
      9 C         -22.4725  -14.2782  -14.7853 C.ar    1  UNL1        0.0000
     10 C         -23.8650  -14.2252  -14.8045 C.ar    1  UNL1        0.0001
     11 C         -24.5344  -13.1717  -14.1798 C.ar    1  UNL1        0.0031
     12 C         -23.8186  -12.1508  -13.5297 C.ar    1  UNL1        0.0371
     13 C         -24.5813  -11.0219  -12.9479 C.ar    1  UNL1        0.1806
     14 N         -25.3599  -10.1859  -13.6610 N.ar    1  UNL1       -0.1084
     15 N         -25.8092   -9.3007  -12.7823 N.ar    1  UNL1       -0.0229
     16 N         -25.3204   -9.5682  -11.5808 N.ar    1  UNL1       -0.0464
     17 N         -24.5482  -10.6363  -11.6605 N.ar    1  UNL1       -0.2388
     18 H         -24.0036  -11.0433  -10.8690 H       1  UNL1        0.1923
     19 C         -19.3778   -8.4133  -10.3168 C.3     1  UNL1        0.1206
     20 C         -19.4263   -8.8083   -7.8465 C.2     1  UNL1        0.2262
     21 O         -18.9538   -9.9766   -7.8837 O.2     1  UNL1       -0.2749
     22 N         -20.0608   -8.2590   -9.0191 N.am    1  UNL1       -0.2673
     23 C         -19.2170   -7.9757   -6.6111 C.3     1  UNL1        0.0853
     24 C         -18.1696   -8.6282   -5.6989 C.3     1  UNL1        0.0096
     25 C         -16.0494   -8.2616   -4.3294 C.3     1  UNL1        0.0000
     26 C         -17.2201   -7.6048   -5.0596 C.3     1  UNL1        0.0005
     27 C         -21.3957   -7.6277   -8.8920 C.3     1  UNL1        0.1746
     28 C         -22.4846   -8.6438   -8.6206 C.2     1  UNL1        0.3320
     29 O         -22.6998   -9.5669   -9.4515 O.2     1  UNL1       -0.2485
     30 O         -23.3160   -8.5207   -7.5106 O.3     1  UNL1       -0.4790
     31 H         -24.0635   -9.1837   -7.3442 H       1  UNL1        0.2951
     32 C         -21.6844   -6.6610  -10.0903 C.3     1  UNL1        0.0292
     33 C         -21.5098   -5.1917   -9.6744 C.3     1  UNL1        0.0023
     34 C         -23.0670   -6.8415  -10.7473 C.3     1  UNL1        0.0023
@<TRIPOS>BOND
     1    25    26    1
     2    26    24    1
     3    24    23    1
     4    23    20    1
     5    20    21    2
     6    20    22   am
     7    22    19    1
     8    19     1    1
     9     1     2   ar
    10     2     3   ar
    11     3     4   ar
    12     4     7    1
    13     7     8   ar
    14     8     9   ar
    15     9    10   ar
    16    10    11   ar
    17    11    12   ar
    18    12    13    1
    19    13    14   ar
    20    14    15   ar
    21    15    16   ar
    22    16    17   ar
    23     4     5   ar
    24     5     6   ar
    25    22    27    1
    26    27    28    1
    27    28    29    2
    28    28    30    1
    29    27    32    1
    30    32    33    1
    31    32    34    1
    32     6     1   ar
    33    12     7   ar
    34    17    13   ar
    35    17    18    1
    36    30    31    1
@<TRIPOS>MOLECULE
*****
 34 36 0 0 0
SMALL
GASTEIGER

@<TRIPOS>ATOM
      1 C         -23.6331  -10.5147  -12.3335 C.ar    1  UNL1       -0.0023
      2 C         -22.2524  -10.4385  -12.0880 C.ar    1  UNL1       -0.0026
      3 C         -21.6715   -9.2350  -11.6813 C.ar    1  UNL1       -0.0003
      4 C         -22.4607   -8.0852  -11.5225 C.ar    1  UNL1        0.0001
      5 C         -23.8394   -8.1589  -11.7725 C.ar    1  UNL1       -0.0003
      6 C         -24.4198   -9.3627  -12.1802 C.ar    1  UNL1       -0.0026
      7 C         -21.8542   -6.8183  -11.0533 C.ar    1  UNL1        0.0030
      8 C         -21.4403   -5.8826  -12.0183 C.ar    1  UNL1        0.0001
      9 C         -20.9549   -4.6321  -11.6345 C.ar    1  UNL1        0.0000
     10 C         -20.8822   -4.2955  -10.2841 C.ar    1  UNL1        0.0001
     11 C         -21.2778   -5.2146   -9.3109 C.ar    1  UNL1        0.0031
     12 C         -21.7481   -6.4887   -9.6754 C.ar    1  UNL1        0.0371
     13 C         -22.0844   -7.4461   -8.5961 C.ar    1  UNL1        0.1806
     14 N         -21.1736   -8.1441   -7.8911 N.ar    1  UNL1       -0.1084
     15 N         -21.8839   -8.9116   -7.0762 N.ar    1  UNL1       -0.0229
     16 N         -23.1772   -8.7080   -7.2763 N.ar    1  UNL1       -0.0464
     17 N         -23.3265   -7.7999   -8.2232 N.ar    1  UNL1       -0.2388
     18 H         -24.2419   -7.4793   -8.6080 H       1  UNL1        0.1923
     19 C         -24.2716  -11.8393  -12.6705 C.3     1  UNL1        0.1206
     20 C         -24.4523  -11.4778  -15.1398 C.2     1  UNL1        0.2262
     21 O         -25.6685  -11.1458  -15.1426 O.2     1  UNL1       -0.2749
     22 N         -23.9284  -12.2540  -14.0434 N.am    1  UNL1       -0.2673
     23 C         -23.5523  -10.9601  -16.2285 C.3     1  UNL1        0.0853
     24 C         -23.0805   -9.5374  -15.8994 C.3     1  UNL1        0.0096
     25 C         -21.0118   -8.0827  -16.2296 C.3     1  UNL1        0.0000
     26 C         -21.5543   -9.4344  -15.7674 C.3     1  UNL1        0.0005
     27 C         -23.1305  -13.4692  -14.3320 C.3     1  UNL1        0.1746
     28 C         -21.6537  -13.1644  -14.4659 C.2     1  UNL1        0.3320
     29 O         -21.1667  -12.9163  -15.6017 O.2     1  UNL1       -0.2485
     30 O         -20.8049  -13.2452  -13.3651 O.3     1  UNL1       -0.4790
     31 H         -19.8117  -13.0699  -13.4598 H       1  UNL1        0.2951
     32 C         -23.7430  -14.2827  -15.5223 C.3     1  UNL1        0.0292
     33 C         -25.2157  -14.6334  -15.2571 C.3     1  UNL1        0.0023
     34 C         -22.9740  -15.5668  -15.8905 C.3     1  UNL1        0.0023
@<TRIPOS>BOND
     1    25    26    1
     2    26    24    1
     3    24    23    1
     4    23    20    1
     5    20    21    2
     6    20    22   am
     7    22    19    1
     8    19     1    1
     9     1     2   ar
    10     2     3   ar
    11     3     4   ar
    12     4     7    1
    13     7     8   ar
    14     8     9   ar
    15     9    10   ar
    16    10    11   ar
    17    11    12   ar
    18    12    13    1
    19    13    14   ar
    20    14    15   ar
    21    15    16   ar
    22    16    17   ar
    23     4     5   ar
    24     5     6   ar
    25    22    27    1
    26    27    28    1
    27    28    29    2
    28    28    30    1
    29    27    32    1
    30    32    33    1
    31    32    34    1
    32     6     1   ar
    33    12     7   ar
    34    17    13   ar
    35    17    18    1
    36    30    31    1
@<TRIPOS>MOLECULE
*****
 34 36 0 0 0
SMALL
GASTEIGER

@<TRIPOS>ATOM
      1 C         -22.7609   -9.5984  -10.7952 C.ar    1  UNL1       -0.0023
      2 C         -21.4862  -10.1203  -11.0693 C.ar    1  UNL1       -0.0026
      3 C         -21.2738  -10.9105  -12.2014 C.ar    1  UNL1       -0.0003
      4 C         -22.3351  -11.1995  -13.0733 C.ar    1  UNL1        0.0001
      5 C         -23.6103  -10.6829  -12.7976 C.ar    1  UNL1       -0.0003
      6 C         -23.8224   -9.8934  -11.6646 C.ar    1  UNL1       -0.0026
      7 C         -22.1042  -12.0038  -14.2952 C.ar    1  UNL1        0.0030
      8 C         -21.9973  -13.3998  -14.1611 C.ar    1  UNL1        0.0001
      9 C         -21.8798  -14.2157  -15.2868 C.ar    1  UNL1        0.0000
     10 C         -21.8741  -13.6511  -16.5610 C.ar    1  UNL1        0.0001
     11 C         -21.9678  -12.2670  -16.7143 C.ar    1  UNL1        0.0031
     12 C         -22.0638  -11.4251  -15.5921 C.ar    1  UNL1        0.0371
     13 C         -22.0874   -9.9608  -15.8152 C.ar    1  UNL1        0.1806
     14 N         -20.9899   -9.2073  -16.0189 N.ar    1  UNL1       -0.1084
     15 N         -21.4396   -7.9642  -16.1184 N.ar    1  UNL1       -0.0229
     16 N         -22.7556   -7.9463  -15.9699 N.ar    1  UNL1       -0.0464
     17 N         -23.1816   -9.1809  -15.7757 N.ar    1  UNL1       -0.2388
     18 H         -24.1720   -9.4514  -15.5892 H       1  UNL1        0.1923
     19 C         -22.9623   -8.6611   -9.6304 C.3     1  UNL1        0.1206
     20 C         -20.8525   -8.1858   -8.3721 C.2     1  UNL1        0.2262
     21 O         -21.2987   -8.4907   -7.2331 O.2     1  UNL1       -0.2749
     22 N         -21.7704   -7.8184   -9.4218 N.am    1  UNL1       -0.2673
     23 C         -19.3779   -8.3204   -8.6379 C.3     1  UNL1        0.0853
     24 C         -18.8776   -9.6987   -8.1851 C.3     1  UNL1        0.0096
     25 C         -17.3302  -11.6075   -8.8684 C.3     1  UNL1        0.0000
     26 C         -18.3066  -10.5316   -9.3417 C.3     1  UNL1        0.0005
     27 C         -21.5241   -6.5810  -10.1994 C.3     1  UNL1        0.1746
     28 C         -21.5195   -5.3468   -9.3226 C.2     1  UNL1        0.3320
     29 O         -20.5936   -4.4996   -9.4401 O.2     1  UNL1       -0.2485
     30 O         -22.4728   -5.1778   -8.3220 O.3     1  UNL1       -0.4790
     31 H         -22.4527   -4.3664   -7.7159 H       1  UNL1        0.2951
     32 C         -22.4674   -6.4957  -11.4471 C.3     1  UNL1        0.0292
     33 C         -21.7077   -6.8232  -12.7424 C.3     1  UNL1        0.0023
     34 C         -23.1978   -5.1487  -11.6139 C.3     1  UNL1        0.0023
@<TRIPOS>BOND
     1    25    26    1
     2    26    24    1
     3    24    23    1
     4    23    20    1
     5    20    21    2
     6    20    22   am
     7    22    19    1
     8    19     1    1
     9     1     2   ar
    10     2     3   ar
    11     3     4   ar
    12     4     7    1
    13     7     8   ar
    14     8     9   ar
    15     9    10   ar
    16    10    11   ar
    17    11    12   ar
    18    12    13    1
    19    13    14   ar
    20    14    15   ar
    21    15    16   ar
    22    16    17   ar
    23     4     5   ar
    24     5     6   ar
    25    22    27    1
    26    27    28    1
    27    28    29    2
    28    28    30    1
    29    27    32    1
    30    32    33    1
    31    32    34    1
    32     6     1   ar
    33    12     7   ar
    34    17    13   ar
    35    17    18    1
    36    30    31    1
@<TRIPOS>MOLECULE
*****
 34 36 0 0 0
SMALL
GASTEIGER

@<TRIPOS>ATOM
      1 C         -24.8915   -9.3474  -11.5231 C.ar    1  UNL1       -0.0023
      2 C         -24.2368  -10.5505  -11.2127 C.ar    1  UNL1       -0.0026
      3 C         -24.1961  -11.5936  -12.1409 C.ar    1  UNL1       -0.0003
      4 C         -24.8178  -11.4540  -13.3916 C.ar    1  UNL1        0.0001
      5 C         -25.4767  -10.2544  -13.7007 C.ar    1  UNL1       -0.0003
      6 C         -25.5179   -9.2118  -12.7716 C.ar    1  UNL1       -0.0026
      7 C         -24.7423  -12.5431  -14.3923 C.ar    1  UNL1        0.0030
      8 C         -25.5027  -13.7048  -14.1684 C.ar    1  UNL1        0.0001
      9 C         -25.5488  -14.7201  -15.1243 C.ar    1  UNL1        0.0000
     10 C         -24.8429  -14.5876  -16.3186 C.ar    1  UNL1        0.0001
     11 C         -24.0736  -13.4471  -16.5547 C.ar    1  UNL1        0.0031
     12 C         -23.9951  -12.4226  -15.5947 C.ar    1  UNL1        0.0371
     13 C         -23.1055  -11.2707  -15.8711 C.ar    1  UNL1        0.1806
     14 N         -23.3814  -10.2957  -16.7583 N.ar    1  UNL1       -0.1084
     15 N         -22.3192   -9.5026  -16.7393 N.ar    1  UNL1       -0.0229
     16 N         -21.4197   -9.9722  -15.8882 N.ar    1  UNL1       -0.0464
     17 N         -21.8870  -11.0773  -15.3372 N.ar    1  UNL1       -0.2388
     18 H         -21.3667  -11.6762  -14.6594 H       1  UNL1        0.1923
     19 C         -24.8431   -8.1873  -10.5599 C.3     1  UNL1        0.1206
     20 C         -22.7643   -8.0091   -9.1788 C.2     1  UNL1        0.2262
     21 O         -23.3466   -7.8556   -8.0712 O.2     1  UNL1       -0.2749
     22 N         -23.4627   -7.6939  -10.4004 N.am    1  UNL1       -0.2673
     23 C         -21.3912   -8.6233   -9.2022 C.3     1  UNL1        0.0853
     24 C         -21.4648  -10.0765   -9.6896 C.3     1  UNL1        0.0096
     25 C         -20.5803  -11.7377  -11.4110 C.3     1  UNL1        0.0000
     26 C         -20.3216  -10.4391  -10.6483 C.3     1  UNL1        0.0005
     27 C         -22.8023   -6.8352  -11.4117 C.3     1  UNL1        0.1746
     28 C         -23.6269   -5.6108  -11.7476 C.2     1  UNL1        0.3320
     29 O         -23.1474   -4.4613  -11.5539 O.2     1  UNL1       -0.2485
     30 O         -24.9444   -5.7337  -12.1809 O.3     1  UNL1       -0.4790
     31 H         -25.5060   -4.9140  -12.3778 H       1  UNL1        0.2951
     32 C         -22.3351   -7.6717  -12.6510 C.3     1  UNL1        0.0292
     33 C         -20.8115   -7.5895  -12.8355 C.3     1  UNL1        0.0023
     34 C         -23.0276   -7.3026  -13.9777 C.3     1  UNL1        0.0023
@<TRIPOS>BOND
     1    25    26    1
     2    26    24    1
     3    24    23    1
     4    23    20    1
     5    20    21    2
     6    20    22   am
     7    22    19    1
     8    19     1    1
     9     1     2   ar
    10     2     3   ar
    11     3     4   ar
    12     4     7    1
    13     7     8   ar
    14     8     9   ar
    15     9    10   ar
    16    10    11   ar
    17    11    12   ar
    18    12    13    1
    19    13    14   ar
    20    14    15   ar
    21    15    16   ar
    22    16    17   ar
    23     4     5   ar
    24     5     6   ar
    25    22    27    1
    26    27    28    1
    27    28    29    2
    28    28    30    1
    29    27    32    1
    30    32    33    1
    31    32    34    1
    32     6     1   ar
    33    12     7   ar
    34    17    13   ar
    35    17    18    1
    36    30    31    1
@<TRIPOS>MOLECULE
*****
 34 36 0 0 0
SMALL
GASTEIGER

@<TRIPOS>ATOM
      1 C         -26.6253   -6.2012  -13.1119 C.ar    1  UNL1       -0.0023
      2 C         -27.6963   -6.7299  -13.8508 C.ar    1  UNL1       -0.0026
      3 C         -28.2241   -6.0247  -14.9350 C.ar    1  UNL1       -0.0003
      4 C         -27.6954   -4.7745  -15.2923 C.ar    1  UNL1        0.0001
      5 C         -26.6288   -4.2430  -14.5516 C.ar    1  UNL1       -0.0003
      6 C         -26.1019   -4.9483  -13.4667 C.ar    1  UNL1       -0.0026
      7 C         -28.2268   -4.0431  -16.4653 C.ar    1  UNL1        0.0030
      8 C         -29.4531   -3.3683  -16.3277 C.ar    1  UNL1        0.0001
      9 C         -29.9525   -2.5814  -17.3659 C.ar    1  UNL1        0.0000
     10 C         -29.2329   -2.4516  -18.5523 C.ar    1  UNL1        0.0001
     11 C         -28.0193   -3.1225  -18.7124 C.ar    1  UNL1        0.0031
     12 C         -27.5095   -3.9389  -17.6873 C.ar    1  UNL1        0.0371
     13 C         -26.2539   -4.6822  -17.9432 C.ar    1  UNL1        0.1806
     14 N         -25.8410   -5.0750  -19.1634 N.ar    1  UNL1       -0.1084
     15 N         -24.7176   -5.7451  -18.9472 N.ar    1  UNL1       -0.0229
     16 N         -24.4531   -5.7774  -17.6499 N.ar    1  UNL1       -0.0464
     17 N         -25.4004   -5.1235  -17.0030 N.ar    1  UNL1       -0.2388
     18 H         -25.4623   -5.0278  -15.9658 H       1  UNL1        0.1923
     19 C         -25.9912   -7.0121  -12.0091 C.3     1  UNL1        0.1206
     20 C         -23.6403   -6.2229  -11.6755 C.2     1  UNL1        0.2262
     21 O         -23.8910   -4.9920  -11.7820 O.2     1  UNL1       -0.2749
     22 N         -24.5468   -7.1866  -12.2491 N.am    1  UNL1       -0.2673
     23 C         -22.4567   -6.6581  -10.8552 C.3     1  UNL1        0.0853
     24 C         -21.1528   -6.4052  -11.6238 C.3     1  UNL1        0.0096
     25 C         -20.4985   -8.8147  -11.1028 C.3     1  UNL1        0.0000
     26 C         -20.5122   -7.6989  -12.1468 C.3     1  UNL1        0.0005
     27 C         -24.0073   -8.2664  -13.1089 C.3     1  UNL1        0.1746
     28 C         -23.6879   -7.7784  -14.5060 C.2     1  UNL1        0.3320
     29 O         -22.5224   -7.9167  -14.9656 O.2     1  UNL1       -0.2485
     30 O         -24.6386   -7.0939  -15.2584 O.3     1  UNL1       -0.4790
     31 H         -24.4164   -6.7415  -16.1816 H       1  UNL1        0.2951
     32 C         -24.9107   -9.5449  -13.0512 C.3     1  UNL1        0.0292
     33 C         -24.4887  -10.4729  -11.9011 C.3     1  UNL1        0.0023
     34 C         -24.9687  -10.3546  -14.3615 C.3     1  UNL1        0.0023
@<TRIPOS>BOND
     1    25    26    1
     2    26    24    1
     3    24    23    1
     4    23    20    1
     5    20    21    2
     6    20    22   am
     7    22    19    1
     8    19     1    1
     9     1     2   ar
    10     2     3   ar
    11     3     4   ar
    12     4     7    1
    13     7     8   ar
    14     8     9   ar
    15     9    10   ar
    16    10    11   ar
    17    11    12   ar
    18    12    13    1
    19    13    14   ar
    20    14    15   ar
    21    15    16   ar
    22    16    17   ar
    23     4     5   ar
    24     5     6   ar
    25    22    27    1
    26    27    28    1
    27    28    29    2
    28    28    30    1
    29    27    32    1
    30    32    33    1
    31    32    34    1
    32     6     1   ar
    33    12     7   ar
    34    17    13   ar
    35    17    18    1
    36    30    31    1
@<TRIPOS>MOLECULE
*****
 34 36 0 0 0
SMALL
GASTEIGER

@<TRIPOS>ATOM
      1 C         -22.7034   -8.4688  -11.7461 C.ar    1  UNL1       -0.0023
      2 C         -22.9461   -9.2879  -10.6313 C.ar    1  UNL1       -0.0026
      3 C         -21.9129  -10.0407  -10.0682 C.ar    1  UNL1       -0.0003
      4 C         -20.6217   -9.9939  -10.6166 C.ar    1  UNL1        0.0001
      5 C         -20.3793   -9.1798  -11.7335 C.ar    1  UNL1       -0.0003
      6 C         -21.4132   -8.4278  -12.2969 C.ar    1  UNL1       -0.0026
      7 C         -19.5158  -10.7600   -9.9977 C.ar    1  UNL1        0.0030
      8 C         -19.1592  -11.9932  -10.5723 C.ar    1  UNL1        0.0001
      9 C         -18.0620  -12.7102  -10.0938 C.ar    1  UNL1        0.0000
     10 C         -17.3022  -12.2040   -9.0409 C.ar    1  UNL1        0.0001
     11 C         -17.6468  -10.9872   -8.4501 C.ar    1  UNL1        0.0031
     12 C         -18.7624  -10.2601   -8.9018 C.ar    1  UNL1        0.0371
     13 C         -19.1206   -9.0123   -8.1883 C.ar    1  UNL1        0.1806
     14 N         -19.2510   -8.9144   -6.8514 N.ar    1  UNL1       -0.1084
     15 N         -19.6273   -7.6620   -6.6332 N.ar    1  UNL1       -0.0229
     16 N         -19.7380   -7.0163   -7.7842 N.ar    1  UNL1       -0.0464
     17 N         -19.4302   -7.8401   -8.7691 N.ar    1  UNL1       -0.2388
     18 H         -19.4730   -7.6038   -9.7845 H       1  UNL1        0.1923
     19 C         -23.7955   -7.5788  -12.2855 C.3     1  UNL1        0.1206
     20 C         -24.5814   -9.2945  -13.9286 C.2     1  UNL1        0.2262
     21 O         -23.8628   -8.9062  -14.8888 O.2     1  UNL1       -0.2749
     22 N         -24.8929   -8.3811  -12.8571 N.am    1  UNL1       -0.2673
     23 C         -25.0048  -10.7370  -13.8709 C.3     1  UNL1        0.0853
     24 C         -23.8530  -11.6493  -14.3139 C.3     1  UNL1        0.0096
     25 C         -21.4974  -12.3803  -13.6645 C.3     1  UNL1        0.0000
     26 C         -22.8873  -11.9838  -13.1682 C.3     1  UNL1        0.0005
     27 C         -26.3009   -8.2299  -12.4201 C.3     1  UNL1        0.1746
     28 C         -27.1324   -7.4639  -13.4270 C.2     1  UNL1        0.3320
     29 O         -28.2924   -7.8646  -13.7143 O.2     1  UNL1       -0.2485
     30 O         -26.6004   -6.3745  -14.1116 O.3     1  UNL1       -0.4790
     31 H         -27.1463   -5.8795  -14.8066 H       1  UNL1        0.2951
     32 C         -26.3863   -7.6897  -10.9522 C.3     1  UNL1        0.0292
     33 C         -26.6614   -8.8272   -9.9559 C.3     1  UNL1        0.0023
     34 C         -27.4187   -6.5656  -10.7366 C.3     1  UNL1        0.0023
@<TRIPOS>BOND
     1    25    26    1
     2    26    24    1
     3    24    23    1
     4    23    20    1
     5    20    21    2
     6    20    22   am
     7    22    19    1
     8    19     1    1
     9     1     2   ar
    10     2     3   ar
    11     3     4   ar
    12     4     7    1
    13     7     8   ar
    14     8     9   ar
    15     9    10   ar
    16    10    11   ar
    17    11    12   ar
    18    12    13    1
    19    13    14   ar
    20    14    15   ar
    21    15    16   ar
    22    16    17   ar
    23     4     5   ar
    24     5     6   ar
    25    22    27    1
    26    27    28    1
    27    28    29    2
    28    28    30    1
    29    27    32    1
    30    32    33    1
    31    32    34    1
    32     6     1   ar
    33    12     7   ar
    34    17    13   ar
    35    17    18    1
    36    30    31    1
@<TRIPOS>MOLECULE
*****
 34 36 0 0 0
SMALL
GASTEIGER

@<TRIPOS>ATOM
      1 C         -26.1670   -6.7663  -12.7237 C.ar    1  UNL1       -0.0023
      2 C         -25.6696   -5.4914  -13.0391 C.ar    1  UNL1       -0.0026
      3 C         -26.2547   -4.7359  -14.0581 C.ar    1  UNL1       -0.0003
      4 C         -27.3412   -5.2473  -14.7849 C.ar    1  UNL1        0.0001
      5 C         -27.8356   -6.5231  -14.4741 C.ar    1  UNL1       -0.0003
      6 C         -27.2495   -7.2787  -13.4554 C.ar    1  UNL1       -0.0026
      7 C         -27.9884   -4.4327  -15.8388 C.ar    1  UNL1        0.0030
      8 C         -29.2241   -3.8281  -15.5460 C.ar    1  UNL1        0.0001
      9 C         -29.8311   -2.9696  -16.4631 C.ar    1  UNL1        0.0000
     10 C         -29.2111   -2.6974  -17.6812 C.ar    1  UNL1        0.0001
     11 C         -27.9900   -3.2964  -17.9949 C.ar    1  UNL1        0.0031
     12 C         -27.3726   -4.1826  -17.0944 C.ar    1  UNL1        0.0371
     13 C         -26.1144   -4.8428  -17.5135 C.ar    1  UNL1        0.1806
     14 N         -25.7532   -5.0415  -18.7956 N.ar    1  UNL1       -0.1084
     15 N         -24.6055   -5.7020  -18.7313 N.ar    1  UNL1       -0.0229
     16 N         -24.2766   -5.9147  -17.4662 N.ar    1  UNL1       -0.0464
     17 N         -25.2056   -5.3904  -16.6880 N.ar    1  UNL1       -0.2388
     18 H         -25.2184   -5.4484  -15.6462 H       1  UNL1        0.1923
     19 C         -25.6002   -7.5339  -11.5552 C.3     1  UNL1        0.1206
     20 C         -24.1160   -8.7923  -13.1282 C.2     1  UNL1        0.2262
     21 O         -24.9707   -9.6560  -13.4641 O.2     1  UNL1       -0.2749
     22 N         -24.2714   -8.0834  -11.8822 N.am    1  UNL1       -0.2673
     23 C         -23.0133   -8.4444  -14.0906 C.3     1  UNL1        0.0853
     24 C         -23.1061   -9.3198  -15.3476 C.3     1  UNL1        0.0096
     25 C         -21.0149   -8.1639  -16.2397 C.3     1  UNL1        0.0000
     26 C         -22.4137   -8.6871  -16.5632 C.3     1  UNL1        0.0005
     27 C         -23.1217   -7.9936  -10.9513 C.3     1  UNL1        0.1746
     28 C         -23.3061   -8.8688   -9.7298 C.2     1  UNL1        0.3320
     29 O         -22.6905   -9.9656   -9.6475 O.2     1  UNL1       -0.2485
     30 O         -24.2183   -8.5249   -8.7357 O.3     1  UNL1       -0.4790
     31 H         -24.3634   -9.1247   -7.9324 H       1  UNL1        0.2951
     32 C         -22.7559   -6.5025  -10.6407 C.3     1  UNL1        0.0292
     33 C         -22.1217   -5.8191  -11.8626 C.3     1  UNL1        0.0023
     34 C         -21.8412   -6.3032   -9.4163 C.3     1  UNL1        0.0023
@<TRIPOS>BOND
     1    25    26    1
     2    26    24    1
     3    24    23    1
     4    23    20    1
     5    20    21    2
     6    20    22   am
     7    22    19    1
     8    19     1    1
     9     1     2   ar
    10     2     3   ar
    11     3     4   ar
    12     4     7    1
    13     7     8   ar
    14     8     9   ar
    15     9    10   ar
    16    10    11   ar
    17    11    12   ar
    18    12    13    1
    19    13    14   ar
    20    14    15   ar
    21    15    16   ar
    22    16    17   ar
    23     4     5   ar
    24     5     6   ar
    25    22    27    1
    26    27    28    1
    27    28    29    2
    28    28    30    1
    29    27    32    1
    30    32    33    1
    31    32    34    1
    32     6     1   ar
    33    12     7   ar
    34    17    13   ar
    35    17    18    1
    36    30    31    1
