@<TRIPOS>MOLECULE
*****
 49 54 0 0 0
SMALL
GASTEIGER

@<TRIPOS>ATOM
      1 O          61.4826   84.6707    6.2406 O.2     1  UNL1       -0.2701
      2 C          61.2240   84.7840    7.4677 C.2     1  UNL1        0.2483
      3 N          60.2924   85.7845    7.9158 N.am    1  UNL1       -0.2945
      4 H          59.8629   86.4143    7.2001 H       1  UNL1        0.1501
      5 C          61.8794   83.8909    8.4328 C.ar    1  UNL1        0.0808
      6 C          61.2292   82.7150    8.8261 C.ar    1  UNL1        0.0080
      7 C          61.6415   82.0372    9.9743 C.ar    1  UNL1        0.0148
      8 C          62.7052   82.5295   10.7500 C.ar    1  UNL1        0.0502
      9 C          63.4157   83.6555   10.2928 C.ar    1  UNL1        0.0443
     10 C          63.0051   84.3326    9.1415 C.ar    1  UNL1        0.1457
     11 F          63.6331   85.4823    8.7859 F       1  UNL1       -0.2040
     12 N          62.9454   81.9854   12.0657 N.pl3   1  UNL1       -0.3040
     13 C          61.8375   81.9823   13.0402 C.3     1  UNL1        0.1123
     14 C          62.3408   82.3243   14.4486 C.3     1  UNL1        0.1136
     15 N          63.4670   83.2622   14.3487 N.pl3   1  UNL1       -0.2897
     16 C          64.6623   82.8504   13.5964 C.3     1  UNL1        0.1136
     17 C          64.3095   81.7619   12.5687 C.3     1  UNL1        0.1123
     18 C          63.3534   84.6250   14.7954 C.ar    1  UNL1        0.1318
     19 C          64.2035   85.6230   14.2956 C.ar    1  UNL1        0.0343
     20 C          64.0989   86.9248   14.7860 C.ar    1  UNL1        0.0083
     21 C          63.1641   87.2302   15.7855 C.ar    1  UNL1        0.0906
     22 C          62.3214   86.2060   16.2465 C.ar    1  UNL1        0.1041
     23 N          62.4460   84.9430   15.7588 N.ar    1  UNL1       -0.2292
     24 C          63.0125   88.6422   16.2901 C.3     1  UNL1        0.4200
     25 F          61.7263   89.1036   16.0695 F       1  UNL1       -0.1658
     26 F          63.8943   89.4902   15.6427 F       1  UNL1       -0.1658
     27 F          63.2745   88.6707   17.6470 F       1  UNL1       -0.1658
     28 C          60.0865   86.0832    9.3395 C.3     1  UNL1        0.1535
     29 C          60.6093   87.4590    9.6575 C.2     1  UNL1        0.2443
     30 O          59.9075   88.4706    9.3836 O.2     1  UNL1       -0.2730
     31 N          61.9006   87.6098   10.2694 N.am    1  UNL1       -0.2825
     32 H          62.5450   86.7871   10.2793 H       1  UNL1        0.1549
     33 C          62.4094   88.8631   10.7470 C.ar    1  UNL1        0.0535
     34 C          62.8178   89.0229   12.0800 C.ar    1  UNL1        0.0353
     35 C          63.3291   90.2539   12.4986 C.ar    1  UNL1        0.1002
     36 N          63.4386   91.2828   11.6169 N.ar    1  UNL1       -0.2422
     37 C          63.0648   91.1492   10.3168 C.ar    1  UNL1        0.1002
     38 C          62.5536   89.9339    9.8567 C.ar    1  UNL1        0.0353
     39 C          58.6037   85.9511    9.7212 C.3     1  UNL1        0.0569
     40 C          58.3720   84.7142   10.5462 C.ar    1  UNL1       -0.0017
     41 C          58.5292   84.6003   11.9246 C.ar    1  UNL1        0.0681
     42 N          58.3955   83.3111   12.3111 N.ar    1  UNL1       -0.3523
     43 C          58.1722   82.6071   11.1877 C.ar    1  UNL1        0.0563
     44 C          58.0269   81.2251   11.0726 C.ar    1  UNL1        0.0170
     45 C          57.8650   80.6855    9.7836 C.ar    1  UNL1        0.0015
     46 C          57.8522   81.5294    8.6513 C.ar    1  UNL1        0.0001
     47 C          57.9987   82.9205    8.7975 C.ar    1  UNL1        0.0012
     48 C          58.1551   83.4272   10.0889 C.ar    1  UNL1        0.0131
     49 H          58.4876   82.9373   13.2817 H       1  UNL1        0.1660
@<TRIPOS>BOND
     1     1     2    2
     2     2     3   am
     3     3    28    1
     4    28    39    1
     5    39    40    1
     6    40    41   ar
     7    41    42   ar
     8    42    43   ar
     9    43    44   ar
    10    44    45   ar
    11    45    46   ar
    12    46    47   ar
    13    47    48   ar
    14    28    29    1
    15    29    30    2
    16    29    31   am
    17    31    33    1
    18    33    34   ar
    19    34    35   ar
    20    35    36   ar
    21    36    37   ar
    22    37    38   ar
    23     2     5    1
    24     5     6   ar
    25     6     7   ar
    26     7     8   ar
    27     8    12    1
    28    12    13    1
    29    13    14    1
    30    14    15    1
    31    15    18    1
    32    18    19   ar
    33    19    20   ar
    34    20    21   ar
    35    21    24    1
    36    24    25    1
    37    24    26    1
    38    24    27    1
    39    21    22   ar
    40    22    23   ar
    41    15    16    1
    42    16    17    1
    43     8     9   ar
    44     9    10   ar
    45    10    11    1
    46    48    40   ar
    47    38    33   ar
    48    10     5   ar
    49    48    43   ar
    50    17    12    1
    51    23    18   ar
    52     3     4    1
    53    42    49    1
    54    31    32    1
@<TRIPOS>MOLECULE
*****
 49 54 0 0 0
SMALL
GASTEIGER

@<TRIPOS>ATOM
      1 O          62.7542   85.1345    7.6719 O.2     1  UNL1       -0.2701
      2 C          61.8438   85.6740    8.3545 C.2     1  UNL1        0.2483
      3 N          60.6347   86.1191    7.7147 N.am    1  UNL1       -0.2945
      4 H          60.5512   85.9984    6.6794 H       1  UNL1        0.1501
      5 C          62.0270   85.8449    9.8022 C.ar    1  UNL1        0.0808
      6 C          61.5894   84.8370   10.6698 C.ar    1  UNL1        0.0080
      7 C          61.4240   85.1061   12.0292 C.ar    1  UNL1        0.0148
      8 C          61.6867   86.3892   12.5395 C.ar    1  UNL1        0.0502
      9 C          62.2204   87.3669   11.6787 C.ar    1  UNL1        0.0443
     10 C          62.3891   87.0967   10.3181 C.ar    1  UNL1        0.1457
     11 F          62.7944   88.0909    9.4875 F       1  UNL1       -0.2040
     12 N          61.2574   86.7318   13.8748 N.pl3   1  UNL1       -0.3040
     13 C          60.5003   87.9828   14.0727 C.3     1  UNL1        0.1123
     14 C          60.9262   88.6861   15.3679 C.3     1  UNL1        0.1136
     15 N          62.3523   88.4329   15.6133 N.pl3   1  UNL1       -0.2897
     16 C          62.8060   87.0410   15.7578 C.3     1  UNL1        0.1136
     17 C          61.8323   86.0766   15.0598 C.3     1  UNL1        0.1123
     18 C          63.3299   89.4843   15.5222 C.ar    1  UNL1        0.1318
     19 C          64.3473   89.4440   14.5569 C.ar    1  UNL1        0.0343
     20 C          65.3080   90.4550   14.5274 C.ar    1  UNL1        0.0083
     21 C          65.2692   91.4942   15.4680 C.ar    1  UNL1        0.0906
     22 C          64.2250   91.5059   16.4066 C.ar    1  UNL1        0.1041
     23 N          63.3036   90.5063   16.4208 N.ar    1  UNL1       -0.2292
     24 C          66.2757   92.6147   15.4169 C.3     1  UNL1        0.4200
     25 F          66.4721   93.1518   16.6775 F       1  UNL1       -0.1658
     26 F          65.8400   93.6256   14.5780 F       1  UNL1       -0.1658
     27 F          67.4784   92.1242   14.9442 F       1  UNL1       -0.1658
     28 C          59.6193   86.9119    8.4212 C.3     1  UNL1        0.1535
     29 C          59.5643   88.3040    7.8500 C.2     1  UNL1        0.2443
     30 O          60.2386   89.2247    8.3872 O.2     1  UNL1       -0.2730
     31 N          58.7466   88.5735    6.6997 N.am    1  UNL1       -0.2825
     32 H          58.0372   87.8604    6.4162 H       1  UNL1        0.1549
     33 C          58.7537   89.8247    5.9982 C.ar    1  UNL1        0.0535
     34 C          59.9519   90.4017    5.5502 C.ar    1  UNL1        0.0353
     35 C          59.9124   91.6104    4.8506 C.ar    1  UNL1        0.1002
     36 N          58.7209   92.2144    4.5984 N.ar    1  UNL1       -0.2422
     37 C          57.5452   91.6685    5.0077 C.ar    1  UNL1        0.1002
     38 C          57.5404   90.4589    5.7055 C.ar    1  UNL1        0.0353
     39 C          58.2436   86.2301    8.3547 C.3     1  UNL1        0.0569
     40 C          58.0576   85.2872    9.5127 C.ar    1  UNL1       -0.0017
     41 C          58.0559   85.6281   10.8622 C.ar    1  UNL1        0.0681
     42 N          58.0266   84.5158   11.6311 N.ar    1  UNL1       -0.3523
     43 C          58.0271   83.4750   10.7800 C.ar    1  UNL1        0.0563
     44 C          58.0591   82.1193   11.1046 C.ar    1  UNL1        0.0170
     45 C          58.1214   81.1913   10.0493 C.ar    1  UNL1        0.0015
     46 C          58.1502   81.6336    8.7084 C.ar    1  UNL1        0.0001
     47 C          58.1144   83.0077    8.4104 C.ar    1  UNL1        0.0012
     48 C          58.0502   83.9047    9.4780 C.ar    1  UNL1        0.0131
     49 H          58.0412   84.4772   12.6744 H       1  UNL1        0.1660
@<TRIPOS>BOND
     1     1     2    2
     2     2     3   am
     3     3    28    1
     4    28    39    1
     5    39    40    1
     6    40    41   ar
     7    41    42   ar
     8    42    43   ar
     9    43    44   ar
    10    44    45   ar
    11    45    46   ar
    12    46    47   ar
    13    47    48   ar
    14    28    29    1
    15    29    30    2
    16    29    31   am
    17    31    33    1
    18    33    34   ar
    19    34    35   ar
    20    35    36   ar
    21    36    37   ar
    22    37    38   ar
    23     2     5    1
    24     5     6   ar
    25     6     7   ar
    26     7     8   ar
    27     8    12    1
    28    12    13    1
    29    13    14    1
    30    14    15    1
    31    15    18    1
    32    18    19   ar
    33    19    20   ar
    34    20    21   ar
    35    21    24    1
    36    24    25    1
    37    24    26    1
    38    24    27    1
    39    21    22   ar
    40    22    23   ar
    41    15    16    1
    42    16    17    1
    43     8     9   ar
    44     9    10   ar
    45    10    11    1
    46    48    40   ar
    47    38    33   ar
    48    10     5   ar
    49    48    43   ar
    50    17    12    1
    51    23    18   ar
    52     3     4    1
    53    42    49    1
    54    31    32    1
@<TRIPOS>MOLECULE
*****
 49 54 0 0 0
SMALL
GASTEIGER

@<TRIPOS>ATOM
      1 O          61.7527   84.2468    5.8966 O.2     1  UNL1       -0.2701
      2 C          61.2250   84.2368    7.0399 C.2     1  UNL1        0.2483
      3 N          59.9021   84.7710    7.2248 N.am    1  UNL1       -0.2945
      4 H          59.4140   85.1779    6.3946 H       1  UNL1        0.1501
      5 C          61.9689   83.6787    8.1773 C.ar    1  UNL1        0.0808
      6 C          61.4724   82.5421    8.8267 C.ar    1  UNL1        0.0080
      7 C          61.9417   82.1993   10.0955 C.ar    1  UNL1        0.0148
      8 C          62.9089   82.9924   10.7366 C.ar    1  UNL1        0.0502
      9 C          63.4735   84.0749   10.0359 C.ar    1  UNL1        0.0443
     10 C          63.0060   84.4165    8.7641 C.ar    1  UNL1        0.1457
     11 F          63.4831   85.5333    8.1575 F       1  UNL1       -0.2040
     12 N          63.1854   82.7924   12.1396 N.pl3   1  UNL1       -0.3040
     13 C          62.1197   83.0864   13.1169 C.3     1  UNL1        0.1123
     14 C          62.6928   83.7544   14.3735 C.3     1  UNL1        0.1136
     15 N          63.8449   84.5860   14.0004 N.pl3   1  UNL1       -0.2897
     16 C          64.9931   83.9443   13.3416 C.3     1  UNL1        0.1136
     17 C          64.5610   82.6458   12.6396 C.3     1  UNL1        0.1123
     18 C          63.7962   86.0213   14.0856 C.ar    1  UNL1        0.1318
     19 C          63.1851   86.7850   13.0796 C.ar    1  UNL1        0.0343
     20 C          63.1983   88.1770   13.1690 C.ar    1  UNL1        0.0083
     21 C          63.8347   88.8098   14.2464 C.ar    1  UNL1        0.0906
     22 C          64.4198   88.0085   15.2399 C.ar    1  UNL1        0.1041
     23 N          64.4007   86.6536   15.1284 N.ar    1  UNL1       -0.2292
     24 C          63.8159   90.3112   14.3755 C.3     1  UNL1        0.4200
     25 F          65.0881   90.8310   14.2094 F       1  UNL1       -0.1658
     26 F          63.3528   90.6890   15.6238 F       1  UNL1       -0.1658
     27 F          62.9835   90.8404   13.4072 F       1  UNL1       -0.1658
     28 C          59.3077   84.9503    8.5564 C.3     1  UNL1        0.1535
     29 C          59.2897   86.4116    8.9192 C.2     1  UNL1        0.2443
     30 O          58.4198   87.1693    8.4090 O.2     1  UNL1       -0.2730
     31 N          60.2607   86.9317    9.8418 N.am    1  UNL1       -0.2825
     32 H          61.0931   86.3431   10.0715 H       1  UNL1        0.1549
     33 C          60.2232   88.2680   10.3618 C.ar    1  UNL1        0.0535
     34 C          59.5967   88.5567   11.5839 C.ar    1  UNL1        0.0353
     35 C          59.6028   89.8681   12.0657 C.ar    1  UNL1        0.1002
     36 N          60.2204   90.8518   11.3593 N.ar    1  UNL1       -0.2422
     37 C          60.8478   90.5957   10.1809 C.ar    1  UNL1        0.1002
     38 C          60.8692   89.2975    9.6669 C.ar    1  UNL1        0.0353
     39 C          57.8956   84.3466    8.6151 C.3     1  UNL1        0.0569
     40 C          57.9584   82.8616    8.8504 C.ar    1  UNL1       -0.0017
     41 C          57.6188   81.8666    7.9382 C.ar    1  UNL1        0.0681
     42 N          57.6388   80.6523    8.5336 N.ar    1  UNL1       -0.3523
     43 C          57.9711   80.8727    9.8174 C.ar    1  UNL1        0.0563
     44 C          58.0629   79.9286   10.8395 C.ar    1  UNL1        0.0170
     45 C          58.3639   80.3881   12.1346 C.ar    1  UNL1        0.0015
     46 C          58.5640   81.7650   12.3767 C.ar    1  UNL1        0.0001
     47 C          58.4674   82.6947   11.3258 C.ar    1  UNL1        0.0012
     48 C          58.1700   82.2091   10.0513 C.ar    1  UNL1        0.0131
     49 H          57.4039   79.7360    8.0914 H       1  UNL1        0.1660
@<TRIPOS>BOND
     1     1     2    2
     2     2     3   am
     3     3    28    1
     4    28    39    1
     5    39    40    1
     6    40    41   ar
     7    41    42   ar
     8    42    43   ar
     9    43    44   ar
    10    44    45   ar
    11    45    46   ar
    12    46    47   ar
    13    47    48   ar
    14    28    29    1
    15    29    30    2
    16    29    31   am
    17    31    33    1
    18    33    34   ar
    19    34    35   ar
    20    35    36   ar
    21    36    37   ar
    22    37    38   ar
    23     2     5    1
    24     5     6   ar
    25     6     7   ar
    26     7     8   ar
    27     8    12    1
    28    12    13    1
    29    13    14    1
    30    14    15    1
    31    15    18    1
    32    18    19   ar
    33    19    20   ar
    34    20    21   ar
    35    21    24    1
    36    24    25    1
    37    24    26    1
    38    24    27    1
    39    21    22   ar
    40    22    23   ar
    41    15    16    1
    42    16    17    1
    43     8     9   ar
    44     9    10   ar
    45    10    11    1
    46    48    40   ar
    47    38    33   ar
    48    10     5   ar
    49    48    43   ar
    50    17    12    1
    51    23    18   ar
    52     3     4    1
    53    42    49    1
    54    31    32    1
@<TRIPOS>MOLECULE
*****
 49 54 0 0 0
SMALL
GASTEIGER

@<TRIPOS>ATOM
      1 O          62.4491   90.9886    9.5398 O.2     1  UNL1       -0.2701
      2 C          62.3772   90.1599   10.4852 C.2     1  UNL1        0.2483
      3 N          62.9587   90.4757   11.7625 N.am    1  UNL1       -0.2945
      4 H          63.4509   91.3922   11.8674 H       1  UNL1        0.1501
      5 C          61.6988   88.8741   10.2729 C.ar    1  UNL1        0.0808
      6 C          62.4329   87.7869    9.7838 C.ar    1  UNL1        0.0080
      7 C          61.7728   86.6813    9.2457 C.ar    1  UNL1        0.0148
      8 C          60.3690   86.6500    9.1821 C.ar    1  UNL1        0.0502
      9 C          59.6385   87.7022    9.7660 C.ar    1  UNL1        0.0443
     10 C          60.2992   88.8079   10.3077 C.ar    1  UNL1        0.1457
     11 F          59.5727   89.8622   10.7587 F       1  UNL1       -0.2040
     12 N          59.7093   85.6415    8.3868 N.pl3   1  UNL1       -0.3040
     13 C          58.2878   85.3507    8.6551 C.3     1  UNL1        0.1123
     14 C          58.0032   83.8468    8.5503 C.3     1  UNL1        0.1136
     15 N          59.1876   83.0955    8.9872 N.pl3   1  UNL1       -0.2897
     16 C          60.4568   83.3033    8.2728 C.3     1  UNL1        0.1136
     17 C          60.4724   84.6765    7.5804 C.3     1  UNL1        0.1123
     18 C          59.1830   82.3218   10.2000 C.ar    1  UNL1        0.1318
     19 C          58.3891   81.1712   10.3206 C.ar    1  UNL1        0.0343
     20 C          58.3707   80.4716   11.5272 C.ar    1  UNL1        0.0083
     21 C          59.1249   80.9255   12.6186 C.ar    1  UNL1        0.0906
     22 C          59.9185   82.0716   12.4509 C.ar    1  UNL1        0.1041
     23 N          59.9155   82.7413   11.2677 N.ar    1  UNL1       -0.2292
     24 C          59.1469   80.1522   13.9121 C.3     1  UNL1        0.4200
     25 F          58.9825   78.7986   13.6740 F       1  UNL1       -0.1658
     26 F          58.1284   80.5718   14.7501 F       1  UNL1       -0.1658
     27 F          60.3604   80.3544   14.5421 F       1  UNL1       -0.1658
     28 C          63.0643   89.4855   12.8428 C.3     1  UNL1        0.1535
     29 C          64.1732   89.8695   13.7862 C.2     1  UNL1        0.2443
     30 O          64.6660   88.9995   14.5552 O.2     1  UNL1       -0.2730
     31 N          64.6616   91.2207   13.8040 N.am    1  UNL1       -0.2825
     32 H          64.0959   91.9599   13.3288 H       1  UNL1        0.1549
     33 C          65.8118   91.6376   14.5528 C.ar    1  UNL1        0.0535
     34 C          67.1078   91.5047   14.0312 C.ar    1  UNL1        0.0353
     35 C          68.1994   91.9445   14.7841 C.ar    1  UNL1        0.1002
     36 N          68.0036   92.5057   16.0067 N.ar    1  UNL1       -0.2422
     37 C          66.7577   92.6602   16.5278 C.ar    1  UNL1        0.1002
     38 C          65.6394   92.2385   15.8055 C.ar    1  UNL1        0.0353
     39 C          61.7281   89.3383   13.5876 C.3     1  UNL1        0.0569
     40 C          61.2149   87.9270   13.4913 C.ar    1  UNL1       -0.0017
     41 C          61.9748   86.7880   13.2408 C.ar    1  UNL1        0.0681
     42 N          61.1724   85.7143   13.0603 N.ar    1  UNL1       -0.3523
     43 C          59.9122   86.1676   13.1774 C.ar    1  UNL1        0.0563
     44 C          58.7346   85.4392   13.0134 C.ar    1  UNL1        0.0170
     45 C          57.5136   86.1302   13.1165 C.ar    1  UNL1        0.0015
     46 C          57.4969   87.5179   13.3781 C.ar    1  UNL1        0.0001
     47 C          58.7006   88.2269   13.5414 C.ar    1  UNL1        0.0012
     48 C          59.8962   87.5141   13.4362 C.ar    1  UNL1        0.0131
     49 H          61.4738   84.7401   12.8359 H       1  UNL1        0.1660
@<TRIPOS>BOND
     1     1     2    2
     2     2     3   am
     3     3    28    1
     4    28    39    1
     5    39    40    1
     6    40    41   ar
     7    41    42   ar
     8    42    43   ar
     9    43    44   ar
    10    44    45   ar
    11    45    46   ar
    12    46    47   ar
    13    47    48   ar
    14    28    29    1
    15    29    30    2
    16    29    31   am
    17    31    33    1
    18    33    34   ar
    19    34    35   ar
    20    35    36   ar
    21    36    37   ar
    22    37    38   ar
    23     2     5    1
    24     5     6   ar
    25     6     7   ar
    26     7     8   ar
    27     8    12    1
    28    12    13    1
    29    13    14    1
    30    14    15    1
    31    15    18    1
    32    18    19   ar
    33    19    20   ar
    34    20    21   ar
    35    21    24    1
    36    24    25    1
    37    24    26    1
    38    24    27    1
    39    21    22   ar
    40    22    23   ar
    41    15    16    1
    42    16    17    1
    43     8     9   ar
    44     9    10   ar
    45    10    11    1
    46    48    40   ar
    47    38    33   ar
    48    10     5   ar
    49    48    43   ar
    50    17    12    1
    51    23    18   ar
    52     3     4    1
    53    42    49    1
    54    31    32    1
@<TRIPOS>MOLECULE
*****
 49 54 0 0 0
SMALL
GASTEIGER

@<TRIPOS>ATOM
      1 O          65.0930   82.6761   10.9433 O.2     1  UNL1       -0.2701
      2 C          63.9474   83.1987   10.9490 C.2     1  UNL1        0.2483
      3 N          63.2532   83.4204    9.7086 N.am    1  UNL1       -0.2945
      4 H          63.7351   83.1552    8.8194 H       1  UNL1        0.1501
      5 C          63.3297   83.5789   12.2266 C.ar    1  UNL1        0.0808
      6 C          61.9419   83.4679   12.3743 C.ar    1  UNL1        0.0080
      7 C          61.2928   84.1340   13.4148 C.ar    1  UNL1        0.0148
      8 C          62.0212   84.9268   14.3184 C.ar    1  UNL1        0.0502
      9 C          63.4253   84.9521   14.2217 C.ar    1  UNL1        0.0443
     10 C          64.0758   84.2826   13.1819 C.ar    1  UNL1        0.1457
     11 F          65.4192   84.4176   13.0410 F       1  UNL1       -0.2040
     12 N          61.3235   85.8204   15.2125 N.pl3   1  UNL1       -0.3040
     13 C          60.5603   86.9427   14.6336 C.3     1  UNL1        0.1123
     14 C          60.7119   88.2100   15.4848 C.3     1  UNL1        0.1136
     15 N          62.0496   88.2317   16.0917 N.pl3   1  UNL1       -0.2897
     16 C          62.4416   87.1208   16.9727 C.3     1  UNL1        0.1136
     17 C          61.6240   85.8581   16.6520 C.3     1  UNL1        0.1123
     18 C          63.0398   89.1976   15.6965 C.ar    1  UNL1        0.1318
     19 C          64.0255   88.8771   14.7509 C.ar    1  UNL1        0.0343
     20 C          65.0001   89.8209   14.4263 C.ar    1  UNL1        0.0083
     21 C          65.0067   91.0744   15.0548 C.ar    1  UNL1        0.0906
     22 C          63.9930   91.3608   15.9830 C.ar    1  UNL1        0.1041
     23 N          63.0573   90.4230   16.2888 N.ar    1  UNL1       -0.2292
     24 C          66.0281   92.1169   14.6788 C.3     1  UNL1        0.4200
     25 F          65.6109   92.8304   13.5685 F       1  UNL1       -0.1658
     26 F          67.2440   91.5258   14.3825 F       1  UNL1       -0.1658
     27 F          66.1977   92.9896   15.7371 F       1  UNL1       -0.1658
     28 C          62.0002   84.1842    9.6366 C.3     1  UNL1        0.1535
     29 C          62.2993   85.6585    9.5720 C.2     1  UNL1        0.2443
     30 O          62.9299   86.1233    8.5833 O.2     1  UNL1       -0.2730
     31 N          61.8655   86.5238   10.6339 N.am    1  UNL1       -0.2825
     32 H          61.5501   86.0900   11.5309 H       1  UNL1        0.1549
     33 C          61.9684   87.9536   10.5829 C.ar    1  UNL1        0.0535
     34 C          61.2166   88.7057    9.6671 C.ar    1  UNL1        0.0353
     35 C          61.3294   90.0982    9.6661 C.ar    1  UNL1        0.1002
     36 N          62.1532   90.7169   10.5530 N.ar    1  UNL1       -0.2422
     37 C          62.8801   90.0126   11.4604 C.ar    1  UNL1        0.1002
     38 C          62.7923   88.6195   11.4981 C.ar    1  UNL1        0.0353
     39 C          61.1508   83.7372    8.4363 C.3     1  UNL1        0.0569
     40 C          59.9090   83.0228    8.8965 C.ar    1  UNL1       -0.0017
     41 C          58.6131   83.5310    8.8865 C.ar    1  UNL1        0.0681
     42 N          57.7684   82.6850    9.5189 N.ar    1  UNL1       -0.3523
     43 C          58.5214   81.6554    9.9433 C.ar    1  UNL1        0.0563
     44 C          58.1043   80.5591   10.6973 C.ar    1  UNL1        0.0170
     45 C          59.0776   79.6235   11.0924 C.ar    1  UNL1        0.0015
     46 C          60.4307   79.8022   10.7294 C.ar    1  UNL1        0.0001
     47 C          60.8225   80.9167    9.9662 C.ar    1  UNL1        0.0012
     48 C          59.8343   81.8267    9.5867 C.ar    1  UNL1        0.0131
     49 H          56.7461   82.8263    9.6780 H       1  UNL1        0.1660
@<TRIPOS>BOND
     1     1     2    2
     2     2     3   am
     3     3    28    1
     4    28    39    1
     5    39    40    1
     6    40    41   ar
     7    41    42   ar
     8    42    43   ar
     9    43    44   ar
    10    44    45   ar
    11    45    46   ar
    12    46    47   ar
    13    47    48   ar
    14    28    29    1
    15    29    30    2
    16    29    31   am
    17    31    33    1
    18    33    34   ar
    19    34    35   ar
    20    35    36   ar
    21    36    37   ar
    22    37    38   ar
    23     2     5    1
    24     5     6   ar
    25     6     7   ar
    26     7     8   ar
    27     8    12    1
    28    12    13    1
    29    13    14    1
    30    14    15    1
    31    15    18    1
    32    18    19   ar
    33    19    20   ar
    34    20    21   ar
    35    21    24    1
    36    24    25    1
    37    24    26    1
    38    24    27    1
    39    21    22   ar
    40    22    23   ar
    41    15    16    1
    42    16    17    1
    43     8     9   ar
    44     9    10   ar
    45    10    11    1
    46    48    40   ar
    47    38    33   ar
    48    10     5   ar
    49    48    43   ar
    50    17    12    1
    51    23    18   ar
    52     3     4    1
    53    42    49    1
    54    31    32    1
@<TRIPOS>MOLECULE
*****
 49 54 0 0 0
SMALL
GASTEIGER

@<TRIPOS>ATOM
      1 O          63.8661   80.7305   15.0132 O.2     1  UNL1       -0.2701
      2 C          63.0734   81.5998   14.5643 C.2     1  UNL1        0.2483
      3 N          61.9507   81.2001   13.7585 N.am    1  UNL1       -0.2945
      4 H          61.8325   80.1829   13.5472 H       1  UNL1        0.1501
      5 C          63.3046   83.0185   14.8684 C.ar    1  UNL1        0.0808
      6 C          62.4990   83.6530   15.8216 C.ar    1  UNL1        0.0080
      7 C          62.4499   85.0465   15.8812 C.ar    1  UNL1        0.0148
      8 C          63.2000   85.8257   14.9836 C.ar    1  UNL1        0.0502
      9 C          64.0817   85.1806   14.0960 C.ar    1  UNL1        0.0443
     10 C          64.1335   83.7854   14.0382 C.ar    1  UNL1        0.1457
     11 F          64.9039   83.1865   13.0945 F       1  UNL1       -0.2040
     12 N          62.9382   87.2412   14.8705 N.pl3   1  UNL1       -0.3040
     13 C          61.5495   87.7157   15.0241 C.3     1  UNL1        0.1123
     14 C          61.2382   88.8416   14.0297 C.3     1  UNL1        0.1136
     15 N          61.9962   88.6205   12.7909 N.pl3   1  UNL1       -0.2897
     16 C          63.4643   88.5598   12.8645 C.3     1  UNL1        0.1136
     17 C          63.9216   88.1606   14.2776 C.3     1  UNL1        0.1123
     18 C          61.3399   88.2727   11.5589 C.ar    1  UNL1        0.1318
     19 C          61.6670   88.9198   10.3577 C.ar    1  UNL1        0.0343
     20 C          60.9771   88.5926    9.1902 C.ar    1  UNL1        0.0083
     21 C          59.9506   87.6380    9.2201 C.ar    1  UNL1        0.0906
     22 C          59.6659   87.0022   10.4392 C.ar    1  UNL1        0.1041
     23 N          60.3467   87.3420   11.5659 N.ar    1  UNL1       -0.2292
     24 C          59.2296   87.2452    7.9562 C.3     1  UNL1        0.4200
     25 F          60.1190   86.7367    7.0253 F       1  UNL1       -0.1658
     26 F          58.5936   88.3392    7.3957 F       1  UNL1       -0.1658
     27 F          58.2866   86.2790    8.2523 F       1  UNL1       -0.1658
     28 C          61.0990   82.1737   13.0617 C.3     1  UNL1        0.1535
     29 C          61.7405   82.5811   11.7618 C.2     1  UNL1        0.2443
     30 O          62.5157   81.7798   11.1718 O.2     1  UNL1       -0.2730
     31 N          61.4658   83.8762   11.2035 N.am    1  UNL1       -0.2825
     32 H          61.0087   84.5927   11.8116 H       1  UNL1        0.1549
     33 C          61.9056   84.2871    9.9014 C.ar    1  UNL1        0.0535
     34 C          61.3187   83.7683    8.7371 C.ar    1  UNL1        0.0353
     35 C          61.7612   84.2126    7.4886 C.ar    1  UNL1        0.1002
     36 N          62.7449   85.1472    7.4061 N.ar    1  UNL1       -0.2422
     37 C          63.3188   85.6769    8.5186 C.ar    1  UNL1        0.1002
     38 C          62.9019   85.2638    9.7857 C.ar    1  UNL1        0.0353
     39 C          59.6893   81.6066   12.8311 C.3     1  UNL1        0.0569
     40 C          58.9230   82.4591   11.8563 C.ar    1  UNL1       -0.0017
     41 C          58.1252   83.5561   12.1691 C.ar    1  UNL1        0.0681
     42 N          57.4591   83.9845   11.0727 N.ar    1  UNL1       -0.3523
     43 C          57.8153   83.1579   10.0741 C.ar    1  UNL1        0.0563
     44 C          57.3428   83.1664    8.7623 C.ar    1  UNL1        0.0170
     45 C          57.8031   82.1628    7.8906 C.ar    1  UNL1        0.0015
     46 C          58.7147   81.1841    8.3441 C.ar    1  UNL1        0.0001
     47 C          59.1763   81.2015    9.6726 C.ar    1  UNL1        0.0012
     48 C          58.7041   82.2107   10.5135 C.ar    1  UNL1        0.0131
     49 H          56.7765   84.7733   11.0252 H       1  UNL1        0.1660
@<TRIPOS>BOND
     1     1     2    2
     2     2     3   am
     3     3    28    1
     4    28    39    1
     5    39    40    1
     6    40    41   ar
     7    41    42   ar
     8    42    43   ar
     9    43    44   ar
    10    44    45   ar
    11    45    46   ar
    12    46    47   ar
    13    47    48   ar
    14    28    29    1
    15    29    30    2
    16    29    31   am
    17    31    33    1
    18    33    34   ar
    19    34    35   ar
    20    35    36   ar
    21    36    37   ar
    22    37    38   ar
    23     2     5    1
    24     5     6   ar
    25     6     7   ar
    26     7     8   ar
    27     8    12    1
    28    12    13    1
    29    13    14    1
    30    14    15    1
    31    15    18    1
    32    18    19   ar
    33    19    20   ar
    34    20    21   ar
    35    21    24    1
    36    24    25    1
    37    24    26    1
    38    24    27    1
    39    21    22   ar
    40    22    23   ar
    41    15    16    1
    42    16    17    1
    43     8     9   ar
    44     9    10   ar
    45    10    11    1
    46    48    40   ar
    47    38    33   ar
    48    10     5   ar
    49    48    43   ar
    50    17    12    1
    51    23    18   ar
    52     3     4    1
    53    42    49    1
    54    31    32    1
@<TRIPOS>MOLECULE
*****
 49 54 0 0 0
SMALL
GASTEIGER

@<TRIPOS>ATOM
      1 O          65.7186   85.4112   14.7896 O.2     1  UNL1       -0.2701
      2 C          64.6675   84.8650   14.3625 C.2     1  UNL1        0.2483
      3 N          64.7348   83.5747   13.7299 N.am    1  UNL1       -0.2945
      4 H          65.6733   83.1265   13.6224 H       1  UNL1        0.1501
      5 C          63.3788   85.5540   14.5141 C.ar    1  UNL1        0.0808
      6 C          62.2337   84.8041   14.8086 C.ar    1  UNL1        0.0080
      7 C          60.9664   85.3554   14.6145 C.ar    1  UNL1        0.0148
      8 C          60.8256   86.6621   14.1160 C.ar    1  UNL1        0.0502
      9 C          61.9806   87.4420   13.9175 C.ar    1  UNL1        0.0443
     10 C          63.2497   86.8913   14.1148 C.ar    1  UNL1        0.1457
     11 F          64.3490   87.6248   13.8048 F       1  UNL1       -0.2040
     12 N          59.5338   87.1220   13.6638 N.pl3   1  UNL1       -0.3040
     13 C          58.3331   86.3727   14.0810 C.3     1  UNL1        0.1123
     14 C          57.3164   86.2783   12.9360 C.3     1  UNL1        0.1136
     15 N          58.0312   86.2180   11.6540 N.pl3   1  UNL1       -0.2897
     16 C          58.9241   87.3298   11.2922 C.3     1  UNL1        0.1136
     17 C          59.4026   88.0741   12.5502 C.3     1  UNL1        0.1123
     18 C          58.0299   85.0272   10.8468 C.ar    1  UNL1        0.1318
     19 C          58.2426   83.7646   11.4206 C.ar    1  UNL1        0.0343
     20 C          58.2837   82.6354   10.6025 C.ar    1  UNL1        0.0083
     21 C          58.1332   82.7629    9.2143 C.ar    1  UNL1        0.0906
     22 C          57.9059   84.0423    8.6824 C.ar    1  UNL1        0.1041
     23 N          57.8766   85.1295    9.4982 N.ar    1  UNL1       -0.2292
     24 C          58.1314   81.5449    8.3267 C.3     1  UNL1        0.4200
     25 F          59.4260   81.1641    8.0184 F       1  UNL1       -0.1658
     26 F          57.4620   81.8032    7.1431 F       1  UNL1       -0.1658
     27 F          57.5005   80.5049    8.9831 F       1  UNL1       -0.1658
     28 C          63.5779   82.9704   13.0554 C.3     1  UNL1        0.1535
     29 C          63.3954   83.5881   11.6944 C.2     1  UNL1        0.2443
     30 O          64.3519   83.5775   10.8722 O.2     1  UNL1       -0.2730
     31 N          62.1361   84.1836   11.3421 N.am    1  UNL1       -0.2825
     32 H          61.4473   84.3769   12.1039 H       1  UNL1        0.1549
     33 C          61.8232   84.6534   10.0233 C.ar    1  UNL1        0.0535
     34 C          61.7921   86.0247    9.7269 C.ar    1  UNL1        0.0353
     35 C          61.5054   86.4392    8.4239 C.ar    1  UNL1        0.1002
     36 N          61.2695   85.5190    7.4514 N.ar    1  UNL1       -0.2422
     37 C          61.3091   84.1849    7.7088 C.ar    1  UNL1        0.1002
     38 C          61.5970   83.7287    8.9968 C.ar    1  UNL1        0.0353
     39 C          63.7333   81.4447   12.9560 C.3     1  UNL1        0.0569
     40 C          62.6235   80.8466   12.1343 C.ar    1  UNL1       -0.0017
     41 C          62.6048   80.7077   10.7495 C.ar    1  UNL1        0.0681
     42 N          61.3906   80.2815   10.3331 N.ar    1  UNL1       -0.3523
     43 C          60.6369   80.1662   11.4403 C.ar    1  UNL1        0.0563
     44 C          59.2902   79.8116   11.5115 C.ar    1  UNL1        0.0170
     45 C          58.6744   79.8163   12.7762 C.ar    1  UNL1        0.0015
     46 C          59.4096   80.1714   13.9286 C.ar    1  UNL1        0.0001
     47 C          60.7678   80.5226   13.8272 C.ar    1  UNL1        0.0012
     48 C          61.3523   80.5065   12.5596 C.ar    1  UNL1        0.0131
     49 H          61.0916   80.1154    9.3466 H       1  UNL1        0.1660
@<TRIPOS>BOND
     1     1     2    2
     2     2     3   am
     3     3    28    1
     4    28    39    1
     5    39    40    1
     6    40    41   ar
     7    41    42   ar
     8    42    43   ar
     9    43    44   ar
    10    44    45   ar
    11    45    46   ar
    12    46    47   ar
    13    47    48   ar
    14    28    29    1
    15    29    30    2
    16    29    31   am
    17    31    33    1
    18    33    34   ar
    19    34    35   ar
    20    35    36   ar
    21    36    37   ar
    22    37    38   ar
    23     2     5    1
    24     5     6   ar
    25     6     7   ar
    26     7     8   ar
    27     8    12    1
    28    12    13    1
    29    13    14    1
    30    14    15    1
    31    15    18    1
    32    18    19   ar
    33    19    20   ar
    34    20    21   ar
    35    21    24    1
    36    24    25    1
    37    24    26    1
    38    24    27    1
    39    21    22   ar
    40    22    23   ar
    41    15    16    1
    42    16    17    1
    43     8     9   ar
    44     9    10   ar
    45    10    11    1
    46    48    40   ar
    47    38    33   ar
    48    10     5   ar
    49    48    43   ar
    50    17    12    1
    51    23    18   ar
    52     3     4    1
    53    42    49    1
    54    31    32    1
@<TRIPOS>MOLECULE
*****
 49 54 0 0 0
SMALL
GASTEIGER

@<TRIPOS>ATOM
      1 O          63.0037   87.0590   18.1564 O.2     1  UNL1       -0.2701
      2 C          62.8456   86.6511   16.9756 C.2     1  UNL1        0.2483
      3 N          63.9302   86.0016   16.2890 N.am    1  UNL1       -0.2945
      4 H          64.8421   85.9016   16.7907 H       1  UNL1        0.1501
      5 C          61.5509   86.8445   16.3085 C.ar    1  UNL1        0.0808
      6 C          60.8008   85.7230   15.9347 C.ar    1  UNL1        0.0080
      7 C          59.7652   85.8502   15.0079 C.ar    1  UNL1        0.0148
      8 C          59.4695   87.0996   14.4357 C.ar    1  UNL1        0.0502
      9 C          60.1625   88.2370   14.8913 C.ar    1  UNL1        0.0443
     10 C          61.1974   88.1104   15.8218 C.ar    1  UNL1        0.1457
     11 F          61.9280   89.2041   16.1576 F       1  UNL1       -0.2040
     12 N          58.5930   87.1748   13.2908 N.pl3   1  UNL1       -0.3040
     13 C          57.2298   86.6226   13.4092 C.3     1  UNL1        0.1123
     14 C          56.8124   85.9031   12.1201 C.3     1  UNL1        0.1136
     15 N          57.9949   85.2917   11.4989 N.pl3   1  UNL1       -0.2897
     16 C          59.1177   86.1611   11.1145 C.3     1  UNL1        0.1136
     17 C          59.1103   87.4569   11.9429 C.3     1  UNL1        0.1123
     18 C          58.1593   83.8639   11.4374 C.ar    1  UNL1        0.1318
     19 C          58.1234   83.1841   10.2106 C.ar    1  UNL1        0.0343
     20 C          58.2373   81.7939   10.1909 C.ar    1  UNL1        0.0083
     21 C          58.3672   81.0786   11.3899 C.ar    1  UNL1        0.0906
     22 C          58.4153   81.7985   12.5944 C.ar    1  UNL1        0.1041
     23 N          58.2955   83.1528   12.5900 N.ar    1  UNL1       -0.2292
     24 C          58.5358   79.5810   11.3767 C.3     1  UNL1        0.4200
     25 F          58.5512   79.0805   12.6672 F       1  UNL1       -0.1658
     26 F          59.7238   79.2280   10.7606 F       1  UNL1       -0.1658
     27 F          57.4833   79.0111   10.6853 F       1  UNL1       -0.1658
     28 C          63.8655   85.6670   14.8599 C.3     1  UNL1        0.1535
     29 C          63.8419   86.9276   14.0368 C.2     1  UNL1        0.2443
     30 O          64.7088   87.8209   14.2407 O.2     1  UNL1       -0.2730
     31 N          62.8349   87.1040   13.0272 N.am    1  UNL1       -0.2825
     32 H          62.0094   86.4631   13.0313 H       1  UNL1        0.1549
     33 C          62.8291   88.1953   12.0962 C.ar    1  UNL1        0.0535
     34 C          62.4663   88.0055   10.7539 C.ar    1  UNL1        0.0353
     35 C          62.4517   89.0998    9.8853 C.ar    1  UNL1        0.1002
     36 N          62.7765   90.3382   10.3423 N.ar    1  UNL1       -0.2422
     37 C          63.1162   90.5514   11.6411 C.ar    1  UNL1        0.1002
     38 C          63.1382   89.4855   12.5430 C.ar    1  UNL1        0.0353
     39 C          65.0379   84.7605   14.4529 C.3     1  UNL1        0.0569
     40 C          64.5993   83.7446   13.4331 C.ar    1  UNL1       -0.0017
     41 C          64.9336   83.7344   12.0819 C.ar    1  UNL1        0.0681
     42 N          64.2373   82.7759   11.4295 N.ar    1  UNL1       -0.3523
     43 C          63.4537   82.1917   12.3526 C.ar    1  UNL1        0.0563
     44 C          62.5129   81.1837   12.1453 C.ar    1  UNL1        0.0170
     45 C          61.7487   80.7599   13.2478 C.ar    1  UNL1        0.0015
     46 C          61.9395   81.3463   14.5183 C.ar    1  UNL1        0.0001
     47 C          62.8976   82.3600   14.6986 C.ar    1  UNL1        0.0012
     48 C          63.6425   82.7580   13.5871 C.ar    1  UNL1        0.0131
     49 H          64.2745   82.5629   10.4080 H       1  UNL1        0.1660
@<TRIPOS>BOND
     1     1     2    2
     2     2     3   am
     3     3    28    1
     4    28    39    1
     5    39    40    1
     6    40    41   ar
     7    41    42   ar
     8    42    43   ar
     9    43    44   ar
    10    44    45   ar
    11    45    46   ar
    12    46    47   ar
    13    47    48   ar
    14    28    29    1
    15    29    30    2
    16    29    31   am
    17    31    33    1
    18    33    34   ar
    19    34    35   ar
    20    35    36   ar
    21    36    37   ar
    22    37    38   ar
    23     2     5    1
    24     5     6   ar
    25     6     7   ar
    26     7     8   ar
    27     8    12    1
    28    12    13    1
    29    13    14    1
    30    14    15    1
    31    15    18    1
    32    18    19   ar
    33    19    20   ar
    34    20    21   ar
    35    21    24    1
    36    24    25    1
    37    24    26    1
    38    24    27    1
    39    21    22   ar
    40    22    23   ar
    41    15    16    1
    42    16    17    1
    43     8     9   ar
    44     9    10   ar
    45    10    11    1
    46    48    40   ar
    47    38    33   ar
    48    10     5   ar
    49    48    43   ar
    50    17    12    1
    51    23    18   ar
    52     3     4    1
    53    42    49    1
    54    31    32    1
@<TRIPOS>MOLECULE
*****
 49 54 0 0 0
SMALL
GASTEIGER

@<TRIPOS>ATOM
      1 O          59.2669   90.9611   11.4101 O.2     1  UNL1       -0.2701
      2 C          60.3539   90.3263   11.3765 C.2     1  UNL1        0.2483
      3 N          61.5484   90.9188   11.9165 N.am    1  UNL1       -0.2945
      4 H          61.4847   91.8850   12.3112 H       1  UNL1        0.1501
      5 C          60.3914   88.9828   10.7831 C.ar    1  UNL1        0.0808
      6 C          60.8607   88.8273    9.4733 C.ar    1  UNL1        0.0080
      7 C          60.5876   87.6556    8.7659 C.ar    1  UNL1        0.0148
      8 C          59.8349   86.6254    9.3555 C.ar    1  UNL1        0.0502
      9 C          59.4532   86.7492   10.7048 C.ar    1  UNL1        0.0443
     10 C          59.7292   87.9210   11.4144 C.ar    1  UNL1        0.1457
     11 F          59.2491   88.0637   12.6761 F       1  UNL1       -0.2040
     12 N          59.3287   85.5486    8.5377 N.pl3   1  UNL1       -0.3040
     13 C          57.9275   85.1235    8.7201 C.3     1  UNL1        0.1123
     14 C          57.7970   83.5980    8.6237 C.3     1  UNL1        0.1136
     15 N          59.0175   82.9707    9.1481 N.pl3   1  UNL1       -0.2897
     16 C          60.3043   83.2932    8.5122 C.3     1  UNL1        0.1136
     17 C          60.2322   84.6536    7.7984 C.3     1  UNL1        0.1123
     18 C          59.0088   82.2138   10.3714 C.ar    1  UNL1        0.1318
     19 C          59.6519   82.6929   11.5227 C.ar    1  UNL1        0.0343
     20 C          59.6661   81.9116   12.6782 C.ar    1  UNL1        0.0083
     21 C          59.0589   80.6477   12.6839 C.ar    1  UNL1        0.0906
     22 C          58.4121   80.2128   11.5160 C.ar    1  UNL1        0.1041
     23 N          58.4169   80.9884   10.3994 N.ar    1  UNL1       -0.2292
     24 C          59.0299   79.8150   13.9398 C.3     1  UNL1        0.4200
     25 F          58.7039   78.5020   13.6470 F       1  UNL1       -0.1658
     26 F          58.0916   80.3063   14.8308 F       1  UNL1       -0.1658
     27 F          60.2767   79.8472   14.5356 F       1  UNL1       -0.1658
     28 C          62.8734   90.3071   11.7466 C.3     1  UNL1        0.1535
     29 C          63.7842   91.2501   11.0060 C.2     1  UNL1        0.2443
     30 O          63.3999   91.7624    9.9193 O.2     1  UNL1       -0.2730
     31 N          65.0815   91.5594   11.5408 N.am    1  UNL1       -0.2825
     32 H          65.4579   90.9599   12.3096 H       1  UNL1        0.1549
     33 C          65.9481   92.5601   10.9883 C.ar    1  UNL1        0.0535
     34 C          67.1763   92.2170   10.4025 C.ar    1  UNL1        0.0353
     35 C          67.9801   93.2203    9.8554 C.ar    1  UNL1        0.1002
     36 N          67.5681   94.5155    9.8824 N.ar    1  UNL1       -0.2422
     37 C          66.3761   94.8722   10.4297 C.ar    1  UNL1        0.1002
     38 C          65.5406   93.8995   10.9827 C.ar    1  UNL1        0.0353
     39 C          63.4736   89.9072   13.1037 C.3     1  UNL1        0.0569
     40 C          62.6226   88.8656   13.7786 C.ar    1  UNL1       -0.0017
     41 C          61.9682   88.9994   14.9998 C.ar    1  UNL1        0.0681
     42 N          61.4316   87.8179   15.3809 N.ar    1  UNL1       -0.3523
     43 C          61.7555   86.9349   14.4202 C.ar    1  UNL1        0.0563
     44 C          61.4721   85.5698   14.3982 C.ar    1  UNL1        0.0170
     45 C          61.9651   84.8127   13.3199 C.ar    1  UNL1        0.0015
     46 C          62.7218   85.4295   12.2995 C.ar    1  UNL1        0.0001
     47 C          62.9905   86.8093   12.3465 C.ar    1  UNL1        0.0012
     48 C          62.4862   87.5350   13.4271 C.ar    1  UNL1        0.0131
     49 H          60.9070   87.6258   16.2630 H       1  UNL1        0.1660
@<TRIPOS>BOND
     1     1     2    2
     2     2     3   am
     3     3    28    1
     4    28    39    1
     5    39    40    1
     6    40    41   ar
     7    41    42   ar
     8    42    43   ar
     9    43    44   ar
    10    44    45   ar
    11    45    46   ar
    12    46    47   ar
    13    47    48   ar
    14    28    29    1
    15    29    30    2
    16    29    31   am
    17    31    33    1
    18    33    34   ar
    19    34    35   ar
    20    35    36   ar
    21    36    37   ar
    22    37    38   ar
    23     2     5    1
    24     5     6   ar
    25     6     7   ar
    26     7     8   ar
    27     8    12    1
    28    12    13    1
    29    13    14    1
    30    14    15    1
    31    15    18    1
    32    18    19   ar
    33    19    20   ar
    34    20    21   ar
    35    21    24    1
    36    24    25    1
    37    24    26    1
    38    24    27    1
    39    21    22   ar
    40    22    23   ar
    41    15    16    1
    42    16    17    1
    43     8     9   ar
    44     9    10   ar
    45    10    11    1
    46    48    40   ar
    47    38    33   ar
    48    10     5   ar
    49    48    43   ar
    50    17    12    1
    51    23    18   ar
    52     3     4    1
    53    42    49    1
    54    31    32    1
