@<TRIPOS>MOLECULE
*****
 38 42 0 0 0
SMALL
GASTEIGER

@<TRIPOS>ATOM
      1 C         -21.3475   -8.9265  -12.3635 C.2     1  UNL1        0.2511
      2 O         -20.8924   -8.2336  -13.3142 O.2     1  UNL1       -0.2698
      3 N         -22.7702   -8.9518  -12.1059 N.am    1  UNL1       -0.2612
      4 C         -23.2730   -9.0982  -10.7346 C.3     1  UNL1        0.1419
      5 C         -23.0712   -7.7911   -9.9763 C.3     1  UNL1        0.2268
      6 O         -23.0682   -6.6703  -10.8597 O.3     1  UNL1       -0.4739
      7 C         -24.1021   -6.3850  -11.7596 C.ar    1  UNL1        0.1369
      8 C         -24.7686   -5.1659  -11.6027 C.ar    1  UNL1        0.0367
      9 C         -25.7831   -4.7872  -12.4792 C.ar    1  UNL1        0.0031
     10 C         -26.1369   -5.6139  -13.5540 C.ar    1  UNL1        0.0000
     11 C         -25.4567   -6.8304  -13.7297 C.ar    1  UNL1        0.0011
     12 C         -24.4545   -7.2510  -12.8331 C.ar    1  UNL1        0.0396
     13 C         -23.7226   -8.5525  -13.1534 C.3     1  UNL1        0.1539
     14 I         -25.0927  -10.1806  -13.5072 I       1  UNL1       -0.0478
     15 C         -27.2065   -5.2059  -14.4998 C.ar    1  UNL1        0.0015
     16 C         -28.5222   -5.7336  -14.3725 C.ar    1  UNL1        0.0016
     17 C         -29.5420   -5.3523  -15.2647 C.ar    1  UNL1        0.0206
     18 C         -29.2189   -4.4465  -16.2692 C.ar    1  UNL1        0.0985
     19 N         -30.0278   -3.9508  -17.2228 N.ar    1  UNL1       -0.2241
     20 C         -29.2016   -3.1279  -17.9215 C.ar    1  UNL1        0.1750
     21 N         -27.9350   -3.0990  -17.4417 N.ar    1  UNL1       -0.3349
     22 C         -27.9646   -3.9364  -16.3985 C.ar    1  UNL1        0.0757
     23 C         -26.9264   -4.2853  -15.5393 C.ar    1  UNL1        0.0185
     24 H         -27.1251   -2.5489  -17.8046 H       1  UNL1        0.1675
     25 C         -20.4332  -11.0669  -11.3601 C.ar    1  UNL1        0.0503
     26 C         -19.5208  -11.6884  -10.4835 C.ar    1  UNL1        0.0328
     27 C         -18.5777  -10.9344   -9.7754 C.ar    1  UNL1        0.1069
     28 C         -18.5236   -9.5496   -9.9526 C.ar    1  UNL1        0.0186
     29 C         -19.4222   -8.9167  -10.8104 C.ar    1  UNL1        0.0071
     30 C         -20.3917   -9.6573  -11.5038 C.ar    1  UNL1        0.0668
     31 S         -17.4345  -11.7356   -8.7025 S.O2    1  UNL1        0.0105
     32 C         -17.5947  -11.0653   -7.0635 C.3     1  UNL1        0.1816
     33 O         -17.7113  -13.2126   -8.6696 O.2     1  UNL1       -0.1686
     34 O         -16.0331  -11.5188   -9.2013 O.2     1  UNL1       -0.1686
     35 N         -21.3684  -11.8572  -12.1252 N.pl3   1  UNL1       -0.3325
     36 H         -22.3836  -11.8135  -11.8830 H       1  UNL1        0.1468
     37 C         -21.5508  -12.3160  -14.5411 C.3     1  UNL1        0.0229
     38 C         -20.9539  -12.7531  -13.2073 C.3     1  UNL1        0.0871
@<TRIPOS>BOND
     1    37    38    1
     2    38    35    1
     3    35    25    1
     4    25    26   ar
     5    26    27   ar
     6    27    31    1
     7    31    32    1
     8    31    33    2
     9    31    34    2
    10    27    28   ar
    11    28    29   ar
    12    29    30   ar
    13    30     1    1
    14     1     2    2
    15     1     3   am
    16     3     4    1
    17     4     5    1
    18     5     6    1
    19     6     7    1
    20     7     8   ar
    21     8     9   ar
    22     9    10   ar
    23    10    15    1
    24    15    16   ar
    25    16    17   ar
    26    17    18   ar
    27    18    19   ar
    28    19    20   ar
    29    20    21   ar
    30    21    22   ar
    31    22    23   ar
    32    10    11   ar
    33    11    12   ar
    34    12    13    1
    35    13    14    1
    36    30    25   ar
    37    13     3    1
    38    12     7   ar
    39    23    15   ar
    40    22    18   ar
    41    35    36    1
    42    21    24    1
@<TRIPOS>MOLECULE
*****
 38 42 0 0 0
SMALL
GASTEIGER

@<TRIPOS>ATOM
      1 C         -22.3318   -9.0891  -11.0515 C.2     1  UNL1        0.2511
      2 O         -22.5837  -10.2312  -11.5242 O.2     1  UNL1       -0.2698
      3 N         -22.5459   -7.9102  -11.8611 N.am    1  UNL1       -0.2612
      4 C         -21.6798   -6.7355  -11.7039 C.3     1  UNL1        0.1419
      5 C         -20.3173   -7.0208  -12.3256 C.3     1  UNL1        0.2268
      6 O         -20.4141   -7.9810  -13.3769 O.3     1  UNL1       -0.4739
      7 C         -21.2686   -7.8473  -14.4778 C.ar    1  UNL1        0.1369
      8 C         -20.6777   -7.7970  -15.7441 C.ar    1  UNL1        0.0367
      9 C         -21.4580   -7.7040  -16.8944 C.ar    1  UNL1        0.0031
     10 C         -22.8563   -7.6855  -16.8034 C.ar    1  UNL1        0.0000
     11 C         -23.4567   -7.7570  -15.5355 C.ar    1  UNL1        0.0011
     12 C         -22.6866   -7.8124  -14.3568 C.ar    1  UNL1        0.0396
     13 C         -23.4329   -7.9642  -13.0332 C.3     1  UNL1        0.1539
     14 I         -24.9797   -6.4779  -12.8059 I       1  UNL1       -0.0478
     15 C         -23.6913   -7.6031  -18.0285 C.ar    1  UNL1        0.0015
     16 C         -24.4495   -6.4313  -18.3075 C.ar    1  UNL1        0.0016
     17 C         -25.2438   -6.3447  -19.4663 C.ar    1  UNL1        0.0206
     18 C         -25.2606   -7.4395  -20.3236 C.ar    1  UNL1        0.0985
     19 N         -25.9437   -7.5740  -21.4746 N.ar    1  UNL1       -0.2241
     20 C         -25.5978   -8.8225  -21.8865 C.ar    1  UNL1        0.1750
     21 N         -24.7416   -9.4514  -21.0459 N.ar    1  UNL1       -0.3349
     22 C         -24.5391   -8.5634  -20.0657 C.ar    1  UNL1        0.0757
     23 C         -23.7406   -8.6922  -18.9328 C.ar    1  UNL1        0.0185
     24 H         -24.3353  -10.4083  -21.1435 H       1  UNL1        0.1675
     25 C         -22.5850   -8.7516   -8.5523 C.ar    1  UNL1        0.0503
     26 C         -21.9721   -8.6298   -7.2887 C.ar    1  UNL1        0.0328
     27 C         -20.5861   -8.7652   -7.1465 C.ar    1  UNL1        0.1069
     28 C         -19.7988   -9.0446   -8.2664 C.ar    1  UNL1        0.0186
     29 C         -20.3866   -9.1621   -9.5252 C.ar    1  UNL1        0.0071
     30 C         -21.7712   -8.9996   -9.6861 C.ar    1  UNL1        0.0668
     31 S         -19.8460   -8.6301   -5.5546 S.O2    1  UNL1        0.0105
     32 C         -18.3592   -9.6041   -5.5110 C.3     1  UNL1        0.1816
     33 O         -19.5132   -7.1934   -5.2644 O.2     1  UNL1       -0.1686
     34 O         -20.8035   -9.1243   -4.5065 O.2     1  UNL1       -0.1686
     35 N         -24.0200   -8.6617   -8.6823 N.pl3   1  UNL1       -0.3325
     36 H         -24.4811   -7.7321   -8.5619 H       1  UNL1        0.1468
     37 C         -26.2417   -9.4031   -9.4536 C.3     1  UNL1        0.0229
     38 C         -24.8700   -9.8268   -8.9384 C.3     1  UNL1        0.0871
@<TRIPOS>BOND
     1    37    38    1
     2    38    35    1
     3    35    25    1
     4    25    26   ar
     5    26    27   ar
     6    27    31    1
     7    31    32    1
     8    31    33    2
     9    31    34    2
    10    27    28   ar
    11    28    29   ar
    12    29    30   ar
    13    30     1    1
    14     1     2    2
    15     1     3   am
    16     3     4    1
    17     4     5    1
    18     5     6    1
    19     6     7    1
    20     7     8   ar
    21     8     9   ar
    22     9    10   ar
    23    10    15    1
    24    15    16   ar
    25    16    17   ar
    26    17    18   ar
    27    18    19   ar
    28    19    20   ar
    29    20    21   ar
    30    21    22   ar
    31    22    23   ar
    32    10    11   ar
    33    11    12   ar
    34    12    13    1
    35    13    14    1
    36    30    25   ar
    37    13     3    1
    38    12     7   ar
    39    23    15   ar
    40    22    18   ar
    41    35    36    1
    42    21    24    1
@<TRIPOS>MOLECULE
*****
 38 42 0 0 0
SMALL
GASTEIGER

@<TRIPOS>ATOM
      1 C         -21.3244   -8.6696  -11.4862 C.2     1  UNL1        0.2511
      2 O         -21.3471   -7.5254  -10.9558 O.2     1  UNL1       -0.2698
      3 N         -22.2294   -8.9802  -12.5704 N.am    1  UNL1       -0.2612
      4 C         -22.7506  -10.3427  -12.7341 C.3     1  UNL1        0.1419
      5 C         -23.8008  -10.6179  -11.6636 C.3     1  UNL1        0.2268
      6 O         -24.4381   -9.4147  -11.2363 O.3     1  UNL1       -0.4739
      7 C         -25.0666   -8.5149  -12.1055 C.ar    1  UNL1        0.1369
      8 C         -26.4330   -8.2882  -11.9135 C.ar    1  UNL1        0.0367
      9 C         -27.1260   -7.3789  -12.7094 C.ar    1  UNL1        0.0031
     10 C         -26.4570   -6.6530  -13.7040 C.ar    1  UNL1        0.0000
     11 C         -25.0799   -6.8606  -13.8881 C.ar    1  UNL1        0.0011
     12 C         -24.3671   -7.8032  -13.1208 C.ar    1  UNL1        0.0396
     13 C         -22.8597   -7.9003  -13.3451 C.3     1  UNL1        0.1539
     14 I         -22.3711   -8.1612  -15.4299 I       1  UNL1       -0.0478
     15 C         -27.1892   -5.6710  -14.5433 C.ar    1  UNL1        0.0015
     16 C         -26.4808   -4.7949  -15.4129 C.ar    1  UNL1        0.0016
     17 C         -27.1669   -3.8609  -16.2119 C.ar    1  UNL1        0.0206
     18 C         -28.5541   -3.8257  -16.1210 C.ar    1  UNL1        0.0985
     19 N         -29.4030   -3.0201  -16.7843 N.ar    1  UNL1       -0.2241
     20 C         -30.6178   -3.4101  -16.3153 C.ar    1  UNL1        0.1750
     21 N         -30.5498   -4.4091  -15.4028 N.ar    1  UNL1       -0.3349
     22 C         -29.2399   -4.6592  -15.2932 C.ar    1  UNL1        0.0757
     23 C         -28.6027   -5.5975  -14.4862 C.ar    1  UNL1        0.0185
     24 H         -31.3394   -4.8744  -14.9025 H       1  UNL1        0.1675
     25 C         -19.4655   -9.3746   -9.9141 C.ar    1  UNL1        0.0503
     26 C         -18.5779  -10.3792   -9.4778 C.ar    1  UNL1        0.0328
     27 C         -18.6190  -11.6641  -10.0316 C.ar    1  UNL1        0.1069
     28 C         -19.5641  -11.9644  -11.0158 C.ar    1  UNL1        0.0186
     29 C         -20.4457  -10.9819  -11.4644 C.ar    1  UNL1        0.0071
     30 C         -20.3957   -9.6818  -10.9386 C.ar    1  UNL1        0.0668
     31 S         -17.5143  -12.9081   -9.4550 S.O2    1  UNL1        0.0105
     32 C         -16.0662  -12.1384   -8.7682 C.3     1  UNL1        0.1816
     33 O         -18.1869  -13.7421   -8.4009 O.2     1  UNL1       -0.1686
     34 O         -17.1171  -13.8022  -10.5962 O.2     1  UNL1       -0.1686
     35 N         -19.4506   -8.0673   -9.3017 N.pl3   1  UNL1       -0.3325
     36 H         -18.9446   -7.2899   -9.7822 H       1  UNL1        0.1468
     37 C         -19.1541   -8.1448   -6.8550 C.3     1  UNL1        0.0229
     38 C         -20.0829   -7.7866   -8.0106 C.3     1  UNL1        0.0871
@<TRIPOS>BOND
     1    37    38    1
     2    38    35    1
     3    35    25    1
     4    25    26   ar
     5    26    27   ar
     6    27    31    1
     7    31    32    1
     8    31    33    2
     9    31    34    2
    10    27    28   ar
    11    28    29   ar
    12    29    30   ar
    13    30     1    1
    14     1     2    2
    15     1     3   am
    16     3     4    1
    17     4     5    1
    18     5     6    1
    19     6     7    1
    20     7     8   ar
    21     8     9   ar
    22     9    10   ar
    23    10    15    1
    24    15    16   ar
    25    16    17   ar
    26    17    18   ar
    27    18    19   ar
    28    19    20   ar
    29    20    21   ar
    30    21    22   ar
    31    22    23   ar
    32    10    11   ar
    33    11    12   ar
    34    12    13    1
    35    13    14    1
    36    30    25   ar
    37    13     3    1
    38    12     7   ar
    39    23    15   ar
    40    22    18   ar
    41    35    36    1
    42    21    24    1
@<TRIPOS>MOLECULE
*****
 38 42 0 0 0
SMALL
GASTEIGER

@<TRIPOS>ATOM
      1 C         -21.7328   -7.7947  -12.2185 C.2     1  UNL1        0.2511
      2 O         -20.7071   -7.6133  -12.9298 O.2     1  UNL1       -0.2698
      3 N         -21.6225   -8.4977  -10.9596 N.am    1  UNL1       -0.2612
      4 C         -22.7320   -9.3271  -10.4738 C.3     1  UNL1        0.1419
      5 C         -22.7981  -10.6153  -11.2865 C.3     1  UNL1        0.2268
      6 O         -21.5171  -10.9719  -11.8045 O.3     1  UNL1       -0.4739
      7 C         -20.3727  -11.1277  -11.0133 C.ar    1  UNL1        0.1369
      8 C         -19.7645  -12.3868  -11.0087 C.ar    1  UNL1        0.0367
      9 C         -18.6000  -12.6161  -10.2792 C.ar    1  UNL1        0.0031
     10 C         -18.0006  -11.5769   -9.5549 C.ar    1  UNL1        0.0000
     11 C         -18.5950  -10.3042   -9.5724 C.ar    1  UNL1        0.0011
     12 C         -19.7936  -10.0595  -10.2715 C.ar    1  UNL1        0.0396
     13 C         -20.3185   -8.6256  -10.2914 C.3     1  UNL1        0.1539
     14 I         -20.4682   -7.7955   -8.3060 I       1  UNL1       -0.0478
     15 C         -16.7503  -11.8136   -8.7896 C.ar    1  UNL1        0.0015
     16 C         -15.5985  -12.3446   -9.4355 C.ar    1  UNL1        0.0016
     17 C         -14.4093  -12.5722   -8.7177 C.ar    1  UNL1        0.0206
     18 C         -14.4009  -12.2611   -7.3624 C.ar    1  UNL1        0.0985
     19 N         -13.3845  -12.3984   -6.4919 N.ar    1  UNL1       -0.2241
     20 C         -13.9231  -11.9518   -5.3264 C.ar    1  UNL1        0.1750
     21 N         -15.2118  -11.5514   -5.4447 N.ar    1  UNL1       -0.3349
     22 C         -15.4964  -11.7529   -6.7365 C.ar    1  UNL1        0.0757
     23 C         -16.6924  -11.5119   -7.4069 C.ar    1  UNL1        0.0185
     24 H         -15.8361  -11.1732   -4.6980 H       1  UNL1        0.1675
     25 C         -23.5371   -7.7098  -13.9966 C.ar    1  UNL1        0.0503
     26 C         -24.7656   -7.1764  -14.4365 C.ar    1  UNL1        0.0328
     27 C         -25.4918   -6.2886  -13.6342 C.ar    1  UNL1        0.1069
     28 C         -25.0056   -5.9397  -12.3716 C.ar    1  UNL1        0.0186
     29 C         -23.7893   -6.4522  -11.9223 C.ar    1  UNL1        0.0071
     30 C         -23.0371   -7.3201  -12.7287 C.ar    1  UNL1        0.0668
     31 S         -27.0342   -5.6523  -14.1965 S.O2    1  UNL1        0.0105
     32 C         -26.7770   -4.7105  -15.6825 C.3     1  UNL1        0.1816
     33 O         -27.9833   -6.7834  -14.4775 O.2     1  UNL1       -0.1686
     34 O         -27.6353   -4.7703  -13.1381 O.2     1  UNL1       -0.1686
     35 N         -22.8200   -8.6643  -14.8084 N.pl3   1  UNL1       -0.3325
     36 H         -22.5209   -9.5687  -14.3796 H       1  UNL1        0.1468
     37 C         -20.9577   -8.1547  -16.3422 C.3     1  UNL1        0.0229
     38 C         -22.4556   -8.4069  -16.2036 C.3     1  UNL1        0.0871
@<TRIPOS>BOND
     1    37    38    1
     2    38    35    1
     3    35    25    1
     4    25    26   ar
     5    26    27   ar
     6    27    31    1
     7    31    32    1
     8    31    33    2
     9    31    34    2
    10    27    28   ar
    11    28    29   ar
    12    29    30   ar
    13    30     1    1
    14     1     2    2
    15     1     3   am
    16     3     4    1
    17     4     5    1
    18     5     6    1
    19     6     7    1
    20     7     8   ar
    21     8     9   ar
    22     9    10   ar
    23    10    15    1
    24    15    16   ar
    25    16    17   ar
    26    17    18   ar
    27    18    19   ar
    28    19    20   ar
    29    20    21   ar
    30    21    22   ar
    31    22    23   ar
    32    10    11   ar
    33    11    12   ar
    34    12    13    1
    35    13    14    1
    36    30    25   ar
    37    13     3    1
    38    12     7   ar
    39    23    15   ar
    40    22    18   ar
    41    35    36    1
    42    21    24    1
@<TRIPOS>MOLECULE
*****
 38 42 0 0 0
SMALL
GASTEIGER

@<TRIPOS>ATOM
      1 C         -21.0912   -8.6717  -11.3408 C.2     1  UNL1        0.2511
      2 O         -20.9645   -7.4401  -11.0994 O.2     1  UNL1       -0.2698
      3 N         -22.1723   -9.1343  -12.1823 N.am    1  UNL1       -0.2612
      4 C         -22.7897  -10.4444  -11.9431 C.3     1  UNL1        0.1419
      5 C         -23.6716  -10.3724  -10.7016 C.3     1  UNL1        0.2268
      6 O         -24.1637   -9.0502  -10.4870 O.3     1  UNL1       -0.4739
      7 C         -24.8693   -8.3161  -11.4480 C.ar    1  UNL1        0.1369
      8 C         -26.1729   -7.9266  -11.1256 C.ar    1  UNL1        0.0367
      9 C         -26.9300   -7.1608  -12.0093 C.ar    1  UNL1        0.0031
     10 C         -26.3861   -6.7434  -13.2315 C.ar    1  UNL1        0.0000
     11 C         -25.0695   -7.1135  -13.5523 C.ar    1  UNL1        0.0011
     12 C         -24.2994   -7.9200  -12.6909 C.ar    1  UNL1        0.0396
     13 C         -22.8544   -8.2040  -13.0949 C.3     1  UNL1        0.1539
     14 I         -22.7169   -8.9733  -15.1055 I       1  UNL1       -0.0478
     15 C         -27.1844   -5.9131  -14.1687 C.ar    1  UNL1        0.0015
     16 C         -28.6042   -6.0111  -14.1894 C.ar    1  UNL1        0.0016
     17 C         -29.3687   -5.2279  -15.0745 C.ar    1  UNL1        0.0206
     18 C         -28.6901   -4.3600  -15.9231 C.ar    1  UNL1        0.0985
     19 N         -29.2140   -3.5282  -16.8413 N.ar    1  UNL1       -0.2241
     20 C         -28.1132   -2.9321  -17.3713 C.ar    1  UNL1        0.1750
     21 N         -26.9503   -3.3588  -16.8229 N.ar    1  UNL1       -0.3349
     22 C         -27.3336   -4.2591  -15.9103 C.ar    1  UNL1        0.0757
     23 C         -26.5387   -5.0137  -15.0521 C.ar    1  UNL1        0.0185
     24 H         -25.9804   -3.0534  -17.0600 H       1  UNL1        0.1675
     25 C         -19.3344   -9.2411   -9.6048 C.ar    1  UNL1        0.0503
     26 C         -18.4218  -10.1802   -9.0829 C.ar    1  UNL1        0.0328
     27 C         -18.3249  -11.4665   -9.6265 C.ar    1  UNL1        0.1069
     28 C         -19.1563  -11.8347  -10.6873 C.ar    1  UNL1        0.0186
     29 C         -20.0605  -10.9172  -11.2207 C.ar    1  UNL1        0.0071
     30 C         -20.1470   -9.6152  -10.7044 C.ar    1  UNL1        0.0668
     31 S         -17.1924  -12.6290   -8.9437 S.O2    1  UNL1        0.0105
     32 C         -16.4405  -11.9354   -7.4894 C.3     1  UNL1        0.1816
     33 O         -17.9153  -13.8953   -8.5791 O.2     1  UNL1       -0.1686
     34 O         -16.1289  -12.9550   -9.9546 O.2     1  UNL1       -0.1686
     35 N         -19.4640   -7.9341   -9.0053 N.pl3   1  UNL1       -0.3325
     36 H         -19.0738   -7.1062   -9.5089 H       1  UNL1        0.1468
     37 C         -19.1072   -8.0153   -6.5668 C.3     1  UNL1        0.0229
     38 C         -20.0867   -7.7172   -7.6974 C.3     1  UNL1        0.0871
@<TRIPOS>BOND
     1    37    38    1
     2    38    35    1
     3    35    25    1
     4    25    26   ar
     5    26    27   ar
     6    27    31    1
     7    31    32    1
     8    31    33    2
     9    31    34    2
    10    27    28   ar
    11    28    29   ar
    12    29    30   ar
    13    30     1    1
    14     1     2    2
    15     1     3   am
    16     3     4    1
    17     4     5    1
    18     5     6    1
    19     6     7    1
    20     7     8   ar
    21     8     9   ar
    22     9    10   ar
    23    10    15    1
    24    15    16   ar
    25    16    17   ar
    26    17    18   ar
    27    18    19   ar
    28    19    20   ar
    29    20    21   ar
    30    21    22   ar
    31    22    23   ar
    32    10    11   ar
    33    11    12   ar
    34    12    13    1
    35    13    14    1
    36    30    25   ar
    37    13     3    1
    38    12     7   ar
    39    23    15   ar
    40    22    18   ar
    41    35    36    1
    42    21    24    1
@<TRIPOS>MOLECULE
*****
 38 42 0 0 0
SMALL
GASTEIGER

@<TRIPOS>ATOM
      1 C         -22.3894   -9.9583  -12.4135 C.2     1  UNL1        0.2511
      2 O         -23.4401  -10.5985  -12.6915 O.2     1  UNL1       -0.2698
      3 N         -22.2897   -8.5552  -12.7489 N.am    1  UNL1       -0.2612
      4 C         -20.9940   -7.9706  -13.1149 C.3     1  UNL1        0.1419
      5 C         -20.6103   -8.4225  -14.5196 C.3     1  UNL1        0.2268
      6 O         -21.7639   -8.7142  -15.3073 O.3     1  UNL1       -0.4739
      7 C         -22.8135   -7.8115  -15.5156 C.ar    1  UNL1        0.1369
      8 C         -23.0733   -7.4255  -16.8342 C.ar    1  UNL1        0.0367
      9 C         -24.1243   -6.5612  -17.1328 C.ar    1  UNL1        0.0031
     10 C         -24.9597   -6.0822  -16.1147 C.ar    1  UNL1        0.0000
     11 C         -24.7171   -6.4829  -14.7903 C.ar    1  UNL1        0.0011
     12 C         -23.6365   -7.3250  -14.4608 C.ar    1  UNL1        0.0396
     13 C         -23.5030   -7.7639  -13.0042 C.3     1  UNL1        0.1539
     14 I         -23.5374   -6.0843  -11.6510 I       1  UNL1       -0.0478
     15 C         -26.0910   -5.1740  -16.4314 C.ar    1  UNL1        0.0015
     16 C         -27.0630   -4.8595  -15.4404 C.ar    1  UNL1        0.0016
     17 C         -28.1386   -3.9996  -15.7320 C.ar    1  UNL1        0.0206
     18 C         -28.2164   -3.4717  -17.0162 C.ar    1  UNL1        0.0985
     19 N         -29.1507   -2.6390  -17.5094 N.ar    1  UNL1       -0.2241
     20 C         -28.7422   -2.4534  -18.7926 C.ar    1  UNL1        0.1750
     21 N         -27.6101   -3.1297  -19.1029 N.ar    1  UNL1       -0.3349
     22 C         -27.2920   -3.7660  -17.9697 C.ar    1  UNL1        0.0757
     23 C         -26.2129   -4.6107  -17.7253 C.ar    1  UNL1        0.0185
     24 H         -27.1050   -3.1477  -20.0166 H       1  UNL1        0.1675
     25 C         -20.9981  -12.0505  -12.0802 C.ar    1  UNL1        0.0503
     26 C         -19.9367  -12.6930  -11.4110 C.ar    1  UNL1        0.0328
     27 C         -19.1446  -11.9996  -10.4883 C.ar    1  UNL1        0.1069
     28 C         -19.3937  -10.6475  -10.2396 C.ar    1  UNL1        0.0186
     29 C         -20.4432   -9.9971  -10.8872 C.ar    1  UNL1        0.0071
     30 C         -21.2632  -10.6880  -11.7924 C.ar    1  UNL1        0.0668
     31 S         -17.8110  -12.8180   -9.6809 S.O2    1  UNL1        0.0105
     32 C         -16.7776  -11.6128   -8.8804 C.3     1  UNL1        0.1816
     33 O         -18.3448  -13.7803   -8.6571 O.2     1  UNL1       -0.1686
     34 O         -17.0024  -13.5859  -10.6888 O.2     1  UNL1       -0.1686
     35 N         -21.7772  -12.7588  -13.0679 N.pl3   1  UNL1       -0.3325
     36 H         -22.7595  -13.0295  -12.8377 H       1  UNL1        0.1468
     37 C         -21.8295  -12.2992  -15.4900 C.3     1  UNL1        0.0229
     38 C         -21.2393  -13.1528  -14.3721 C.3     1  UNL1        0.0871
@<TRIPOS>BOND
     1    37    38    1
     2    38    35    1
     3    35    25    1
     4    25    26   ar
     5    26    27   ar
     6    27    31    1
     7    31    32    1
     8    31    33    2
     9    31    34    2
    10    27    28   ar
    11    28    29   ar
    12    29    30   ar
    13    30     1    1
    14     1     2    2
    15     1     3   am
    16     3     4    1
    17     4     5    1
    18     5     6    1
    19     6     7    1
    20     7     8   ar
    21     8     9   ar
    22     9    10   ar
    23    10    15    1
    24    15    16   ar
    25    16    17   ar
    26    17    18   ar
    27    18    19   ar
    28    19    20   ar
    29    20    21   ar
    30    21    22   ar
    31    22    23   ar
    32    10    11   ar
    33    11    12   ar
    34    12    13    1
    35    13    14    1
    36    30    25   ar
    37    13     3    1
    38    12     7   ar
    39    23    15   ar
    40    22    18   ar
    41    35    36    1
    42    21    24    1
@<TRIPOS>MOLECULE
*****
 38 42 0 0 0
SMALL
GASTEIGER

@<TRIPOS>ATOM
      1 C         -25.1361   -6.4420  -14.9004 C.2     1  UNL1        0.2511
      2 O         -24.3171   -6.8098  -15.7865 O.2     1  UNL1       -0.2698
      3 N         -24.9415   -6.8465  -13.5258 N.am    1  UNL1       -0.2612
      4 C         -26.0969   -7.0824  -12.6516 C.3     1  UNL1        0.1419
      5 C         -26.7650   -8.3981  -13.0350 C.3     1  UNL1        0.2268
      6 O         -25.8329   -9.3047  -13.6231 O.3     1  UNL1       -0.4739
      7 C         -24.6360   -9.6970  -13.0118 C.ar    1  UNL1        0.1369
      8 C         -24.4731  -11.0586  -12.7387 C.ar    1  UNL1        0.0367
      9 C         -23.2964  -11.5379  -12.1676 C.ar    1  UNL1        0.0031
     10 C         -22.2402  -10.6631  -11.8796 C.ar    1  UNL1        0.0000
     11 C         -22.3893   -9.2970  -12.1711 C.ar    1  UNL1        0.0011
     12 C         -23.5849   -8.7847  -12.7126 C.ar    1  UNL1        0.0396
     13 C         -23.6203   -7.2989  -13.0639 C.3     1  UNL1        0.1539
     14 I         -23.0010   -6.0648  -11.4066 I       1  UNL1       -0.0478
     15 C         -20.9782  -11.1731  -11.2861 C.ar    1  UNL1        0.0015
     16 C         -20.5380  -12.4993  -11.5564 C.ar    1  UNL1        0.0016
     17 C         -19.3430  -12.9909  -10.9980 C.ar    1  UNL1        0.0206
     18 C         -18.6126  -12.1384  -10.1773 C.ar    1  UNL1        0.0985
     19 N         -17.4549  -12.3970   -9.5431 N.ar    1  UNL1       -0.2241
     20 C         -17.1997  -11.2306   -8.8933 C.ar    1  UNL1        0.1750
     21 N         -18.1415  -10.2791   -9.1003 N.ar    1  UNL1       -0.3349
     22 C         -19.0250  -10.8692   -9.9135 C.ar    1  UNL1        0.0757
     23 C         -20.1991  -10.3422  -10.4441 C.ar    1  UNL1        0.0185
     24 H         -18.1685   -9.3098   -8.7129 H       1  UNL1        0.1675
     25 C         -26.3204   -4.8850  -16.5120 C.ar    1  UNL1        0.0503
     26 C         -27.4564   -4.1071  -16.8144 C.ar    1  UNL1        0.0328
     27 C         -28.5637   -4.0894  -15.9581 C.ar    1  UNL1        0.1069
     28 C         -28.5545   -4.8674  -14.7977 C.ar    1  UNL1        0.0186
     29 C         -27.4372   -5.6380  -14.4789 C.ar    1  UNL1        0.0071
     30 C         -26.3091   -5.6419  -15.3135 C.ar    1  UNL1        0.0668
     31 S         -29.9796   -3.1265  -16.3681 S.O2    1  UNL1        0.0105
     32 C         -29.7542   -2.4012  -17.9757 C.3     1  UNL1        0.1816
     33 O         -31.2055   -3.9961  -16.3776 O.2     1  UNL1       -0.1686
     34 O         -30.1673   -2.0400  -15.3464 O.2     1  UNL1       -0.1686
     35 N         -25.2040   -4.9376  -17.4259 N.pl3   1  UNL1       -0.3325
     36 H         -24.2399   -4.7807  -17.0555 H       1  UNL1        0.1468
     37 C         -24.8777   -6.5546  -19.2587 C.3     1  UNL1        0.0229
     38 C         -25.3636   -5.1636  -18.8643 C.3     1  UNL1        0.0871
@<TRIPOS>BOND
     1    37    38    1
     2    38    35    1
     3    35    25    1
     4    25    26   ar
     5    26    27   ar
     6    27    31    1
     7    31    32    1
     8    31    33    2
     9    31    34    2
    10    27    28   ar
    11    28    29   ar
    12    29    30   ar
    13    30     1    1
    14     1     2    2
    15     1     3   am
    16     3     4    1
    17     4     5    1
    18     5     6    1
    19     6     7    1
    20     7     8   ar
    21     8     9   ar
    22     9    10   ar
    23    10    15    1
    24    15    16   ar
    25    16    17   ar
    26    17    18   ar
    27    18    19   ar
    28    19    20   ar
    29    20    21   ar
    30    21    22   ar
    31    22    23   ar
    32    10    11   ar
    33    11    12   ar
    34    12    13    1
    35    13    14    1
    36    30    25   ar
    37    13     3    1
    38    12     7   ar
    39    23    15   ar
    40    22    18   ar
    41    35    36    1
    42    21    24    1
@<TRIPOS>MOLECULE
*****
 38 42 0 0 0
SMALL
GASTEIGER

@<TRIPOS>ATOM
      1 C         -22.1090   -9.3093  -11.2258 C.2     1  UNL1        0.2511
      2 O         -23.1985   -9.9431  -11.1754 O.2     1  UNL1       -0.2698
      3 N         -22.0569   -8.0142  -11.8668 N.am    1  UNL1       -0.2612
      4 C         -20.8412   -7.5815  -12.5664 C.3     1  UNL1        0.1419
      5 C         -20.7174   -8.3357  -13.8856 C.3     1  UNL1        0.2268
      6 O         -21.9953   -8.7311  -14.3825 O.3     1  UNL1       -0.4739
      7 C         -23.0565   -7.8434  -14.5970 C.ar    1  UNL1        0.1369
      8 C         -23.5426   -7.7307  -15.9032 C.ar    1  UNL1        0.0367
      9 C         -24.6215   -6.8995  -16.1958 C.ar    1  UNL1        0.0031
     10 C         -25.2581   -6.1784  -15.1767 C.ar    1  UNL1        0.0000
     11 C         -24.7881   -6.3035  -13.8588 C.ar    1  UNL1        0.0011
     12 C         -23.6744   -7.1080  -13.5462 C.ar    1  UNL1        0.0396
     13 C         -23.2886   -7.2373  -12.0743 C.3     1  UNL1        0.1539
     14 I         -23.0658   -5.3116  -11.1282 I       1  UNL1       -0.0478
     15 C         -26.4188   -5.3042  -15.4824 C.ar    1  UNL1        0.0015
     16 C         -26.2808   -4.2098  -16.3818 C.ar    1  UNL1        0.0016
     17 C         -27.3758   -3.3761  -16.6772 C.ar    1  UNL1        0.0206
     18 C         -28.5902   -3.6590  -16.0616 C.ar    1  UNL1        0.0985
     19 N         -29.7550   -2.9995  -16.1954 N.ar    1  UNL1       -0.2241
     20 C         -30.5907   -3.6946  -15.3791 C.ar    1  UNL1        0.1750
     21 N         -29.9939   -4.7401  -14.7579 N.ar    1  UNL1       -0.3349
     22 C         -28.7320   -4.7029  -15.2011 C.ar    1  UNL1        0.0757
     23 C         -27.6768   -5.5525  -14.8806 C.ar    1  UNL1        0.0185
     24 H         -30.4227   -5.4169  -14.0883 H       1  UNL1        0.1675
     25 C         -20.4933  -11.2527  -11.0339 C.ar    1  UNL1        0.0503
     26 C         -19.3546  -11.8116  -10.4190 C.ar    1  UNL1        0.0328
     27 C         -18.6222  -11.0880   -9.4706 C.ar    1  UNL1        0.1069
     28 C         -19.0102   -9.7868   -9.1414 C.ar    1  UNL1        0.0186
     29 C         -20.1375   -9.2199   -9.7345 C.ar    1  UNL1        0.0071
     30 C         -20.8975   -9.9451  -10.6648 C.ar    1  UNL1        0.0668
     31 S         -17.1910  -11.7994   -8.7320 S.O2    1  UNL1        0.0105
     32 C         -17.1460  -11.3761   -7.0058 C.3     1  UNL1        0.1816
     33 O         -17.2269  -13.2946   -8.8810 O.2     1  UNL1       -0.1686
     34 O         -15.9564  -11.2768   -9.4118 O.2     1  UNL1       -0.1686
     35 N         -21.2126  -11.9863  -12.0482 N.pl3   1  UNL1       -0.3325
     36 H         -22.2170  -11.7570  -12.2211 H       1  UNL1        0.1468
     37 C         -21.1996  -13.1368  -14.2292 C.3     1  UNL1        0.0229
     38 C         -20.6075  -13.0707  -12.8251 C.3     1  UNL1        0.0871
@<TRIPOS>BOND
     1    37    38    1
     2    38    35    1
     3    35    25    1
     4    25    26   ar
     5    26    27   ar
     6    27    31    1
     7    31    32    1
     8    31    33    2
     9    31    34    2
    10    27    28   ar
    11    28    29   ar
    12    29    30   ar
    13    30     1    1
    14     1     2    2
    15     1     3   am
    16     3     4    1
    17     4     5    1
    18     5     6    1
    19     6     7    1
    20     7     8   ar
    21     8     9   ar
    22     9    10   ar
    23    10    15    1
    24    15    16   ar
    25    16    17   ar
    26    17    18   ar
    27    18    19   ar
    28    19    20   ar
    29    20    21   ar
    30    21    22   ar
    31    22    23   ar
    32    10    11   ar
    33    11    12   ar
    34    12    13    1
    35    13    14    1
    36    30    25   ar
    37    13     3    1
    38    12     7   ar
    39    23    15   ar
    40    22    18   ar
    41    35    36    1
    42    21    24    1
@<TRIPOS>MOLECULE
*****
 38 42 0 0 0
SMALL
GASTEIGER

@<TRIPOS>ATOM
      1 C         -21.7537   -7.7777  -12.1689 C.2     1  UNL1        0.2511
      2 O         -20.7495   -7.6243  -12.9167 O.2     1  UNL1       -0.2698
      3 N         -21.6147   -8.4718  -10.9080 N.am    1  UNL1       -0.2612
      4 C         -22.7238   -9.2733  -10.3766 C.3     1  UNL1        0.1419
      5 C         -22.8447  -10.5669  -11.1742 C.3     1  UNL1        0.2268
      6 O         -21.5901  -10.9550  -11.7325 O.3     1  UNL1       -0.4739
      7 C         -20.4225  -11.1281  -10.9794 C.ar    1  UNL1        0.1369
      8 C         -19.8409  -12.3996  -10.9838 C.ar    1  UNL1        0.0367
      9 C         -18.6570  -12.6471  -10.2925 C.ar    1  UNL1        0.0031
     10 C         -18.0115  -11.6145   -9.5990 C.ar    1  UNL1        0.0000
     11 C         -18.5795  -10.3297   -9.6082 C.ar    1  UNL1        0.0011
     12 C         -19.7961  -10.0659  -10.2681 C.ar    1  UNL1        0.0396
     13 C         -20.2914   -8.6214  -10.2836 C.3     1  UNL1        0.1539
     14 I         -20.3552   -7.7709   -8.3022 I       1  UNL1       -0.0478
     15 C         -16.7408  -11.8709   -8.8748 C.ar    1  UNL1        0.0015
     16 C         -15.6146  -12.4062   -9.5610 C.ar    1  UNL1        0.0016
     17 C         -14.4062  -12.6524   -8.8823 C.ar    1  UNL1        0.0206
     18 C         -14.3533  -12.3552   -7.5248 C.ar    1  UNL1        0.0985
     19 N         -13.3122  -12.5110   -6.6873 N.ar    1  UNL1       -0.2241
     20 C         -13.8105  -12.0712   -5.5015 C.ar    1  UNL1        0.1750
     21 N         -15.0983  -11.6574   -5.5763 N.ar    1  UNL1       -0.3349
     22 C         -15.4242  -11.8430   -6.8606 C.ar    1  UNL1        0.0757
     23 C         -16.6377  -11.5838   -7.4916 C.ar    1  UNL1        0.0185
     24 H         -15.6956  -11.2809   -4.8070 H       1  UNL1        0.1675
     25 C         -23.7400   -6.2129  -11.9950 C.ar    1  UNL1        0.0503
     26 C         -25.0099   -5.8268  -12.4698 C.ar    1  UNL1        0.0328
     27 C         -25.5932   -6.4715  -13.5668 C.ar    1  UNL1        0.1069
     28 C         -24.9020   -7.4984  -14.2148 C.ar    1  UNL1        0.0186
     29 C         -23.6479   -7.8983  -13.7553 C.ar    1  UNL1        0.0071
     30 C         -23.0646   -7.2801  -12.6387 C.ar    1  UNL1        0.0668
     31 S         -27.1711   -5.9571  -14.1549 S.O2    1  UNL1        0.0105
     32 C         -28.3197   -7.3075  -14.0197 C.3     1  UNL1        0.1816
     33 O         -27.6666   -4.7939  -13.3421 O.2     1  UNL1       -0.1686
     34 O         -27.0622   -5.5296  -15.5918 O.2     1  UNL1       -0.1686
     35 N         -23.1236   -5.5088  -10.8956 N.pl3   1  UNL1       -0.3325
     36 H         -23.2772   -5.8571   -9.9228 H       1  UNL1        0.1468
     37 C         -20.8723   -4.5319  -10.6557 C.3     1  UNL1        0.0229
     38 C         -22.3193   -4.2982  -11.0775 C.3     1  UNL1        0.0871
@<TRIPOS>BOND
     1    37    38    1
     2    38    35    1
     3    35    25    1
     4    25    26   ar
     5    26    27   ar
     6    27    31    1
     7    31    32    1
     8    31    33    2
     9    31    34    2
    10    27    28   ar
    11    28    29   ar
    12    29    30   ar
    13    30     1    1
    14     1     2    2
    15     1     3   am
    16     3     4    1
    17     4     5    1
    18     5     6    1
    19     6     7    1
    20     7     8   ar
    21     8     9   ar
    22     9    10   ar
    23    10    15    1
    24    15    16   ar
    25    16    17   ar
    26    17    18   ar
    27    18    19   ar
    28    19    20   ar
    29    20    21   ar
    30    21    22   ar
    31    22    23   ar
    32    10    11   ar
    33    11    12   ar
    34    12    13    1
    35    13    14    1
    36    30    25   ar
    37    13     3    1
    38    12     7   ar
    39    23    15   ar
    40    22    18   ar
    41    35    36    1
    42    21    24    1
