@<TRIPOS>MOLECULE
*****
 50 55 0 0 0
SMALL
GASTEIGER

@<TRIPOS>ATOM
      1 C          59.7914   86.0791   10.6482 C.2     1  UNL1        0.2483
      2 O          59.2535   86.5853   11.6709 O.2     1  UNL1       -0.2701
      3 N          60.3903   84.7740   10.7216 N.am    1  UNL1       -0.2945
      4 H          60.9678   84.4434    9.9156 H       1  UNL1        0.1501
      5 C          59.8988   88.3398    6.9935 C.ar    1  UNL1        0.0502
      6 C          59.1574   87.1514    7.0813 C.ar    1  UNL1        0.0148
      7 C          59.1347   86.4186    8.2704 C.ar    1  UNL1        0.0080
      8 C          59.8428   86.8662    9.3979 C.ar    1  UNL1        0.0808
      9 C          60.5956   88.0526    9.3073 C.ar    1  UNL1        0.1457
     10 F          61.3440   88.4870   10.3528 F       1  UNL1       -0.2040
     11 C          60.6178   88.7818    8.1142 C.ar    1  UNL1        0.0443
     12 N          60.1950   90.9423    3.7257 N.pl3   1  UNL1       -0.3042
     13 C          61.4050   90.2621    4.1926 C.3     1  UNL1        0.1122
     14 C          61.0274   88.9192    4.8180 C.3     1  UNL1        0.1122
     15 N          59.9238   89.1011    5.7715 N.pl3   1  UNL1       -0.3040
     16 C          58.7179   89.8031    5.3103 C.3     1  UNL1        0.1122
     17 C          59.0995   91.1426    4.6774 C.3     1  UNL1        0.1122
     18 C          61.1427   91.6137    1.5271 C.ar    1  UNL1        0.0320
     19 C          60.0309   91.2791    2.3384 C.ar    1  UNL1        0.0471
     20 C          58.7414   91.2891    1.7933 C.ar    1  UNL1        0.0152
     21 C          58.5375   91.6549    0.4653 C.ar    1  UNL1        0.0135
     22 C          59.6171   92.0264   -0.3371 C.ar    1  UNL1        0.0680
     23 CL         59.3009   92.5055   -2.0006 Cl      1  UNL1       -0.0814
     24 C          60.9226   92.0161    0.1872 C.ar    1  UNL1        0.0677
     25 CL         62.2688   92.5231   -0.8394 Cl      1  UNL1       -0.0816
     26 C          62.5434   91.5778    2.0943 C.3     1  UNL1        0.1708
     27 C          64.1980   93.1748    1.9654 C.3     1  UNL1        0.1746
     28 O          62.9164   92.8848    2.4755 O.3     1  UNL1       -0.3463
     29 C          60.4696   84.0108   11.9710 C.3     1  UNL1        0.1535
     30 C          60.2705   82.5479   11.6751 C.2     1  UNL1        0.2443
     31 O          61.1988   81.8903   11.1292 O.2     1  UNL1       -0.2730
     32 N          58.9991   81.9306   11.9329 N.am    1  UNL1       -0.2825
     33 H          58.1712   82.5548   12.0657 H       1  UNL1        0.1549
     34 C          58.7748   80.5105   11.9100 C.ar    1  UNL1        0.0535
     35 C          59.1049   79.6954   13.0064 C.ar    1  UNL1        0.0353
     36 C          58.8454   78.3238   12.9478 C.ar    1  UNL1        0.1002
     37 N          58.2646   77.7852   11.8431 N.ar    1  UNL1       -0.2422
     38 C          57.9181   78.5521   10.7759 C.ar    1  UNL1        0.1002
     39 C          58.1590   79.9280   10.7937 C.ar    1  UNL1        0.0353
     40 C          61.8264   84.2487   12.6590 C.3     1  UNL1        0.0569
     41 C          61.6745   85.1063   13.8819 C.ar    1  UNL1       -0.0017
     42 C          61.1246   84.7191   15.1009 C.ar    1  UNL1        0.0681
     43 N          61.2603   85.7065   16.0151 N.ar    1  UNL1       -0.3523
     44 C          61.9013   86.7080   15.3877 C.ar    1  UNL1        0.0563
     45 C          62.2977   87.9290   15.9314 C.ar    1  UNL1        0.0170
     46 C          62.9932   88.8247   15.0986 C.ar    1  UNL1        0.0015
     47 C          63.2790   88.4813   13.7583 C.ar    1  UNL1        0.0001
     48 C          62.8702   87.2399   13.2378 C.ar    1  UNL1        0.0012
     49 C          62.1750   86.3770   14.0852 C.ar    1  UNL1        0.0131
     50 H          60.9519   85.6813   17.0124 H       1  UNL1        0.1660
@<TRIPOS>BOND
     1    27    28    1
     2    28    26    1
     3    26    18    1
     4    18    19   ar
     5    19    12    1
     6    12    13    1
     7    13    14    1
     8    14    15    1
     9    15     5    1
    10     5     6   ar
    11     6     7   ar
    12     7     8   ar
    13     8     1    1
    14     1     2    2
    15     1     3   am
    16     3    29    1
    17    29    40    1
    18    40    41    1
    19    41    42   ar
    20    42    43   ar
    21    43    44   ar
    22    44    45   ar
    23    45    46   ar
    24    46    47   ar
    25    47    48   ar
    26    48    49   ar
    27    29    30    1
    28    30    31    2
    29    30    32   am
    30    32    34    1
    31    34    35   ar
    32    35    36   ar
    33    36    37   ar
    34    37    38   ar
    35    38    39   ar
    36     8     9   ar
    37     9    10    1
    38     9    11   ar
    39    15    16    1
    40    16    17    1
    41    19    20   ar
    42    20    21   ar
    43    21    22   ar
    44    22    23    1
    45    22    24   ar
    46    24    25    1
    47    24    18   ar
    48    17    12    1
    49    11     5   ar
    50    49    41   ar
    51    39    34   ar
    52    49    44   ar
    53     3     4    1
    54    43    50    1
    55    32    33    1
@<TRIPOS>MOLECULE
*****
 50 55 0 0 0
SMALL
GASTEIGER

@<TRIPOS>ATOM
      1 C          59.8122   85.2051    9.0185 C.2     1  UNL1        0.2483
      2 O          58.9637   85.7327    8.2483 O.2     1  UNL1       -0.2701
      3 N          59.8386   83.7779    9.1905 N.am    1  UNL1       -0.2945
      4 H          60.4359   83.3771    9.9490 H       1  UNL1        0.1501
      5 C          62.5049   87.6979   11.2580 C.ar    1  UNL1        0.0502
      6 C          61.9755   86.5260   11.8203 C.ar    1  UNL1        0.0148
      7 C          61.0947   85.7260   11.0884 C.ar    1  UNL1        0.0080
      8 C          60.7357   86.0760    9.7762 C.ar    1  UNL1        0.0808
      9 C          61.2578   87.2572    9.2154 C.ar    1  UNL1        0.1457
     10 F          60.8880   87.6646    7.9747 F       1  UNL1       -0.2040
     11 C          62.1372   88.0566    9.9525 C.ar    1  UNL1        0.0443
     12 N          64.7357   90.4180   13.5304 N.pl3   1  UNL1       -0.3042
     13 C          63.8536   89.4793   14.2272 C.3     1  UNL1        0.1122
     14 C          63.7212   88.1966   13.4060 C.3     1  UNL1        0.1122
     15 N          63.4155   88.5250   12.0063 N.pl3   1  UNL1       -0.3040
     16 C          64.2872   89.4838   11.3131 C.3     1  UNL1        0.1122
     17 C          64.4246   90.7628   12.1410 C.3     1  UNL1        0.1122
     18 C          67.1826   90.8525   13.4489 C.ar    1  UNL1        0.0320
     19 C          65.9495   90.8796   14.1455 C.ar    1  UNL1        0.0471
     20 C          65.9034   91.3479   15.4641 C.ar    1  UNL1        0.0152
     21 C          67.0663   91.7604   16.1094 C.ar    1  UNL1        0.0135
     22 C          68.2957   91.7024   15.4518 C.ar    1  UNL1        0.0680
     23 CL         69.7382   92.2106   16.3224 Cl      1  UNL1       -0.0814
     24 C          68.3649   91.2427   14.1240 C.ar    1  UNL1        0.0677
     25 CL         69.9382   91.1471   13.3247 Cl      1  UNL1       -0.0816
     26 C          67.2422   90.3778   12.0151 C.3     1  UNL1        0.1708
     27 C          67.8358   91.0999    9.9101 C.3     1  UNL1        0.1746
     28 O          67.3334   91.5008   11.1646 O.3     1  UNL1       -0.3463
     29 C          58.8631   82.8877    8.5537 C.3     1  UNL1        0.1535
     30 C          59.3615   81.4686    8.6261 C.2     1  UNL1        0.2443
     31 O          59.2323   80.7107    7.6256 O.2     1  UNL1       -0.2730
     32 N          59.8989   80.9593    9.8572 N.am    1  UNL1       -0.2825
     33 H          59.6910   81.4861   10.7358 H       1  UNL1        0.1549
     34 C          60.6093   79.7143    9.9708 C.ar    1  UNL1        0.0535
     35 C          61.8122   79.4876    9.2801 C.ar    1  UNL1        0.0353
     36 C          62.4803   78.2711    9.4412 C.ar    1  UNL1        0.1002
     37 N          61.9766   77.3201   10.2716 N.ar    1  UNL1       -0.2422
     38 C          60.8255   77.5193   10.9662 C.ar    1  UNL1        0.1002
     39 C          60.1267   78.7217   10.8348 C.ar    1  UNL1        0.0353
     40 C          57.4903   83.0196    9.2384 C.3     1  UNL1        0.0569
     41 C          57.6059   82.8588   10.7266 C.ar    1  UNL1       -0.0017
     42 C          57.8129   81.6673   11.4165 C.ar    1  UNL1        0.0681
     43 N          57.9887   81.9096   12.7353 N.ar    1  UNL1       -0.3523
     44 C          57.9066   83.2435   12.8820 C.ar    1  UNL1        0.0563
     45 C          58.0578   83.9748   14.0592 C.ar    1  UNL1        0.0170
     46 C          57.9674   85.3766   13.9786 C.ar    1  UNL1        0.0015
     47 C          57.7366   86.0089   12.7364 C.ar    1  UNL1        0.0001
     48 C          57.5921   85.2453   11.5638 C.ar    1  UNL1        0.0012
     49 C          57.6781   83.8576   11.6772 C.ar    1  UNL1        0.0131
     50 H          58.1764   81.2030   13.4808 H       1  UNL1        0.1660
@<TRIPOS>BOND
     1    27    28    1
     2    28    26    1
     3    26    18    1
     4    18    19   ar
     5    19    12    1
     6    12    13    1
     7    13    14    1
     8    14    15    1
     9    15     5    1
    10     5     6   ar
    11     6     7   ar
    12     7     8   ar
    13     8     1    1
    14     1     2    2
    15     1     3   am
    16     3    29    1
    17    29    40    1
    18    40    41    1
    19    41    42   ar
    20    42    43   ar
    21    43    44   ar
    22    44    45   ar
    23    45    46   ar
    24    46    47   ar
    25    47    48   ar
    26    48    49   ar
    27    29    30    1
    28    30    31    2
    29    30    32   am
    30    32    34    1
    31    34    35   ar
    32    35    36   ar
    33    36    37   ar
    34    37    38   ar
    35    38    39   ar
    36     8     9   ar
    37     9    10    1
    38     9    11   ar
    39    15    16    1
    40    16    17    1
    41    19    20   ar
    42    20    21   ar
    43    21    22   ar
    44    22    23    1
    45    22    24   ar
    46    24    25    1
    47    24    18   ar
    48    17    12    1
    49    11     5   ar
    50    49    41   ar
    51    39    34   ar
    52    49    44   ar
    53     3     4    1
    54    43    50    1
    55    32    33    1
@<TRIPOS>MOLECULE
*****
 50 55 0 0 0
SMALL
GASTEIGER

@<TRIPOS>ATOM
      1 C          59.7290   89.5220    6.0518 C.2     1  UNL1        0.2483
      2 O          58.7086   90.2637    6.0647 O.2     1  UNL1       -0.2701
      3 N          60.8184   89.8122    5.1594 N.am    1  UNL1       -0.2945
      4 H          61.5764   89.1011    5.0487 H       1  UNL1        0.1501
      5 C          59.7933   86.0256    8.5521 C.ar    1  UNL1        0.0502
      6 C          58.8494   86.1543    7.5214 C.ar    1  UNL1        0.0148
      7 C          58.8304   87.2976    6.7189 C.ar    1  UNL1        0.0080
      8 C          59.7622   88.3285    6.9236 C.ar    1  UNL1        0.0808
      9 C          60.7024   88.2051    7.9643 C.ar    1  UNL1        0.1457
     10 F          61.5792   89.2047    8.2363 F       1  UNL1       -0.2040
     11 C          60.7163   87.0600    8.7672 C.ar    1  UNL1        0.0443
     12 N          60.2621   82.8407   11.2308 N.pl3   1  UNL1       -0.3042
     13 C          59.5681   84.0463   11.6889 C.3     1  UNL1        0.1122
     14 C          58.8793   84.7215   10.5029 C.3     1  UNL1        0.1122
     15 N          59.8199   84.8483    9.3806 N.pl3   1  UNL1       -0.3040
     16 C          60.5332   83.6433    8.9346 C.3     1  UNL1        0.1122
     17 C          61.2144   82.9653   10.1247 C.3     1  UNL1        0.1122
     18 C          59.0893   80.6573   11.0311 C.ar    1  UNL1        0.0320
     19 C          59.9158   81.5493   11.7574 C.ar    1  UNL1        0.0471
     20 C          60.3971   81.1831   13.0201 C.ar    1  UNL1        0.0152
     21 C          60.0456   79.9591   13.5834 C.ar    1  UNL1        0.0135
     22 C          59.1997   79.0853   12.8992 C.ar    1  UNL1        0.0680
     23 CL         58.7656   77.5630   13.6679 Cl      1  UNL1       -0.0814
     24 C          58.7105   79.4290   11.6257 C.ar    1  UNL1        0.0677
     25 CL         57.6138   78.3200   10.7944 Cl      1  UNL1       -0.0816
     26 C          58.5873   81.0270    9.6541 C.3     1  UNL1        0.1708
     27 C          59.0553   80.8110    7.4093 C.3     1  UNL1        0.1746
     28 O          59.2981   80.2781    8.6914 O.3     1  UNL1       -0.3463
     29 C          60.7749   90.9134    4.1924 C.3     1  UNL1        0.1535
     30 C          61.9989   90.8569    3.3172 C.2     1  UNL1        0.2443
     31 O          62.8631   89.9582    3.5112 O.2     1  UNL1       -0.2730
     32 N          62.2204   91.8744    2.3275 N.am    1  UNL1       -0.2825
     33 H          61.6787   92.7645    2.4124 H       1  UNL1        0.1549
     34 C          63.2176   91.7891    1.2950 C.ar    1  UNL1        0.0535
     35 C          64.5744   92.0429    1.5595 C.ar    1  UNL1        0.0353
     36 C          65.5111   91.9231    0.5298 C.ar    1  UNL1        0.1002
     37 N          65.1132   91.5496   -0.7152 N.ar    1  UNL1       -0.2422
     38 C          63.8108   91.2800   -0.9950 C.ar    1  UNL1        0.1002
     39 C          62.8423   91.3866    0.0059 C.ar    1  UNL1        0.0353
     40 C          59.4929   90.8309    3.3437 C.3     1  UNL1        0.0569
     41 C          59.4719   91.8935    2.2833 C.ar    1  UNL1       -0.0017
     42 C          59.9308   93.2015    2.4134 C.ar    1  UNL1        0.0681
     43 N          59.8707   93.8435    1.2246 N.ar    1  UNL1       -0.3523
     44 C          59.3898   92.9493    0.3434 C.ar    1  UNL1        0.0563
     45 C          59.1819   93.1367   -1.0223 C.ar    1  UNL1        0.0170
     46 C          58.7005   92.0462   -1.7698 C.ar    1  UNL1        0.0015
     47 C          58.4464   90.8054   -1.1437 C.ar    1  UNL1        0.0001
     48 C          58.6694   90.6442    0.2358 C.ar    1  UNL1        0.0012
     49 C          59.1386   91.7458    0.9515 C.ar    1  UNL1        0.0131
     50 H          60.1645   94.8264    1.0298 H       1  UNL1        0.1660
@<TRIPOS>BOND
     1    27    28    1
     2    28    26    1
     3    26    18    1
     4    18    19   ar
     5    19    12    1
     6    12    13    1
     7    13    14    1
     8    14    15    1
     9    15     5    1
    10     5     6   ar
    11     6     7   ar
    12     7     8   ar
    13     8     1    1
    14     1     2    2
    15     1     3   am
    16     3    29    1
    17    29    40    1
    18    40    41    1
    19    41    42   ar
    20    42    43   ar
    21    43    44   ar
    22    44    45   ar
    23    45    46   ar
    24    46    47   ar
    25    47    48   ar
    26    48    49   ar
    27    29    30    1
    28    30    31    2
    29    30    32   am
    30    32    34    1
    31    34    35   ar
    32    35    36   ar
    33    36    37   ar
    34    37    38   ar
    35    38    39   ar
    36     8     9   ar
    37     9    10    1
    38     9    11   ar
    39    15    16    1
    40    16    17    1
    41    19    20   ar
    42    20    21   ar
    43    21    22   ar
    44    22    23    1
    45    22    24   ar
    46    24    25    1
    47    24    18   ar
    48    17    12    1
    49    11     5   ar
    50    49    41   ar
    51    39    34   ar
    52    49    44   ar
    53     3     4    1
    54    43    50    1
    55    32    33    1
