@<TRIPOS>MOLECULE
*****
 50 55 0 0 0
SMALL
GASTEIGER

@<TRIPOS>ATOM
      1 O         -61.3808  -42.2199  -19.4730 O.2     1  UNL1       -0.2701
      2 C         -62.1226  -41.6685  -20.3320 C.2     1  UNL1        0.2483
      3 N         -63.0811  -40.6820  -19.9176 N.am    1  UNL1       -0.2945
      4 H         -63.5095  -40.0619  -20.6419 H       1  UNL1        0.1501
      5 C         -61.9657  -42.0244  -21.7606 C.ar    1  UNL1        0.0808
      6 C         -63.0703  -41.9332  -22.6227 C.ar    1  UNL1        0.0080
      7 C         -62.9483  -42.2685  -23.9732 C.ar    1  UNL1        0.0148
      8 C         -61.7151  -42.6949  -24.4962 C.ar    1  UNL1        0.0502
      9 C         -60.6044  -42.7649  -23.6372 C.ar    1  UNL1        0.0443
     10 C         -60.7239  -42.4318  -22.2843 C.ar    1  UNL1        0.1457
     11 F         -59.6131  -42.4651  -21.5052 F       1  UNL1       -0.2040
     12 N         -61.5861  -43.0375  -25.8942 N.pl3   1  UNL1       -0.3040
     13 C         -62.2902  -42.2360  -26.9074 C.3     1  UNL1        0.1123
     14 C         -62.4145  -42.9871  -28.2365 C.3     1  UNL1        0.1136
     15 N         -61.1066  -43.5078  -28.6593 N.pl3   1  UNL1       -0.2897
     16 C         -60.1789  -44.0530  -27.6538 C.3     1  UNL1        0.1136
     17 C         -60.8606  -44.2513  -26.2955 C.3     1  UNL1        0.1123
     18 C         -60.8000  -43.6095  -30.0685 C.ar    1  UNL1        0.1322
     19 C         -61.7731  -43.3592  -31.0492 C.ar    1  UNL1        0.0401
     20 C         -61.4453  -43.4644  -32.4040 C.ar    1  UNL1        0.0383
     21 I         -62.9908  -43.0676  -33.8062 I       1  UNL1       -0.0424
     22 C         -60.1346  -43.8246  -32.7851 C.ar    1  UNL1        0.0960
     23 C         -59.1942  -44.0713  -31.7694 C.ar    1  UNL1        0.1046
     24 N         -59.5451  -43.9596  -30.4624 N.ar    1  UNL1       -0.2292
     25 C         -59.7460  -43.9478  -34.2421 C.3     1  UNL1        0.4204
     26 F         -58.9193  -45.0364  -34.4623 F       1  UNL1       -0.1658
     27 F         -60.8819  -44.1049  -35.0151 F       1  UNL1       -0.1658
     28 F         -59.0737  -42.8077  -34.6429 F       1  UNL1       -0.1658
     29 C         -63.3306  -40.3890  -18.5033 C.3     1  UNL1        0.1535
     30 C         -63.6017  -38.9170  -18.3246 C.2     1  UNL1        0.2443
     31 O         -62.7458  -38.1954  -17.7433 O.2     1  UNL1       -0.2730
     32 N         -64.7736  -38.3309  -18.9158 N.am    1  UNL1       -0.2825
     33 H         -65.3799  -38.9479  -19.5025 H       1  UNL1        0.1549
     34 C         -65.0141  -36.9161  -18.9749 C.ar    1  UNL1        0.0535
     35 C         -64.1433  -35.9969  -18.3680 C.ar    1  UNL1        0.0353
     36 C         -64.4213  -34.6299  -18.4488 C.ar    1  UNL1        0.1002
     37 N         -65.5333  -34.1966  -19.0999 N.ar    1  UNL1       -0.2422
     38 C         -66.4026  -35.0658  -19.6801 C.ar    1  UNL1        0.1002
     39 C         -66.1643  -36.4402  -19.6187 C.ar    1  UNL1        0.0353
     40 C         -64.5169  -41.2274  -17.9898 C.3     1  UNL1        0.0569
     41 C         -65.1688  -42.0042  -19.0998 C.ar    1  UNL1       -0.0017
     42 C         -65.3854  -43.3787  -19.1253 C.ar    1  UNL1        0.0681
     43 N         -66.1179  -43.7220  -20.2092 N.ar    1  UNL1       -0.3523
     44 C         -66.3784  -42.5753  -20.8606 C.ar    1  UNL1        0.0563
     45 C         -67.1458  -42.4152  -22.0136 C.ar    1  UNL1        0.0170
     46 C         -67.3322  -41.1098  -22.5038 C.ar    1  UNL1        0.0015
     47 C         -66.7563  -40.0062  -21.8370 C.ar    1  UNL1        0.0001
     48 C         -65.9876  -40.1974  -20.6748 C.ar    1  UNL1        0.0012
     49 C         -65.8171  -41.5040  -20.2139 C.ar    1  UNL1        0.0131
     50 H         -66.4401  -44.6812  -20.4671 H       1  UNL1        0.1660
@<TRIPOS>BOND
     1     1     2    2
     2     2     3   am
     3     3    29    1
     4    29    40    1
     5    40    41    1
     6    41    42   ar
     7    42    43   ar
     8    43    44   ar
     9    44    45   ar
    10    45    46   ar
    11    46    47   ar
    12    47    48   ar
    13    48    49   ar
    14    29    30    1
    15    30    31    2
    16    30    32   am
    17    32    34    1
    18    34    35   ar
    19    35    36   ar
    20    36    37   ar
    21    37    38   ar
    22    38    39   ar
    23     2     5    1
    24     5     6   ar
    25     6     7   ar
    26     7     8   ar
    27     8    12    1
    28    12    13    1
    29    13    14    1
    30    14    15    1
    31    15    18    1
    32    18    19   ar
    33    19    20   ar
    34    20    21    1
    35    20    22   ar
    36    22    25    1
    37    25    26    1
    38    25    27    1
    39    25    28    1
    40    22    23   ar
    41    23    24   ar
    42    15    16    1
    43    16    17    1
    44     8     9   ar
    45     9    10   ar
    46    10    11    1
    47    49    41   ar
    48    39    34   ar
    49    10     5   ar
    50    49    44   ar
    51    17    12    1
    52    24    18   ar
    53     3     4    1
    54    43    50    1
    55    32    33    1
@<TRIPOS>MOLECULE
*****
 50 55 0 0 0
SMALL
GASTEIGER

@<TRIPOS>ATOM
      1 O         -74.4032  -56.4373  -25.4491 O.2     1  UNL1       -0.2701
      2 C         -73.3154  -56.3704  -24.8132 C.2     1  UNL1        0.2483
      3 N         -72.0697  -56.5007  -25.5167 N.am    1  UNL1       -0.2945
      4 H         -71.1889  -56.2031  -25.0389 H       1  UNL1        0.1501
      5 C         -73.3430  -56.1222  -23.3538 C.ar    1  UNL1        0.0808
      6 C         -74.5207  -56.3712  -22.6308 C.ar    1  UNL1        0.0080
      7 C         -74.5729  -56.1398  -21.2543 C.ar    1  UNL1        0.0148
      8 C         -73.4443  -55.6619  -20.5657 C.ar    1  UNL1        0.0502
      9 C         -72.2590  -55.4339  -21.2864 C.ar    1  UNL1        0.0443
     10 C         -72.2043  -55.6626  -22.6649 C.ar    1  UNL1        0.1457
     11 F         -71.0242  -55.4776  -23.3092 F       1  UNL1       -0.2040
     12 N         -73.4950  -55.4267  -19.1407 N.pl3   1  UNL1       -0.3040
     13 C         -72.9657  -56.4420  -18.2167 C.3     1  UNL1        0.1123
     14 C         -73.5006  -56.2463  -16.7947 C.3     1  UNL1        0.1136
     15 N         -73.3116  -54.8551  -16.3592 N.pl3   1  UNL1       -0.2897
     16 C         -73.5129  -53.7566  -17.3192 C.3     1  UNL1        0.1136
     17 C         -74.1828  -54.2411  -18.6098 C.3     1  UNL1        0.1123
     18 C         -73.0683  -54.5708  -14.9627 C.ar    1  UNL1        0.1322
     19 C         -73.0404  -55.5938  -14.0015 C.ar    1  UNL1        0.0401
     20 C         -72.8013  -55.2870  -12.6589 C.ar    1  UNL1        0.0383
     21 I         -72.7825  -56.9074  -11.2854 I       1  UNL1       -0.0424
     22 C         -72.5896  -53.9465  -12.2702 C.ar    1  UNL1        0.0960
     23 C         -72.6317  -52.9542  -13.2654 C.ar    1  UNL1        0.1046
     24 N         -72.8659  -53.2862  -14.5611 N.ar    1  UNL1       -0.2292
     25 C         -72.3284  -53.5793  -10.8259 C.3     1  UNL1        0.4204
     26 F         -71.1202  -54.0859  -10.3781 F       1  UNL1       -0.1658
     27 F         -72.2948  -52.2030  -10.6943 F       1  UNL1       -0.1658
     28 F         -73.3337  -54.0912  -10.0260 F       1  UNL1       -0.1658
     29 C         -72.0150  -56.8518  -26.9387 C.3     1  UNL1        0.1535
     30 C         -72.5075  -55.6959  -27.7716 C.2     1  UNL1        0.2443
     31 O         -71.8216  -54.6390  -27.8319 O.2     1  UNL1       -0.2730
     32 N         -73.6889  -55.8492  -28.5761 N.am    1  UNL1       -0.2825
     33 H         -74.1431  -56.7905  -28.5946 H       1  UNL1        0.1549
     34 C         -74.1205  -54.8860  -29.5502 C.ar    1  UNL1        0.0535
     35 C         -73.8777  -55.0682  -30.9211 C.ar    1  UNL1        0.0353
     36 C         -74.3133  -54.1013  -31.8309 C.ar    1  UNL1        0.1002
     37 N         -74.9560  -52.9879  -31.3886 N.ar    1  UNL1       -0.2422
     38 C         -75.1875  -52.7777  -30.0658 C.ar    1  UNL1        0.1002
     39 C         -74.7647  -53.7171  -29.1231 C.ar    1  UNL1        0.0353
     40 C         -70.5761  -57.2344  -27.3350 C.3     1  UNL1        0.0569
     41 C         -69.5714  -56.7161  -26.3438 C.ar    1  UNL1       -0.0017
     42 C         -69.4463  -57.1118  -25.0154 C.ar    1  UNL1        0.0681
     43 N         -68.3532  -56.5464  -24.4545 N.ar    1  UNL1       -0.3523
     44 C         -67.7786  -55.8089  -25.4204 C.ar    1  UNL1        0.0563
     45 C         -66.5951  -55.0772  -25.3323 C.ar    1  UNL1        0.0170
     46 C         -66.1449  -54.4125  -26.4875 C.ar    1  UNL1        0.0015
     47 C         -66.8778  -54.4953  -27.6919 C.ar    1  UNL1        0.0001
     48 C         -68.0682  -55.2421  -27.7520 C.ar    1  UNL1        0.0012
     49 C         -68.4918  -55.8878  -26.5892 C.ar    1  UNL1        0.0131
     50 H         -68.0112  -56.6828  -23.4773 H       1  UNL1        0.1660
@<TRIPOS>BOND
     1     1     2    2
     2     2     3   am
     3     3    29    1
     4    29    40    1
     5    40    41    1
     6    41    42   ar
     7    42    43   ar
     8    43    44   ar
     9    44    45   ar
    10    45    46   ar
    11    46    47   ar
    12    47    48   ar
    13    48    49   ar
    14    29    30    1
    15    30    31    2
    16    30    32   am
    17    32    34    1
    18    34    35   ar
    19    35    36   ar
    20    36    37   ar
    21    37    38   ar
    22    38    39   ar
    23     2     5    1
    24     5     6   ar
    25     6     7   ar
    26     7     8   ar
    27     8    12    1
    28    12    13    1
    29    13    14    1
    30    14    15    1
    31    15    18    1
    32    18    19   ar
    33    19    20   ar
    34    20    21    1
    35    20    22   ar
    36    22    25    1
    37    25    26    1
    38    25    27    1
    39    25    28    1
    40    22    23   ar
    41    23    24   ar
    42    15    16    1
    43    16    17    1
    44     8     9   ar
    45     9    10   ar
    46    10    11    1
    47    49    41   ar
    48    39    34   ar
    49    10     5   ar
    50    49    44   ar
    51    17    12    1
    52    24    18   ar
    53     3     4    1
    54    43    50    1
    55    32    33    1
@<TRIPOS>MOLECULE
*****
 50 55 0 0 0
SMALL
GASTEIGER

@<TRIPOS>ATOM
      1 O         -59.5874  -48.7761  -23.5096 O.2     1  UNL1       -0.2701
      2 C         -60.7625  -48.4418  -23.1944 C.2     1  UNL1        0.2483
      3 N         -61.8019  -49.4330  -23.1657 N.am    1  UNL1       -0.2945
      4 H         -62.6973  -49.2086  -22.6752 H       1  UNL1        0.1501
      5 C         -61.0414  -47.0356  -22.8241 C.ar    1  UNL1        0.0808
      6 C         -61.9626  -46.2903  -23.5775 C.ar    1  UNL1        0.0080
      7 C         -62.2382  -44.9604  -23.2509 C.ar    1  UNL1        0.0148
      8 C         -61.6051  -44.3463  -22.1562 C.ar    1  UNL1        0.0502
      9 C         -60.6996  -45.0998  -21.3891 C.ar    1  UNL1        0.0443
     10 C         -60.4200  -46.4308  -21.7148 C.ar    1  UNL1        0.1457
     11 F         -59.5785  -47.1337  -20.9150 F       1  UNL1       -0.2040
     12 N         -61.8929  -42.9721  -21.8140 N.pl3   1  UNL1       -0.3040
     13 C         -63.1926  -42.3881  -22.1809 C.3     1  UNL1        0.1123
     14 C         -63.1509  -40.8571  -22.1593 C.3     1  UNL1        0.1136
     15 N         -62.5925  -40.3739  -20.8883 N.pl3   1  UNL1       -0.2897
     16 C         -61.4695  -41.0940  -20.2645 C.3     1  UNL1        0.1136
     17 C         -60.8516  -42.1239  -21.2166 C.3     1  UNL1        0.1123
     18 C         -63.0553  -39.1208  -20.3354 C.ar    1  UNL1        0.1322
     19 C         -62.4511  -37.9011  -20.6800 C.ar    1  UNL1        0.0401
     20 C         -62.9224  -36.7058  -20.1294 C.ar    1  UNL1        0.0383
     21 I         -61.9369  -34.9172  -20.7142 I       1  UNL1       -0.0424
     22 C         -64.0059  -36.7268  -19.2247 C.ar    1  UNL1        0.0960
     23 C         -64.5767  -37.9711  -18.9042 C.ar    1  UNL1        0.1046
     24 N         -64.0952  -39.1139  -19.4573 N.ar    1  UNL1       -0.2292
     25 C         -64.5408  -35.4519  -18.6101 C.3     1  UNL1        0.4204
     26 F         -65.4542  -35.7120  -17.6027 F       1  UNL1       -0.1658
     27 F         -63.4977  -34.7224  -18.0694 F       1  UNL1       -0.1658
     28 F         -65.1730  -34.6964  -19.5808 F       1  UNL1       -0.1658
     29 C         -61.5779  -50.8054  -23.6287 C.3     1  UNL1        0.1535
     30 C         -62.5585  -51.7376  -22.9639 C.2     1  UNL1        0.2443
     31 O         -62.8750  -51.5465  -21.7579 O.2     1  UNL1       -0.2730
     32 N         -63.2072  -52.7602  -23.7382 N.am    1  UNL1       -0.2825
     33 H         -63.0107  -52.7884  -24.7645 H       1  UNL1        0.1549
     34 C         -64.2965  -53.5593  -23.2502 C.ar    1  UNL1        0.0535
     35 C         -64.0889  -54.6039  -22.3351 C.ar    1  UNL1        0.0353
     36 C         -65.1796  -55.3565  -21.8919 C.ar    1  UNL1        0.1002
     37 N         -66.4291  -55.0855  -22.3540 N.ar    1  UNL1       -0.2422
     38 C         -66.6555  -54.0923  -23.2540 C.ar    1  UNL1        0.1002
     39 C         -65.5926  -53.3193  -23.7258 C.ar    1  UNL1        0.0353
     40 C         -61.7131  -50.8761  -25.1619 C.3     1  UNL1        0.0569
     41 C         -62.6534  -49.8259  -25.6847 C.ar    1  UNL1       -0.0017
     42 C         -64.0139  -49.7284  -25.4084 C.ar    1  UNL1        0.0681
     43 N         -64.5218  -48.5882  -25.9294 N.ar    1  UNL1       -0.3523
     44 C         -63.4917  -47.9577  -26.5196 C.ar    1  UNL1        0.0563
     45 C         -63.5132  -46.7158  -27.1528 C.ar    1  UNL1        0.0170
     46 C         -62.3012  -46.2164  -27.6633 C.ar    1  UNL1        0.0015
     47 C         -61.1080  -46.9596  -27.5288 C.ar    1  UNL1        0.0001
     48 C         -61.1156  -48.2096  -26.8840 C.ar    1  UNL1        0.0012
     49 C         -62.3335  -48.6809  -26.3907 C.ar    1  UNL1        0.0131
     50 H         -65.5086  -48.2542  -25.8582 H       1  UNL1        0.1660
@<TRIPOS>BOND
     1     1     2    2
     2     2     3   am
     3     3    29    1
     4    29    40    1
     5    40    41    1
     6    41    42   ar
     7    42    43   ar
     8    43    44   ar
     9    44    45   ar
    10    45    46   ar
    11    46    47   ar
    12    47    48   ar
    13    48    49   ar
    14    29    30    1
    15    30    31    2
    16    30    32   am
    17    32    34    1
    18    34    35   ar
    19    35    36   ar
    20    36    37   ar
    21    37    38   ar
    22    38    39   ar
    23     2     5    1
    24     5     6   ar
    25     6     7   ar
    26     7     8   ar
    27     8    12    1
    28    12    13    1
    29    13    14    1
    30    14    15    1
    31    15    18    1
    32    18    19   ar
    33    19    20   ar
    34    20    21    1
    35    20    22   ar
    36    22    25    1
    37    25    26    1
    38    25    27    1
    39    25    28    1
    40    22    23   ar
    41    23    24   ar
    42    15    16    1
    43    16    17    1
    44     8     9   ar
    45     9    10   ar
    46    10    11    1
    47    49    41   ar
    48    39    34   ar
    49    10     5   ar
    50    49    44   ar
    51    17    12    1
    52    24    18   ar
    53     3     4    1
    54    43    50    1
    55    32    33    1
@<TRIPOS>MOLECULE
*****
 50 55 0 0 0
SMALL
GASTEIGER

@<TRIPOS>ATOM
      1 O         -61.5672  -42.0352  -19.3427 O.2     1  UNL1       -0.2701
      2 C         -62.3131  -41.5014  -20.2092 C.2     1  UNL1        0.2483
      3 N         -63.2860  -40.5239  -19.8071 N.am    1  UNL1       -0.2945
      4 H         -63.7199  -39.9161  -20.5384 H       1  UNL1        0.1501
      5 C         -62.1464  -41.8680  -21.6340 C.ar    1  UNL1        0.0808
      6 C         -63.2606  -41.8524  -22.4884 C.ar    1  UNL1        0.0080
      7 C         -63.1294  -42.1994  -23.8351 C.ar    1  UNL1        0.0148
      8 C         -61.8776  -42.5619  -24.3620 C.ar    1  UNL1        0.0502
      9 C         -60.7586  -42.5560  -23.5111 C.ar    1  UNL1        0.0443
     10 C         -60.8871  -42.2111  -22.1620 C.ar    1  UNL1        0.1457
     11 F         -59.7706  -42.1697  -21.3914 F       1  UNL1       -0.2040
     12 N         -61.7392  -42.9164  -25.7562 N.pl3   1  UNL1       -0.3040
     13 C         -62.3586  -42.0688  -26.7870 C.3     1  UNL1        0.1123
     14 C         -62.5040  -42.8124  -28.1182 C.3     1  UNL1        0.1136
     15 N         -61.2270  -43.4270  -28.5082 N.pl3   1  UNL1       -0.2897
     16 C         -60.3660  -44.0350  -27.4797 C.3     1  UNL1        0.1136
     17 C         -61.0934  -44.1802  -26.1385 C.3     1  UNL1        0.1123
     18 C         -60.8940  -43.5540  -29.9094 C.ar    1  UNL1        0.1322
     19 C         -61.8474  -43.3176  -30.9126 C.ar    1  UNL1        0.0401
     20 C         -61.4942  -43.4473  -32.2589 C.ar    1  UNL1        0.0383
     21 I         -63.0114  -43.0701  -33.6970 I       1  UNL1       -0.0424
     22 C         -60.1778  -43.8181  -32.6086 C.ar    1  UNL1        0.0960
     23 C         -59.2577  -44.0502  -31.5710 C.ar    1  UNL1        0.1046
     24 N         -59.6331  -43.9148  -30.2731 N.ar    1  UNL1       -0.2292
     25 C         -59.7619  -43.9678  -34.0556 C.3     1  UNL1        0.4204
     26 F         -59.0359  -42.8745  -34.4964 F       1  UNL1       -0.1658
     27 F         -58.9743  -45.0955  -34.1993 F       1  UNL1       -0.1658
     28 F         -60.8853  -44.0894  -34.8529 F       1  UNL1       -0.1658
     29 C         -63.5444  -40.2215  -18.3964 C.3     1  UNL1        0.1535
     30 C         -63.8075  -38.7468  -18.2278 C.2     1  UNL1        0.2443
     31 O         -63.0373  -38.0588  -17.5036 O.2     1  UNL1       -0.2730
     32 N         -64.8594  -38.1197  -18.9806 N.am    1  UNL1       -0.2825
     33 H         -65.3800  -38.7095  -19.6689 H       1  UNL1        0.1549
     34 C         -65.0564  -36.6983  -19.0435 C.ar    1  UNL1        0.0535
     35 C         -64.0512  -35.7993  -18.6523 C.ar    1  UNL1        0.0353
     36 C         -64.2909  -34.4248  -18.7274 C.ar    1  UNL1        0.1002
     37 N         -65.4931  -33.9642  -19.1643 N.ar    1  UNL1       -0.2422
     38 C         -66.4898  -34.8125  -19.5314 C.ar    1  UNL1        0.1002
     39 C         -66.2930  -36.1934  -19.4673 C.ar    1  UNL1        0.0353
     40 C         -64.7399  -41.0495  -17.8874 C.3     1  UNL1        0.0569
     41 C         -65.4392  -41.7628  -19.0111 C.ar    1  UNL1       -0.0017
     42 C         -66.2456  -41.1768  -19.9822 C.ar    1  UNL1        0.0681
     43 N         -66.5983  -42.0883  -20.9172 N.ar    1  UNL1       -0.3523
     44 C         -66.0101  -43.2410  -20.5534 C.ar    1  UNL1        0.0563
     45 C         -66.0421  -44.4567  -21.2353 C.ar    1  UNL1        0.0170
     46 C         -65.3103  -45.5316  -20.6985 C.ar    1  UNL1        0.0015
     47 C         -64.5692  -45.3685  -19.5075 C.ar    1  UNL1        0.0001
     48 C         -64.5541  -44.1299  -18.8413 C.ar    1  UNL1        0.0012
     49 C         -65.2923  -43.0828  -19.3955 C.ar    1  UNL1        0.0131
     50 H         -67.1837  -41.9189  -21.7651 H       1  UNL1        0.1660
@<TRIPOS>BOND
     1     1     2    2
     2     2     3   am
     3     3    29    1
     4    29    40    1
     5    40    41    1
     6    41    42   ar
     7    42    43   ar
     8    43    44   ar
     9    44    45   ar
    10    45    46   ar
    11    46    47   ar
    12    47    48   ar
    13    48    49   ar
    14    29    30    1
    15    30    31    2
    16    30    32   am
    17    32    34    1
    18    34    35   ar
    19    35    36   ar
    20    36    37   ar
    21    37    38   ar
    22    38    39   ar
    23     2     5    1
    24     5     6   ar
    25     6     7   ar
    26     7     8   ar
    27     8    12    1
    28    12    13    1
    29    13    14    1
    30    14    15    1
    31    15    18    1
    32    18    19   ar
    33    19    20   ar
    34    20    21    1
    35    20    22   ar
    36    22    25    1
    37    25    26    1
    38    25    27    1
    39    25    28    1
    40    22    23   ar
    41    23    24   ar
    42    15    16    1
    43    16    17    1
    44     8     9   ar
    45     9    10   ar
    46    10    11    1
    47    49    41   ar
    48    39    34   ar
    49    10     5   ar
    50    49    44   ar
    51    17    12    1
    52    24    18   ar
    53     3     4    1
    54    43    50    1
    55    32    33    1
@<TRIPOS>MOLECULE
*****
 50 55 0 0 0
SMALL
GASTEIGER

@<TRIPOS>ATOM
      1 O         -61.2070  -47.9741  -25.1063 O.2     1  UNL1       -0.2701
      2 C         -62.2014  -47.2214  -25.2980 C.2     1  UNL1        0.2483
      3 N         -63.1827  -47.5749  -26.2858 N.am    1  UNL1       -0.2945
      4 H         -64.1098  -47.0923  -26.2686 H       1  UNL1        0.1501
      5 C         -62.3569  -46.0018  -24.4730 C.ar    1  UNL1        0.0808
      6 C         -62.4041  -46.1129  -23.0741 C.ar    1  UNL1        0.0080
      7 C         -62.5556  -44.9773  -22.2749 C.ar    1  UNL1        0.0148
      8 C         -62.6544  -43.7011  -22.8561 C.ar    1  UNL1        0.0502
      9 C         -62.5848  -43.5885  -24.2557 C.ar    1  UNL1        0.0443
     10 C         -62.4353  -44.7237  -25.0585 C.ar    1  UNL1        0.1457
     11 F         -62.3212  -44.5611  -26.4011 F       1  UNL1       -0.2040
     12 N         -62.8061  -42.5247  -22.0305 N.pl3   1  UNL1       -0.3040
     13 C         -61.9339  -41.3613  -22.2550 C.3     1  UNL1        0.1123
     14 C         -61.9166  -40.4252  -21.0426 C.3     1  UNL1        0.1136
     15 N         -63.2870  -40.0990  -20.6229 N.pl3   1  UNL1       -0.2897
     16 C         -64.3297  -41.1382  -20.6654 C.3     1  UNL1        0.1136
     17 C         -63.7372  -42.5332  -20.8932 C.3     1  UNL1        0.1123
     18 C         -63.5669  -38.8054  -20.0412 C.ar    1  UNL1        0.1322
     19 C         -62.8312  -37.6655  -20.4030 C.ar    1  UNL1        0.0401
     20 C         -63.1269  -36.4282  -19.8237 C.ar    1  UNL1        0.0383
     21 I         -61.9528  -34.7679  -20.4380 I       1  UNL1       -0.0424
     22 C         -64.1652  -36.3264  -18.8727 C.ar    1  UNL1        0.0960
     23 C         -64.8718  -37.4945  -18.5366 C.ar    1  UNL1        0.1046
     24 N         -64.5597  -38.6810  -19.1185 N.ar    1  UNL1       -0.2292
     25 C         -64.5113  -35.0031  -18.2261 C.3     1  UNL1        0.4204
     26 F         -65.2152  -35.1769  -17.0467 F       1  UNL1       -0.1658
     27 F         -63.3509  -34.3081  -17.9380 F       1  UNL1       -0.1658
     28 F         -65.2917  -34.2537  -19.0876 F       1  UNL1       -0.1658
     29 C         -62.9998  -48.7161  -27.1871 C.3     1  UNL1        0.1535
     30 C         -63.4808  -49.9791  -26.5195 C.2     1  UNL1        0.2443
     31 O         -63.9019  -50.9333  -27.2290 O.2     1  UNL1       -0.2730
     32 N         -63.3490  -50.1277  -25.0958 N.am    1  UNL1       -0.2825
     33 H         -62.8685  -49.3616  -24.5716 H       1  UNL1        0.1549
     34 C         -63.5874  -51.3600  -24.3974 C.ar    1  UNL1        0.0535
     35 C         -64.7903  -52.0686  -24.5475 C.ar    1  UNL1        0.0353
     36 C         -64.9781  -53.2611  -23.8439 C.ar    1  UNL1        0.1002
     37 N         -64.0073  -53.7231  -23.0118 N.ar    1  UNL1       -0.2422
     38 C         -62.8413  -53.0475  -22.8340 C.ar    1  UNL1        0.1002
     39 C         -62.6154  -51.8495  -23.5147 C.ar    1  UNL1        0.0353
     40 C         -63.7572  -48.4755  -28.5070 C.3     1  UNL1        0.0569
     41 C         -63.4792  -47.1071  -29.0645 C.ar    1  UNL1       -0.0017
     42 C         -64.4225  -46.2171  -29.5696 C.ar    1  UNL1        0.0681
     43 N         -63.8448  -45.0284  -29.8569 N.ar    1  UNL1       -0.3523
     44 C         -62.5486  -45.1546  -29.5242 C.ar    1  UNL1        0.0563
     45 C         -61.5599  -44.1741  -29.5945 C.ar    1  UNL1        0.0170
     46 C         -60.2690  -44.5079  -29.1457 C.ar    1  UNL1        0.0015
     47 C         -59.9990  -45.7986  -28.6401 C.ar    1  UNL1        0.0001
     48 C         -61.0164  -46.7678  -28.5798 C.ar    1  UNL1        0.0012
     49 C         -62.2862  -46.4088  -29.0353 C.ar    1  UNL1        0.0131
     50 H         -64.3199  -44.1775  -30.2319 H       1  UNL1        0.1660
@<TRIPOS>BOND
     1     1     2    2
     2     2     3   am
     3     3    29    1
     4    29    40    1
     5    40    41    1
     6    41    42   ar
     7    42    43   ar
     8    43    44   ar
     9    44    45   ar
    10    45    46   ar
    11    46    47   ar
    12    47    48   ar
    13    48    49   ar
    14    29    30    1
    15    30    31    2
    16    30    32   am
    17    32    34    1
    18    34    35   ar
    19    35    36   ar
    20    36    37   ar
    21    37    38   ar
    22    38    39   ar
    23     2     5    1
    24     5     6   ar
    25     6     7   ar
    26     7     8   ar
    27     8    12    1
    28    12    13    1
    29    13    14    1
    30    14    15    1
    31    15    18    1
    32    18    19   ar
    33    19    20   ar
    34    20    21    1
    35    20    22   ar
    36    22    25    1
    37    25    26    1
    38    25    27    1
    39    25    28    1
    40    22    23   ar
    41    23    24   ar
    42    15    16    1
    43    16    17    1
    44     8     9   ar
    45     9    10   ar
    46    10    11    1
    47    49    41   ar
    48    39    34   ar
    49    10     5   ar
    50    49    44   ar
    51    17    12    1
    52    24    18   ar
    53     3     4    1
    54    43    50    1
    55    32    33    1
@<TRIPOS>MOLECULE
*****
 50 55 0 0 0
SMALL
GASTEIGER

@<TRIPOS>ATOM
      1 O         -61.2342  -48.1124  -25.0581 O.2     1  UNL1       -0.2701
      2 C         -62.2048  -47.3356  -25.2742 C.2     1  UNL1        0.2483
      3 N         -63.1794  -47.6741  -26.2738 N.am    1  UNL1       -0.2945
      4 H         -64.0933  -47.1667  -26.2771 H       1  UNL1        0.1501
      5 C         -62.3405  -46.1028  -24.4656 C.ar    1  UNL1        0.0808
      6 C         -62.6212  -46.2016  -23.0933 C.ar    1  UNL1        0.0080
      7 C         -62.7590  -45.0528  -22.3107 C.ar    1  UNL1        0.0148
      8 C         -62.6102  -43.7764  -22.8808 C.ar    1  UNL1        0.0502
      9 C         -62.3074  -43.6788  -24.2501 C.ar    1  UNL1        0.0443
     10 C         -62.1709  -44.8270  -25.0366 C.ar    1  UNL1        0.1457
     11 F         -61.8274  -44.6849  -26.3419 F       1  UNL1       -0.2040
     12 N         -62.7476  -42.5870  -22.0716 N.pl3   1  UNL1       -0.3040
     13 C         -61.9295  -41.4024  -22.3752 C.3     1  UNL1        0.1123
     14 C         -61.8660  -40.4391  -21.1860 C.3     1  UNL1        0.1136
     15 N         -63.2170  -40.1462  -20.6863 N.pl3   1  UNL1       -0.2897
     16 C         -64.2260  -41.2180  -20.6407 C.3     1  UNL1        0.1136
     17 C         -63.6041  -42.5987  -20.8771 C.3     1  UNL1        0.1123
     18 C         -63.5014  -38.8491  -20.1147 C.ar    1  UNL1        0.1322
     19 C         -62.7696  -37.7095  -20.4851 C.ar    1  UNL1        0.0401
     20 C         -63.0695  -36.4688  -19.9154 C.ar    1  UNL1        0.0383
     21 I         -61.9010  -34.8093  -20.5424 I       1  UNL1       -0.0424
     22 C         -64.1083  -36.3632  -18.9655 C.ar    1  UNL1        0.0960
     23 C         -64.8110  -37.5311  -18.6204 C.ar    1  UNL1        0.1046
     24 N         -64.4948  -38.7210  -19.1931 N.ar    1  UNL1       -0.2292
     25 C         -64.4591  -35.0361  -18.3292 C.3     1  UNL1        0.4204
     26 F         -65.1739  -35.2030  -17.1553 F       1  UNL1       -0.1658
     27 F         -63.3006  -34.3407  -18.0341 F       1  UNL1       -0.1658
     28 F         -65.2308  -34.2907  -19.2017 F       1  UNL1       -0.1658
     29 C         -63.0130  -48.8302  -27.1593 C.3     1  UNL1        0.1535
     30 C         -63.3576  -50.0972  -26.4188 C.2     1  UNL1        0.2443
     31 O         -63.8073  -51.0865  -27.0593 O.2     1  UNL1       -0.2730
     32 N         -63.0647  -50.2050  -25.0156 N.am    1  UNL1       -0.2825
     33 H         -62.5671  -49.4054  -24.5621 H       1  UNL1        0.1549
     34 C         -63.1665  -51.4295  -24.2717 C.ar    1  UNL1        0.0535
     35 C         -64.3346  -52.2083  -24.2951 C.ar    1  UNL1        0.0353
     36 C         -64.3880  -53.3901  -23.5516 C.ar    1  UNL1        0.1002
     37 N         -63.3205  -53.7744  -22.8026 N.ar    1  UNL1       -0.2422
     38 C         -62.1846  -53.0298  -22.7474 C.ar    1  UNL1        0.1002
     39 C         -62.0916  -51.8398  -23.4718 C.ar    1  UNL1        0.0353
     40 C         -63.8994  -48.6720  -28.4095 C.3     1  UNL1        0.0569
     41 C         -63.8312  -47.2765  -28.9648 C.ar    1  UNL1       -0.0017
     42 C         -62.9983  -46.2538  -28.5206 C.ar    1  UNL1        0.0681
     43 N         -63.0980  -45.1765  -29.3322 N.ar    1  UNL1       -0.3523
     44 C         -63.9751  -45.5145  -30.2931 C.ar    1  UNL1        0.0563
     45 C         -64.3660  -44.7446  -31.3878 C.ar    1  UNL1        0.0170
     46 C         -65.2658  -45.3156  -32.3061 C.ar    1  UNL1        0.0015
     47 C         -65.7472  -46.6292  -32.1135 C.ar    1  UNL1        0.0001
     48 C         -65.3347  -47.3835  -31.0004 C.ar    1  UNL1        0.0012
     49 C         -64.4441  -46.7894  -30.1045 C.ar    1  UNL1        0.0131
     50 H         -62.5742  -44.2774  -29.2441 H       1  UNL1        0.1660
@<TRIPOS>BOND
     1     1     2    2
     2     2     3   am
     3     3    29    1
     4    29    40    1
     5    40    41    1
     6    41    42   ar
     7    42    43   ar
     8    43    44   ar
     9    44    45   ar
    10    45    46   ar
    11    46    47   ar
    12    47    48   ar
    13    48    49   ar
    14    29    30    1
    15    30    31    2
    16    30    32   am
    17    32    34    1
    18    34    35   ar
    19    35    36   ar
    20    36    37   ar
    21    37    38   ar
    22    38    39   ar
    23     2     5    1
    24     5     6   ar
    25     6     7   ar
    26     7     8   ar
    27     8    12    1
    28    12    13    1
    29    13    14    1
    30    14    15    1
    31    15    18    1
    32    18    19   ar
    33    19    20   ar
    34    20    21    1
    35    20    22   ar
    36    22    25    1
    37    25    26    1
    38    25    27    1
    39    25    28    1
    40    22    23   ar
    41    23    24   ar
    42    15    16    1
    43    16    17    1
    44     8     9   ar
    45     9    10   ar
    46    10    11    1
    47    49    41   ar
    48    39    34   ar
    49    10     5   ar
    50    49    44   ar
    51    17    12    1
    52    24    18   ar
    53     3     4    1
    54    43    50    1
    55    32    33    1
@<TRIPOS>MOLECULE
*****
 50 55 0 0 0
SMALL
GASTEIGER

@<TRIPOS>ATOM
      1 O         -60.9379  -47.1945  -25.1759 O.2     1  UNL1       -0.2701
      2 C         -61.7973  -46.3622  -25.5767 C.2     1  UNL1        0.2483
      3 N         -62.4380  -46.5557  -26.8478 N.am    1  UNL1       -0.2945
      4 H         -63.3074  -46.0156  -27.0601 H       1  UNL1        0.1501
      5 C         -62.1562  -45.2166  -24.7101 C.ar    1  UNL1        0.0808
      6 C         -62.0421  -45.3399  -23.3160 C.ar    1  UNL1        0.0080
      7 C         -62.3798  -44.2749  -22.4776 C.ar    1  UNL1        0.0148
      8 C         -62.8315  -43.0567  -23.0145 C.ar    1  UNL1        0.0502
      9 C         -62.9244  -42.9266  -24.4112 C.ar    1  UNL1        0.0443
     10 C         -62.5891  -43.9917  -25.2531 C.ar    1  UNL1        0.1457
     11 F         -62.6453  -43.8027  -26.5959 F       1  UNL1       -0.2040
     12 N         -63.1765  -41.9523  -22.1487 N.pl3   1  UNL1       -0.3040
     13 C         -62.1783  -40.9083  -21.8688 C.3     1  UNL1        0.1123
     14 C         -62.5401  -40.1004  -20.6187 C.3     1  UNL1        0.1136
     15 N         -63.9285  -39.6238  -20.6962 N.pl3   1  UNL1       -0.2897
     16 C         -64.9684  -40.4965  -21.2671 C.3     1  UNL1        0.1136
     17 C         -64.4702  -41.9342  -21.4511 C.3     1  UNL1        0.1123
     18 C         -64.2859  -38.3630  -20.0855 C.ar    1  UNL1        0.1322
     19 C         -63.3071  -37.4343  -19.6972 C.ar    1  UNL1        0.0401
     20 C         -63.6846  -36.2231  -19.1104 C.ar    1  UNL1        0.0383
     21 I         -62.1262  -34.8897  -18.5574 I       1  UNL1       -0.0424
     22 C         -65.0515  -35.9355  -18.9068 C.ar    1  UNL1        0.0960
     23 C         -65.9968  -36.8968  -19.3060 C.ar    1  UNL1        0.1046
     24 N         -65.5965  -38.0634  -19.8739 N.ar    1  UNL1       -0.2292
     25 C         -65.4949  -34.6346  -18.2743 C.3     1  UNL1        0.4204
     26 F         -66.8430  -34.3966  -18.4814 F       1  UNL1       -0.1658
     27 F         -65.2688  -34.6792  -16.9107 F       1  UNL1       -0.1658
     28 F         -64.7823  -33.5836  -18.8223 F       1  UNL1       -0.1658
     29 C         -62.0267  -47.6182  -27.7699 C.3     1  UNL1        0.1535
     30 C         -63.2269  -48.1427  -28.5162 C.2     1  UNL1        0.2443
     31 O         -64.0402  -48.9042  -27.9247 O.2     1  UNL1       -0.2730
     32 N         -63.4938  -47.6816  -29.8513 N.am    1  UNL1       -0.2825
     33 H         -62.8630  -46.9468  -30.2447 H       1  UNL1        0.1549
     34 C         -64.7090  -47.9624  -30.5637 C.ar    1  UNL1        0.0535
     35 C         -65.5149  -49.0644  -30.2357 C.ar    1  UNL1        0.0353
     36 C         -66.6864  -49.2993  -30.9603 C.ar    1  UNL1        0.1002
     37 N         -67.0344  -48.4730  -31.9822 N.ar    1  UNL1       -0.2422
     38 C         -66.2629  -47.4100  -32.3326 C.ar    1  UNL1        0.1002
     39 C         -65.0821  -47.1425  -31.6371 C.ar    1  UNL1        0.0353
     40 C         -60.9651  -47.0862  -28.7515 C.3     1  UNL1        0.0569
     41 C         -60.8811  -45.5854  -28.7180 C.ar    1  UNL1       -0.0017
     42 C         -59.9380  -44.8292  -28.0285 C.ar    1  UNL1        0.0681
     43 N         -60.0719  -43.5174  -28.3295 N.ar    1  UNL1       -0.3523
     44 C         -61.0813  -43.4398  -29.2139 C.ar    1  UNL1        0.0563
     45 C         -61.5578  -42.2957  -29.8524 C.ar    1  UNL1        0.0170
     46 C         -62.5987  -42.4487  -30.7864 C.ar    1  UNL1        0.0015
     47 C         -63.1321  -43.7273  -31.0600 C.ar    1  UNL1        0.0001
     48 C         -62.6309  -44.8646  -30.4015 C.ar    1  UNL1        0.0012
     49 C         -61.6005  -44.6815  -29.4777 C.ar    1  UNL1        0.0131
     50 H         -59.4870  -42.7310  -27.9693 H       1  UNL1        0.1660
@<TRIPOS>BOND
     1     1     2    2
     2     2     3   am
     3     3    29    1
     4    29    40    1
     5    40    41    1
     6    41    42   ar
     7    42    43   ar
     8    43    44   ar
     9    44    45   ar
    10    45    46   ar
    11    46    47   ar
    12    47    48   ar
    13    48    49   ar
    14    29    30    1
    15    30    31    2
    16    30    32   am
    17    32    34    1
    18    34    35   ar
    19    35    36   ar
    20    36    37   ar
    21    37    38   ar
    22    38    39   ar
    23     2     5    1
    24     5     6   ar
    25     6     7   ar
    26     7     8   ar
    27     8    12    1
    28    12    13    1
    29    13    14    1
    30    14    15    1
    31    15    18    1
    32    18    19   ar
    33    19    20   ar
    34    20    21    1
    35    20    22   ar
    36    22    25    1
    37    25    26    1
    38    25    27    1
    39    25    28    1
    40    22    23   ar
    41    23    24   ar
    42    15    16    1
    43    16    17    1
    44     8     9   ar
    45     9    10   ar
    46    10    11    1
    47    49    41   ar
    48    39    34   ar
    49    10     5   ar
    50    49    44   ar
    51    17    12    1
    52    24    18   ar
    53     3     4    1
    54    43    50    1
    55    32    33    1
@<TRIPOS>MOLECULE
*****
 50 55 0 0 0
SMALL
GASTEIGER

@<TRIPOS>ATOM
      1 O         -60.3672  -46.1014  -25.5666 O.2     1  UNL1       -0.2701
      2 C         -61.5325  -45.6217  -25.6284 C.2     1  UNL1        0.2483
      3 N         -62.4597  -46.1256  -26.6032 N.am    1  UNL1       -0.2945
      4 H         -63.4757  -45.9073  -26.4905 H       1  UNL1        0.1501
      5 C         -61.9350  -44.5692  -24.6680 C.ar    1  UNL1        0.0808
      6 C         -62.1986  -43.2708  -25.1331 C.ar    1  UNL1        0.0080
      7 C         -62.5747  -42.2597  -24.2457 C.ar    1  UNL1        0.0148
      8 C         -62.7050  -42.5257  -22.8714 C.ar    1  UNL1        0.0502
      9 C         -62.4624  -43.8311  -22.4096 C.ar    1  UNL1        0.0443
     10 C         -62.0838  -44.8449  -23.2953 C.ar    1  UNL1        0.1457
     11 F         -61.9104  -46.1010  -22.8113 F       1  UNL1       -0.2040
     12 N         -63.0988  -41.4821  -21.9526 N.pl3   1  UNL1       -0.3040
     13 C         -62.0955  -40.5188  -21.4730 C.3     1  UNL1        0.1123
     14 C         -62.5620  -39.8019  -20.2023 C.3     1  UNL1        0.1136
     15 N         -63.9113  -39.2489  -20.3875 N.pl3   1  UNL1       -0.2897
     16 C         -64.9158  -40.0149  -21.1444 C.3     1  UNL1        0.1136
     17 C         -64.4612  -41.4558  -21.4014 C.3     1  UNL1        0.1123
     18 C         -64.2819  -38.0274  -19.7086 C.ar    1  UNL1        0.1322
     19 C         -65.5248  -37.4138  -19.9324 C.ar    1  UNL1        0.0401
     20 C         -65.8545  -36.2338  -19.2595 C.ar    1  UNL1        0.0383
     21 I         -67.7578  -35.3854  -19.6717 I       1  UNL1       -0.0424
     22 C         -64.9352  -35.6586  -18.3557 C.ar    1  UNL1        0.0960
     23 C         -63.7006  -36.3043  -18.1667 C.ar    1  UNL1        0.1046
     24 N         -63.4118  -37.4500  -18.8358 N.ar    1  UNL1       -0.2292
     25 C         -65.2597  -34.3821  -17.6111 C.3     1  UNL1        0.4204
     26 F         -66.5917  -34.0313  -17.7504 F       1  UNL1       -0.1658
     27 F         -64.9959  -34.5493  -16.2638 F       1  UNL1       -0.1658
     28 F         -64.4871  -33.3463  -18.1037 F       1  UNL1       -0.1658
     29 C         -62.0565  -47.0884  -27.6320 C.3     1  UNL1        0.1535
     30 C         -61.1113  -46.4324  -28.6061 C.2     1  UNL1        0.2443
     31 O         -59.9338  -46.8709  -28.7178 O.2     1  UNL1       -0.2730
     32 N         -61.5915  -45.3935  -29.4758 N.am    1  UNL1       -0.2825
     33 H         -62.6100  -45.1617  -29.4366 H       1  UNL1        0.1549
     34 C         -60.8304  -44.8522  -30.5670 C.ar    1  UNL1        0.0535
     35 C         -59.4444  -45.0534  -30.6672 C.ar    1  UNL1        0.0353
     36 C         -58.7459  -44.5035  -31.7451 C.ar    1  UNL1        0.1002
     37 N         -59.4034  -43.7693  -32.6816 N.ar    1  UNL1       -0.2422
     38 C         -60.7413  -43.5435  -32.5989 C.ar    1  UNL1        0.1002
     39 C         -61.4759  -44.0714  -31.5353 C.ar    1  UNL1        0.0353
     40 C         -61.3975  -48.3179  -26.9780 C.3     1  UNL1        0.0569
     41 C         -62.2629  -48.9010  -25.8956 C.ar    1  UNL1       -0.0017
     42 C         -63.6459  -49.0504  -25.9387 C.ar    1  UNL1        0.0681
     43 N         -64.0815  -49.7356  -24.8571 N.ar    1  UNL1       -0.3523
     44 C         -62.9850  -50.0330  -24.1386 C.ar    1  UNL1        0.0563
     45 C         -62.9239  -50.7753  -22.9600 C.ar    1  UNL1        0.0170
     46 C         -61.6569  -51.0109  -22.3957 C.ar    1  UNL1        0.0015
     47 C         -60.4926  -50.5072  -23.0162 C.ar    1  UNL1        0.0001
     48 C         -60.5841  -49.7624  -24.2058 C.ar    1  UNL1        0.0012
     49 C         -61.8546  -49.5418  -24.7404 C.ar    1  UNL1        0.0131
     50 H         -65.0677  -50.0040  -24.6433 H       1  UNL1        0.1660
@<TRIPOS>BOND
     1     1     2    2
     2     2     3   am
     3     3    29    1
     4    29    40    1
     5    40    41    1
     6    41    42   ar
     7    42    43   ar
     8    43    44   ar
     9    44    45   ar
    10    45    46   ar
    11    46    47   ar
    12    47    48   ar
    13    48    49   ar
    14    29    30    1
    15    30    31    2
    16    30    32   am
    17    32    34    1
    18    34    35   ar
    19    35    36   ar
    20    36    37   ar
    21    37    38   ar
    22    38    39   ar
    23     2     5    1
    24     5     6   ar
    25     6     7   ar
    26     7     8   ar
    27     8    12    1
    28    12    13    1
    29    13    14    1
    30    14    15    1
    31    15    18    1
    32    18    19   ar
    33    19    20   ar
    34    20    21    1
    35    20    22   ar
    36    22    25    1
    37    25    26    1
    38    25    27    1
    39    25    28    1
    40    22    23   ar
    41    23    24   ar
    42    15    16    1
    43    16    17    1
    44     8     9   ar
    45     9    10   ar
    46    10    11    1
    47    49    41   ar
    48    39    34   ar
    49    10     5   ar
    50    49    44   ar
    51    17    12    1
    52    24    18   ar
    53     3     4    1
    54    43    50    1
    55    32    33    1
@<TRIPOS>MOLECULE
*****
 50 55 0 0 0
SMALL
GASTEIGER

@<TRIPOS>ATOM
      1 O         -60.7040  -46.9981  -24.4636 O.2     1  UNL1       -0.2701
      2 C         -61.7619  -46.3432  -24.6732 C.2     1  UNL1        0.2483
      3 N         -62.7168  -46.8206  -25.6344 N.am    1  UNL1       -0.2945
      4 H         -63.6823  -46.4201  -25.6255 H       1  UNL1        0.1501
      5 C         -62.0163  -45.1090  -23.8959 C.ar    1  UNL1        0.0808
      6 C         -62.1526  -45.1848  -22.5004 C.ar    1  UNL1        0.0080
      7 C         -62.3983  -44.0351  -21.7460 C.ar    1  UNL1        0.0148
      8 C         -62.5047  -42.7795  -22.3692 C.ar    1  UNL1        0.0502
      9 C         -62.3462  -42.7013  -23.7638 C.ar    1  UNL1        0.0443
     10 C         -62.1022  -43.8508  -24.5220 C.ar    1  UNL1        0.1457
     11 F         -61.9050  -43.7195  -25.8583 F       1  UNL1       -0.2040
     12 N         -62.7539  -41.5884  -21.5897 N.pl3   1  UNL1       -0.3040
     13 C         -62.4552  -40.2673  -22.1645 C.3     1  UNL1        0.1123
     14 C         -62.3439  -39.1909  -21.0804 C.3     1  UNL1        0.1136
     15 N         -63.5153  -39.2289  -20.1932 N.pl3   1  UNL1       -0.2897
     16 C         -64.0961  -40.5260  -19.8071 C.3     1  UNL1        0.1136
     17 C         -63.1834  -41.6968  -20.1881 C.3     1  UNL1        0.1123
     18 C         -63.9993  -38.0042  -19.5966 C.ar    1  UNL1        0.1322
     19 C         -65.2845  -37.5122  -19.8752 C.ar    1  UNL1        0.0401
     20 C         -65.7242  -36.3256  -19.2814 C.ar    1  UNL1        0.0383
     21 I         -67.6834  -35.6674  -19.7718 I       1  UNL1       -0.0424
     22 C         -64.8734  -35.6212  -18.4024 C.ar    1  UNL1        0.0960
     23 C         -63.5931  -36.1478  -18.1566 C.ar    1  UNL1        0.1046
     24 N         -63.1971  -37.3035  -18.7493 N.ar    1  UNL1       -0.2292
     25 C         -65.3172  -34.3339  -17.7429 C.3     1  UNL1        0.4204
     26 F         -66.6187  -34.0057  -18.0823 F       1  UNL1       -0.1658
     27 F         -65.2502  -34.4680  -16.3681 F       1  UNL1       -0.1658
     28 F         -64.4931  -33.2977  -18.1424 F       1  UNL1       -0.1658
     29 C         -62.4425  -47.9774  -26.4915 C.3     1  UNL1        0.1535
     30 C         -62.7067  -49.2525  -25.7321 C.2     1  UNL1        0.2443
     31 O         -63.5782  -50.0586  -26.1587 O.2     1  UNL1       -0.2730
     32 N         -61.8883  -49.5906  -24.5998 N.am    1  UNL1       -0.2825
     33 H         -61.0918  -48.9536  -24.3708 H       1  UNL1        0.1549
     34 C         -61.9272  -50.8660  -23.9404 C.ar    1  UNL1        0.0535
     35 C         -63.1399  -51.5309  -23.6977 C.ar    1  UNL1        0.0353
     36 C         -63.1277  -52.7684  -23.0490 C.ar    1  UNL1        0.1002
     37 N         -61.9507  -53.3164  -22.6460 N.ar    1  UNL1       -0.2422
     38 C         -60.7643  -52.6857  -22.8516 C.ar    1  UNL1        0.1002
     39 C         -60.7325  -51.4454  -23.4923 C.ar    1  UNL1        0.0353
     40 C         -63.3093  -47.9117  -27.7636 C.3     1  UNL1        0.0569
     41 C         -63.2642  -46.5483  -28.3957 C.ar    1  UNL1       -0.0017
     42 C         -64.3561  -45.7262  -28.6578 C.ar    1  UNL1        0.0681
     43 N         -63.9423  -44.5177  -29.1023 N.ar    1  UNL1       -0.3523
     44 C         -62.5989  -44.5640  -29.1095 C.ar    1  UNL1        0.0563
     45 C         -61.7208  -43.5346  -29.4458 C.ar    1  UNL1        0.0170
     46 C         -60.3408  -43.7848  -29.3360 C.ar    1  UNL1        0.0015
     47 C         -59.8747  -45.0428  -28.8952 C.ar    1  UNL1        0.0001
     48 C         -60.7838  -46.0628  -28.5614 C.ar    1  UNL1        0.0012
     49 C         -62.1467  -45.7866  -28.6835 C.ar    1  UNL1        0.0131
     50 H         -64.5469  -43.7055  -29.3574 H       1  UNL1        0.1660
@<TRIPOS>BOND
     1     1     2    2
     2     2     3   am
     3     3    29    1
     4    29    40    1
     5    40    41    1
     6    41    42   ar
     7    42    43   ar
     8    43    44   ar
     9    44    45   ar
    10    45    46   ar
    11    46    47   ar
    12    47    48   ar
    13    48    49   ar
    14    29    30    1
    15    30    31    2
    16    30    32   am
    17    32    34    1
    18    34    35   ar
    19    35    36   ar
    20    36    37   ar
    21    37    38   ar
    22    38    39   ar
    23     2     5    1
    24     5     6   ar
    25     6     7   ar
    26     7     8   ar
    27     8    12    1
    28    12    13    1
    29    13    14    1
    30    14    15    1
    31    15    18    1
    32    18    19   ar
    33    19    20   ar
    34    20    21    1
    35    20    22   ar
    36    22    25    1
    37    25    26    1
    38    25    27    1
    39    25    28    1
    40    22    23   ar
    41    23    24   ar
    42    15    16    1
    43    16    17    1
    44     8     9   ar
    45     9    10   ar
    46    10    11    1
    47    49    41   ar
    48    39    34   ar
    49    10     5   ar
    50    49    44   ar
    51    17    12    1
    52    24    18   ar
    53     3     4    1
    54    43    50    1
    55    32    33    1
