@<TRIPOS>MOLECULE
*****
 28 30 0 0 0
SMALL
GASTEIGER

@<TRIPOS>ATOM
      1 C          46.4722   12.7872  -24.9649 C.ar    1  UNL1        0.3134
      2 N          47.2600   13.8761  -25.0583 N.ar    1  UNL1       -0.1854
      3 C          47.2637   14.3070  -23.7799 C.ar    1  UNL1        0.2051
      4 N          46.5127   13.5370  -22.9689 N.ar    1  UNL1       -0.0582
      5 O          46.0444   12.6038  -23.7398 O.2     1  UNL1       -0.3279
      6 O          44.9775   11.4018  -26.1465 O.2     1  UNL1       -0.2649
      7 C          46.1270   11.9163  -26.0954 C.2     1  UNL1        0.3025
      8 N          47.0848   11.6513  -27.1310 N.am    1  UNL1       -0.2930
      9 H          48.0497   12.0445  -27.0517 H       1  UNL1        0.1502
     10 C          46.7644   10.8428  -28.3052 C.3     1  UNL1        0.1168
     11 C          46.4112   11.7298  -29.4676 C.ar    1  UNL1        0.0005
     12 C          46.4591   11.2423  -30.7819 C.ar    1  UNL1        0.0181
     13 C          46.1052   12.0829  -31.8403 C.ar    1  UNL1        0.0986
     14 N          45.7139   13.3615  -31.5949 N.ar    1  UNL1       -0.2423
     15 C          45.6537   13.8581  -30.3307 C.ar    1  UNL1        0.0986
     16 C          45.9989   13.0513  -29.2436 C.ar    1  UNL1        0.0181
     17 C          47.9588   15.5492  -23.3297 C.3     1  UNL1        0.2245
     18 S          47.3781   16.9519  -24.2635 S.O2    1  UNL1        0.0163
     19 O          46.9192   18.0339  -23.3259 O.2     1  UNL1       -0.1682
     20 O          46.2209   16.5433  -25.1321 O.2     1  UNL1       -0.1682
     21 C          48.6893   17.5560  -25.2702 C.ar    1  UNL1        0.1092
     22 C          49.9982   17.0920  -25.0770 C.ar    1  UNL1        0.0186
     23 C          51.0362   17.5615  -25.8871 C.ar    1  UNL1        0.0044
     24 C          50.7719   18.4915  -26.8965 C.ar    1  UNL1        0.0367
     25 C          49.4642   18.9532  -27.1012 C.ar    1  UNL1        0.1350
     26 O          49.1864   19.8760  -28.1071 O.3     1  UNL1       -0.5055
     27 C          48.4257   18.4827  -26.2894 C.ar    1  UNL1        0.0550
     28 H          49.9157   20.2354  -28.7119 H       1  UNL1        0.2922
@<TRIPOS>BOND
     1     6     7    2
     2     7     8   am
     3     8    10    1
     4    10    11    1
     5    11    12   ar
     6    12    13   ar
     7    13    14   ar
     8    14    15   ar
     9    15    16   ar
    10     7     1    1
    11     1     2   ar
    12     2     3   ar
    13     3    17    1
    14    17    18    1
    15    18    19    2
    16    18    20    2
    17    18    21    1
    18    21    22   ar
    19    22    23   ar
    20    23    24   ar
    21    24    25   ar
    22    25    26    1
    23    25    27   ar
    24     3     4   ar
    25     4     5   ar
    26    16    11   ar
    27     5     1   ar
    28    27    21   ar
    29     8     9    1
    30    26    28    1
@<TRIPOS>MOLECULE
*****
 28 30 0 0 0
SMALL
GASTEIGER

@<TRIPOS>ATOM
      1 C          50.0971   10.5550  -26.1694 C.ar    1  UNL1        0.3134
      2 N          49.5521   11.6966  -26.6328 N.ar    1  UNL1       -0.1854
      3 C          48.7156   12.0158  -25.6236 C.ar    1  UNL1        0.2051
      4 N          48.7414   11.1157  -24.6218 N.ar    1  UNL1       -0.0582
      5 O          49.6132   10.2301  -24.9956 O.2     1  UNL1       -0.3279
      6 O          52.1289    9.3677  -26.2766 O.2     1  UNL1       -0.2649
      7 C          51.1030    9.7659  -26.8912 C.2     1  UNL1        0.3025
      8 N          50.9238    9.4504  -28.2800 N.am    1  UNL1       -0.2930
      9 H          50.0933    9.8275  -28.7897 H       1  UNL1        0.1502
     10 C          51.8667    8.6156  -29.0209 C.3     1  UNL1        0.1168
     11 C          51.1634    7.9106  -30.1484 C.ar    1  UNL1        0.0005
     12 C          51.8907    7.3577  -31.2128 C.ar    1  UNL1        0.0181
     13 C          51.2123    6.6902  -32.2355 C.ar    1  UNL1        0.0986
     14 N          49.8582    6.5753  -32.1947 N.ar    1  UNL1       -0.2423
     15 C          49.1293    7.0974  -31.1727 C.ar    1  UNL1        0.0986
     16 C          49.7680    7.7725  -30.1297 C.ar    1  UNL1        0.0181
     17 C          47.8009   13.1954  -25.6517 C.3     1  UNL1        0.2245
     18 S          46.1884   12.7097  -26.2354 S.O2    1  UNL1        0.0163
     19 O          45.2295   13.8598  -26.1002 O.2     1  UNL1       -0.1682
     20 O          45.6761   11.5557  -25.4191 O.2     1  UNL1       -0.1682
     21 C          46.3077   12.2324  -27.9253 C.ar    1  UNL1        0.1092
     22 C          46.5984   10.9033  -28.2640 C.ar    1  UNL1        0.0186
     23 C          46.6781   10.5224  -29.6067 C.ar    1  UNL1        0.0044
     24 C          46.4628   11.4644  -30.6167 C.ar    1  UNL1        0.0367
     25 C          46.1630   12.7931  -30.2854 C.ar    1  UNL1        0.1350
     26 O          45.9411   13.7405  -31.2822 O.3     1  UNL1       -0.5055
     27 C          46.0837   13.1735  -28.9408 C.ar    1  UNL1        0.0550
     28 H          45.9906   13.4969  -32.2646 H       1  UNL1        0.2922
@<TRIPOS>BOND
     1     6     7    2
     2     7     8   am
     3     8    10    1
     4    10    11    1
     5    11    12   ar
     6    12    13   ar
     7    13    14   ar
     8    14    15   ar
     9    15    16   ar
    10     7     1    1
    11     1     2   ar
    12     2     3   ar
    13     3    17    1
    14    17    18    1
    15    18    19    2
    16    18    20    2
    17    18    21    1
    18    21    22   ar
    19    22    23   ar
    20    23    24   ar
    21    24    25   ar
    22    25    26    1
    23    25    27   ar
    24     3     4   ar
    25     4     5   ar
    26    16    11   ar
    27     5     1   ar
    28    27    21   ar
    29     8     9    1
    30    26    28    1
@<TRIPOS>MOLECULE
*****
 28 30 0 0 0
SMALL
GASTEIGER

@<TRIPOS>ATOM
      1 C          50.1037    9.5155  -24.7533 C.ar    1  UNL1        0.3134
      2 N          50.6313    8.7294  -25.7118 N.ar    1  UNL1       -0.1854
      3 C          50.5037    9.5193  -26.7980 C.ar    1  UNL1        0.2051
      4 N          49.9212   10.7009  -26.5166 N.ar    1  UNL1       -0.0582
      5 O          49.6941   10.6615  -25.2395 O.2     1  UNL1       -0.3279
      6 O          50.7213    8.2086  -22.8932 O.2     1  UNL1       -0.2649
      7 C          49.9927    9.1352  -23.3396 C.2     1  UNL1        0.3025
      8 N          49.0665    9.8080  -22.4738 N.am    1  UNL1       -0.2930
      9 H          48.4343   10.5409  -22.8675 H       1  UNL1        0.1502
     10 C          48.9675    9.5061  -21.0476 C.3     1  UNL1        0.1168
     11 C          48.0799   10.5094  -20.3633 C.ar    1  UNL1        0.0005
     12 C          46.9075   10.9686  -20.9815 C.ar    1  UNL1        0.0181
     13 C          46.0914   11.8847  -20.3131 C.ar    1  UNL1        0.0986
     14 N          46.4312   12.3226  -19.0717 N.ar    1  UNL1       -0.2423
     15 C          47.5590   11.8902  -18.4476 C.ar    1  UNL1        0.0986
     16 C          48.4029   10.9742  -19.0803 C.ar    1  UNL1        0.0181
     17 C          50.8917    9.0964  -28.1763 C.3     1  UNL1        0.2245
     18 S          49.6000    8.1058  -28.9022 S.O2    1  UNL1        0.0163
     19 O          48.3745    8.9485  -29.1233 O.2     1  UNL1       -0.1682
     20 O          49.2463    6.9723  -27.9800 O.2     1  UNL1       -0.1682
     21 C          50.1633    7.4631  -30.4409 C.ar    1  UNL1        0.1092
     22 C          51.5185    7.5528  -30.7889 C.ar    1  UNL1        0.0186
     23 C          51.9672    7.0287  -32.0048 C.ar    1  UNL1        0.0044
     24 C          51.0670    6.4081  -32.8755 C.ar    1  UNL1        0.0367
     25 C          49.7121    6.3069  -32.5300 C.ar    1  UNL1        0.1350
     26 O          48.8056    5.6862  -33.3865 O.3     1  UNL1       -0.5055
     27 C          49.2640    6.8324  -31.3127 C.ar    1  UNL1        0.0550
     28 H          49.0985    5.2954  -34.2744 H       1  UNL1        0.2922
@<TRIPOS>BOND
     1     6     7    2
     2     7     8   am
     3     8    10    1
     4    10    11    1
     5    11    12   ar
     6    12    13   ar
     7    13    14   ar
     8    14    15   ar
     9    15    16   ar
    10     7     1    1
    11     1     2   ar
    12     2     3   ar
    13     3    17    1
    14    17    18    1
    15    18    19    2
    16    18    20    2
    17    18    21    1
    18    21    22   ar
    19    22    23   ar
    20    23    24   ar
    21    24    25   ar
    22    25    26    1
    23    25    27   ar
    24     3     4   ar
    25     4     5   ar
    26    16    11   ar
    27     5     1   ar
    28    27    21   ar
    29     8     9    1
    30    26    28    1
@<TRIPOS>MOLECULE
*****
 28 30 0 0 0
SMALL
GASTEIGER

@<TRIPOS>ATOM
      1 C          46.2613   12.3232  -23.6406 C.ar    1  UNL1        0.3134
      2 N          46.7248   11.0776  -23.4200 N.ar    1  UNL1       -0.1854
      3 C          47.0431   11.1448  -22.1107 C.ar    1  UNL1        0.2051
      4 N          46.8026   12.3585  -21.5782 N.ar    1  UNL1       -0.0582
      5 O          46.3138   13.0575  -22.5564 O.2     1  UNL1       -0.3279
      6 O          44.5496   13.1160  -25.0516 O.2     1  UNL1       -0.2649
      7 C          45.7653   12.8040  -24.9361 C.2     1  UNL1        0.3025
      8 N          46.6512   12.9181  -26.0597 N.am    1  UNL1       -0.2930
      9 H          47.6452   12.6103  -25.9638 H       1  UNL1        0.1502
     10 C          46.2160   13.4509  -27.3487 C.3     1  UNL1        0.1168
     11 C          46.3715   12.4088  -28.4222 C.ar    1  UNL1        0.0005
     12 C          46.7483   11.0970  -28.0987 C.ar    1  UNL1        0.0181
     13 C          46.8644   10.1447  -29.1144 C.ar    1  UNL1        0.0986
     14 N          46.6096   10.4887  -30.4048 N.ar    1  UNL1       -0.2423
     15 C          46.2381   11.7513  -30.7456 C.ar    1  UNL1        0.0986
     16 C          46.1099   12.7340  -29.7610 C.ar    1  UNL1        0.0181
     17 C          47.6701   10.0201  -21.3550 C.3     1  UNL1        0.2245
     18 S          49.4457   10.1716  -21.3875 S.O2    1  UNL1        0.0163
     19 O          50.0656    9.0806  -20.5593 O.2     1  UNL1       -0.1682
     20 O          49.8552   11.5015  -20.8181 O.2     1  UNL1       -0.1682
     21 C          50.0040   10.0431  -23.0517 C.ar    1  UNL1        0.1092
     22 C          50.2162    8.7832  -23.6291 C.ar    1  UNL1        0.0186
     23 C          50.6454    8.6823  -24.9558 C.ar    1  UNL1        0.0044
     24 C          50.8591    9.8374  -25.7132 C.ar    1  UNL1        0.0367
     25 C          50.6402   11.1002  -25.1452 C.ar    1  UNL1        0.1350
     26 O          50.8444   12.2590  -25.8908 O.3     1  UNL1       -0.5055
     27 C          50.2109   11.2001  -23.8168 C.ar    1  UNL1        0.0550
     28 H          51.1544   12.2206  -26.8548 H       1  UNL1        0.2922
@<TRIPOS>BOND
     1     6     7    2
     2     7     8   am
     3     8    10    1
     4    10    11    1
     5    11    12   ar
     6    12    13   ar
     7    13    14   ar
     8    14    15   ar
     9    15    16   ar
    10     7     1    1
    11     1     2   ar
    12     2     3   ar
    13     3    17    1
    14    17    18    1
    15    18    19    2
    16    18    20    2
    17    18    21    1
    18    21    22   ar
    19    22    23   ar
    20    23    24   ar
    21    24    25   ar
    22    25    26    1
    23    25    27   ar
    24     3     4   ar
    25     4     5   ar
    26    16    11   ar
    27     5     1   ar
    28    27    21   ar
    29     8     9    1
    30    26    28    1
@<TRIPOS>MOLECULE
*****
 28 30 0 0 0
SMALL
GASTEIGER

@<TRIPOS>ATOM
      1 C          48.8168   14.2086  -25.6686 C.ar    1  UNL1        0.3134
      2 N          49.3346   13.8611  -24.4744 N.ar    1  UNL1       -0.1854
      3 C          50.4922   14.5539  -24.4794 C.ar    1  UNL1        0.2051
      4 N          50.6702   15.2619  -25.6115 N.ar    1  UNL1       -0.0582
      5 O          49.6083   15.0257  -26.3193 O.2     1  UNL1       -0.3279
      6 O          46.5909   14.5500  -26.3602 O.2     1  UNL1       -0.2649
      7 C          47.5290   13.7270  -26.1837 C.2     1  UNL1        0.3025
      8 N          47.3372   12.3364  -26.4832 N.am    1  UNL1       -0.2930
      9 H          48.1066   11.6574  -26.2867 H       1  UNL1        0.1502
     10 C          46.0949   11.8234  -27.0564 C.3     1  UNL1        0.1168
     11 C          46.2633   11.5804  -28.5314 C.ar    1  UNL1        0.0005
     12 C          46.0098   12.6011  -29.4595 C.ar    1  UNL1        0.0181
     13 C          46.1951   12.3529  -30.8219 C.ar    1  UNL1        0.0986
     14 N          46.6218   11.1322  -31.2414 N.ar    1  UNL1       -0.2423
     15 C          46.8795   10.1269  -30.3632 C.ar    1  UNL1        0.0986
     16 C          46.7075   10.3327  -28.9922 C.ar    1  UNL1        0.0181
     17 C          51.5036   14.4790  -23.3838 C.3     1  UNL1        0.2245
     18 S          52.0284   12.7924  -23.1453 S.O2    1  UNL1        0.0163
     19 O          51.2055   12.1507  -22.0629 O.2     1  UNL1       -0.1682
     20 O          53.4745   12.7607  -22.7351 O.2     1  UNL1       -0.1682
     21 C          51.8211   11.9066  -24.6520 C.ar    1  UNL1        0.1092
     22 C          50.7663   10.9940  -24.7943 C.ar    1  UNL1        0.0186
     23 C          50.5939   10.3021  -25.9967 C.ar    1  UNL1        0.0044
     24 C          51.4696   10.5219  -27.0637 C.ar    1  UNL1        0.0367
     25 C          52.5211   11.4396  -26.9317 C.ar    1  UNL1        0.1350
     26 O          53.3977   11.6718  -27.9892 O.3     1  UNL1       -0.5055
     27 C          52.6930   12.1315  -25.7273 C.ar    1  UNL1        0.0550
     28 H          53.2999   11.1876  -28.8740 H       1  UNL1        0.2922
@<TRIPOS>BOND
     1     6     7    2
     2     7     8   am
     3     8    10    1
     4    10    11    1
     5    11    12   ar
     6    12    13   ar
     7    13    14   ar
     8    14    15   ar
     9    15    16   ar
    10     7     1    1
    11     1     2   ar
    12     2     3   ar
    13     3    17    1
    14    17    18    1
    15    18    19    2
    16    18    20    2
    17    18    21    1
    18    21    22   ar
    19    22    23   ar
    20    23    24   ar
    21    24    25   ar
    22    25    26    1
    23    25    27   ar
    24     3     4   ar
    25     4     5   ar
    26    16    11   ar
    27     5     1   ar
    28    27    21   ar
    29     8     9    1
    30    26    28    1
@<TRIPOS>MOLECULE
*****
 28 30 0 0 0
SMALL
GASTEIGER

@<TRIPOS>ATOM
      1 C          48.0746   11.3235  -23.8901 C.ar    1  UNL1        0.3134
      2 N          47.8191   10.5722  -22.8015 N.ar    1  UNL1       -0.1854
      3 C          49.0688   10.2773  -22.3876 C.ar    1  UNL1        0.2051
      4 N          50.0187   10.8033  -23.1849 N.ar    1  UNL1       -0.0582
      5 O          49.3622   11.4483  -24.0999 O.2     1  UNL1       -0.3279
      6 O          45.9233   12.2177  -24.2393 O.2     1  UNL1       -0.2649
      7 C          47.0407   11.9232  -24.7428 C.2     1  UNL1        0.3025
      8 N          47.2957   12.1718  -26.1333 N.am    1  UNL1       -0.2930
      9 H          48.2083   11.8784  -26.5489 H       1  UNL1        0.1502
     10 C          46.3198   12.8239  -27.0035 C.3     1  UNL1        0.1168
     11 C          46.3622   12.2177  -28.3796 C.ar    1  UNL1        0.0005
     12 C          46.7235   10.8744  -28.5603 C.ar    1  UNL1        0.0181
     13 C          46.7337   10.3326  -29.8481 C.ar    1  UNL1        0.0986
     14 N          46.3918   11.1025  -30.9152 N.ar    1  UNL1       -0.2423
     15 C          46.0330   12.4055  -30.7680 C.ar    1  UNL1        0.0986
     16 C          46.0093   12.9867  -29.4979 C.ar    1  UNL1        0.0181
     17 C          49.3651    9.3958  -21.2197 C.3     1  UNL1        0.2245
     18 S          49.2546   10.3260  -19.7033 S.O2    1  UNL1        0.0163
     19 O          50.0166    9.6206  -18.6159 O.2     1  UNL1       -0.1682
     20 O          47.8163   10.4487  -19.2832 O.2     1  UNL1       -0.1682
     21 C          49.9349   11.9288  -19.9604 C.ar    1  UNL1        0.1092
     22 C          49.1503   12.9463  -20.5215 C.ar    1  UNL1        0.0186
     23 C          49.6872   14.2230  -20.7114 C.ar    1  UNL1        0.0044
     24 C          51.0070   14.4912  -20.3373 C.ar    1  UNL1        0.0367
     25 C          51.7945   13.4811  -19.7674 C.ar    1  UNL1        0.1350
     26 O          53.1095   13.7366  -19.3854 O.3     1  UNL1       -0.5055
     27 C          51.2560   12.2031  -19.5781 C.ar    1  UNL1        0.0550
     28 H          53.5284   14.6511  -19.5087 H       1  UNL1        0.2922
@<TRIPOS>BOND
     1     6     7    2
     2     7     8   am
     3     8    10    1
     4    10    11    1
     5    11    12   ar
     6    12    13   ar
     7    13    14   ar
     8    14    15   ar
     9    15    16   ar
    10     7     1    1
    11     1     2   ar
    12     2     3   ar
    13     3    17    1
    14    17    18    1
    15    18    19    2
    16    18    20    2
    17    18    21    1
    18    21    22   ar
    19    22    23   ar
    20    23    24   ar
    21    24    25   ar
    22    25    26    1
    23    25    27   ar
    24     3     4   ar
    25     4     5   ar
    26    16    11   ar
    27     5     1   ar
    28    27    21   ar
    29     8     9    1
    30    26    28    1
@<TRIPOS>MOLECULE
*****
 28 30 0 0 0
SMALL
GASTEIGER

@<TRIPOS>ATOM
      1 C          49.6322   14.0058  -21.8964 C.ar    1  UNL1        0.3134
      2 N          49.5437   13.8395  -20.5625 N.ar    1  UNL1       -0.1854
      3 C          50.5839   13.0118  -20.3322 C.ar    1  UNL1        0.2051
      4 N          51.2486   12.6858  -21.4576 N.ar    1  UNL1       -0.0582
      5 O          50.6316   13.3260  -22.4030 O.2     1  UNL1       -0.3279
      6 O          47.5053   14.5094  -22.7751 O.2     1  UNL1       -0.2649
      7 C          48.7189   14.8387  -22.6887 C.2     1  UNL1        0.3025
      8 N          49.1990   16.0139  -23.3585 N.am    1  UNL1       -0.2930
      9 H          50.2164   16.2487  -23.3189 H       1  UNL1        0.1502
     10 C          48.3144   16.9058  -24.1049 C.3     1  UNL1        0.1168
     11 C          49.0704   17.5762  -25.2192 C.ar    1  UNL1        0.0005
     12 C          48.4498   18.5390  -26.0287 C.ar    1  UNL1        0.0181
     13 C          49.1829   19.1605  -27.0428 C.ar    1  UNL1        0.0986
     14 N          50.4885   18.8356  -27.2383 N.ar    1  UNL1       -0.2423
     15 C          51.1159   17.9098  -26.4654 C.ar    1  UNL1        0.0986
     16 C          50.4197   17.2646  -25.4403 C.ar    1  UNL1        0.0181
     17 C          50.9123   12.4534  -18.9871 C.3     1  UNL1        0.2245
     18 S          49.8861   11.0377  -18.6416 S.O2    1  UNL1        0.0163
     19 O          49.7802   10.8353  -17.1555 O.2     1  UNL1       -0.1682
     20 O          50.4923    9.8058  -19.2545 O.2     1  UNL1       -0.1682
     21 C          48.2844   11.3087  -19.3190 C.ar    1  UNL1        0.1092
     22 C          47.9781   10.8539  -20.6093 C.ar    1  UNL1        0.0186
     23 C          46.7009   11.0567  -21.1404 C.ar    1  UNL1        0.0044
     24 C          45.7228   11.7089  -20.3844 C.ar    1  UNL1        0.0367
     25 C          46.0193   12.1584  -19.0901 C.ar    1  UNL1        0.1350
     26 O          45.0519   12.8052  -18.3243 O.3     1  UNL1       -0.5055
     27 C          47.2984   11.9552  -18.5595 C.ar    1  UNL1        0.0550
     28 H          44.1167   12.9671  -18.6792 H       1  UNL1        0.2922
@<TRIPOS>BOND
     1     6     7    2
     2     7     8   am
     3     8    10    1
     4    10    11    1
     5    11    12   ar
     6    12    13   ar
     7    13    14   ar
     8    14    15   ar
     9    15    16   ar
    10     7     1    1
    11     1     2   ar
    12     2     3   ar
    13     3    17    1
    14    17    18    1
    15    18    19    2
    16    18    20    2
    17    18    21    1
    18    21    22   ar
    19    22    23   ar
    20    23    24   ar
    21    24    25   ar
    22    25    26    1
    23    25    27   ar
    24     3     4   ar
    25     4     5   ar
    26    16    11   ar
    27     5     1   ar
    28    27    21   ar
    29     8     9    1
    30    26    28    1
@<TRIPOS>MOLECULE
*****
 28 30 0 0 0
SMALL
GASTEIGER

@<TRIPOS>ATOM
      1 C          46.1838   13.1753  -28.8430 C.ar    1  UNL1        0.3134
      2 N          46.4606   13.0855  -27.5276 N.ar    1  UNL1       -0.1854
      3 C          46.1874   14.3409  -27.1162 C.ar    1  UNL1        0.2051
      4 N          45.7868   15.1426  -28.1219 N.ar    1  UNL1       -0.0582
      5 O          45.7925   14.3817  -29.1732 O.2     1  UNL1       -0.3279
      6 O          46.0817   12.2695  -31.0152 O.2     1  UNL1       -0.2649
      7 C          46.3112   12.0633  -29.7931 C.2     1  UNL1        0.3025
      8 N          46.6918   10.7559  -29.3392 N.am    1  UNL1       -0.2930
      9 H          46.8318   10.5870  -28.3176 H       1  UNL1        0.1502
     10 C          46.8921    9.6364  -30.2566 C.3     1  UNL1        0.1168
     11 C          48.1614    8.9045  -29.9158 C.ar    1  UNL1        0.0005
     12 C          48.7440    8.0154  -30.8309 C.ar    1  UNL1        0.0181
     13 C          49.9345    7.3657  -30.4954 C.ar    1  UNL1        0.0986
     14 N          50.5234    7.5985  -29.2924 N.ar    1  UNL1       -0.2423
     15 C          49.9829    8.4587  -28.3890 C.ar    1  UNL1        0.0986
     16 C          48.7936    9.1293  -28.6844 C.ar    1  UNL1        0.0181
     17 C          46.3861   14.8113  -25.7133 C.3     1  UNL1        0.2245
     18 S          48.0579   15.3871  -25.4886 S.O2    1  UNL1        0.0163
     19 O          48.9660   14.7158  -26.4812 O.2     1  UNL1       -0.1682
     20 O          48.5303   15.0545  -24.1005 O.2     1  UNL1       -0.1682
     21 C          48.1034   17.1303  -25.7274 C.ar    1  UNL1        0.1092
     22 C          47.4178   17.9807  -24.8485 C.ar    1  UNL1        0.0186
     23 C          47.4670   19.3659  -25.0306 C.ar    1  UNL1        0.0044
     24 C          48.2046   19.9084  -26.0867 C.ar    1  UNL1        0.0367
     25 C          48.8998   19.0645  -26.9640 C.ar    1  UNL1        0.1350
     26 O          49.6429   19.5927  -28.0173 O.3     1  UNL1       -0.5055
     27 C          48.8496   17.6779  -26.7810 C.ar    1  UNL1        0.0550
     28 H          49.6998   20.5918  -28.1765 H       1  UNL1        0.2922
@<TRIPOS>BOND
     1     6     7    2
     2     7     8   am
     3     8    10    1
     4    10    11    1
     5    11    12   ar
     6    12    13   ar
     7    13    14   ar
     8    14    15   ar
     9    15    16   ar
    10     7     1    1
    11     1     2   ar
    12     2     3   ar
    13     3    17    1
    14    17    18    1
    15    18    19    2
    16    18    20    2
    17    18    21    1
    18    21    22   ar
    19    22    23   ar
    20    23    24   ar
    21    24    25   ar
    22    25    26    1
    23    25    27   ar
    24     3     4   ar
    25     4     5   ar
    26    16    11   ar
    27     5     1   ar
    28    27    21   ar
    29     8     9    1
    30    26    28    1
@<TRIPOS>MOLECULE
*****
 28 30 0 0 0
SMALL
GASTEIGER

@<TRIPOS>ATOM
      1 C          52.4674   10.5559  -27.8895 C.ar    1  UNL1        0.3134
      2 N          51.2919   10.5783  -27.2319 N.ar    1  UNL1       -0.1854
      3 C          51.5365   11.5125  -26.2898 C.ar    1  UNL1        0.2051
      4 N          52.7859   12.0110  -26.3634 N.ar    1  UNL1       -0.0582
      5 O          53.3279   11.3970  -27.3701 O.2     1  UNL1       -0.3279
      6 O          53.7821    9.9155  -29.7364 O.2     1  UNL1       -0.2649
      7 C          52.7550    9.6916  -29.0410 C.2     1  UNL1        0.3025
      8 N          51.8789    8.6044  -29.3738 N.am    1  UNL1       -0.2930
      9 H          51.0056    8.4596  -28.8188 H       1  UNL1        0.1502
     10 C          52.1591    7.6813  -30.4712 C.3     1  UNL1        0.1168
     11 C          50.8817    7.2935  -31.1645 C.ar    1  UNL1        0.0005
     12 C          50.9060    6.4997  -32.3207 C.ar    1  UNL1        0.0181
     13 C          49.7027    6.1375  -32.9312 C.ar    1  UNL1        0.0986
     14 N          48.5189    6.5491  -32.4043 N.ar    1  UNL1       -0.2423
     15 C          48.4664    7.3148  -31.2821 C.ar    1  UNL1        0.0986
     16 C          49.6460    7.6993  -30.6401 C.ar    1  UNL1        0.0181
     17 C          50.5558   11.8930  -25.2304 C.3     1  UNL1        0.2245
     18 S          51.0268   11.1734  -23.6693 S.O2    1  UNL1        0.0163
     19 O          51.7518   12.1933  -22.8358 O.2     1  UNL1       -0.1682
     20 O          51.9407   10.0024  -23.9018 O.2     1  UNL1       -0.1682
     21 C          49.5800   10.6361  -22.8233 C.ar    1  UNL1        0.1092
     22 C          49.6345    9.5273  -21.9669 C.ar    1  UNL1        0.0186
     23 C          48.4880    9.1107  -21.2840 C.ar    1  UNL1        0.0044
     24 C          47.2842    9.8017  -21.4484 C.ar    1  UNL1        0.0367
     25 C          47.2244   10.9166  -22.2961 C.ar    1  UNL1        0.1350
     26 O          46.0322   11.6171  -22.4647 O.3     1  UNL1       -0.5055
     27 C          48.3728   11.3326  -22.9796 C.ar    1  UNL1        0.0550
     28 H          45.1838   11.3417  -21.9838 H       1  UNL1        0.2922
@<TRIPOS>BOND
     1     6     7    2
     2     7     8   am
     3     8    10    1
     4    10    11    1
     5    11    12   ar
     6    12    13   ar
     7    13    14   ar
     8    14    15   ar
     9    15    16   ar
    10     7     1    1
    11     1     2   ar
    12     2     3   ar
    13     3    17    1
    14    17    18    1
    15    18    19    2
    16    18    20    2
    17    18    21    1
    18    21    22   ar
    19    22    23   ar
    20    23    24   ar
    21    24    25   ar
    22    25    26    1
    23    25    27   ar
    24     3     4   ar
    25     4     5   ar
    26    16    11   ar
    27     5     1   ar
    28    27    21   ar
    29     8     9    1
    30    26    28    1
