@<TRIPOS>MOLECULE
*****
 45 50 0 0 0
SMALL
GASTEIGER

@<TRIPOS>ATOM
      1 C          11.4554   80.9900   25.3239 C.ar    1  UNL1        0.0702
      2 C          12.3175   81.6112   26.2356 C.ar    1  UNL1        0.0191
      3 C          13.1274   82.6720   25.8281 C.ar    1  UNL1        0.0356
      4 C          13.0929   83.0948   24.4900 C.ar    1  UNL1        0.1318
      5 N          12.2536   82.4704   23.6177 N.ar    1  UNL1       -0.2279
      6 C          11.4521   81.4388   23.9933 C.ar    1  UNL1        0.1149
      7 N          13.8972   84.1999   24.0361 N.pl3   1  UNL1       -0.2932
      8 C          13.8534   85.5081   24.7045 C.3     1  UNL1        0.0923
      9 C          13.6672   86.6399   23.6794 C.3     1  UNL1        0.0252
     10 C          14.3238   86.3422   22.3045 C.3     1  UNL1        0.0472
     11 C          15.4489   85.2964   22.4305 C.3     1  UNL1        0.0252
     12 C          14.8810   83.9734   22.9668 C.3     1  UNL1        0.0923
     13 C          14.8403   87.6398   21.6531 C.3     1  UNL1        0.2054
     14 O          14.1611   87.9095   20.4253 O.3     1  UNL1       -0.4755
     15 C          14.3322   87.2035   19.2229 C.ar    1  UNL1        0.1388
     16 C          14.0842   87.8783   18.0247 C.ar    1  UNL1        0.0378
     17 C          14.2309   87.2270   16.7993 C.ar    1  UNL1        0.0147
     18 C          14.6370   85.8895   16.7509 C.ar    1  UNL1        0.0641
     19 CL         14.7013   85.1032   15.1763 Cl      1  UNL1       -0.0820
     20 C          14.9074   85.1951   17.9500 C.ar    1  UNL1        0.0890
     21 C          14.7340   85.8542   19.1797 C.ar    1  UNL1        0.0442
     22 C          15.3543   83.7856   17.9524 C.2     1  UNL1        0.3390
     23 O          16.5599   83.5134   18.1943 O.2     1  UNL1       -0.2451
     24 O          14.4770   82.7487   17.6439 O.3     1  UNL1       -0.4771
     25 H          13.5333   82.9287   17.3238 H       1  UNL1        0.2954
     26 C          11.1580   78.5811   26.0684 C.2     1  UNL1        0.2839
     27 O          12.3327   78.2663   25.7370 O.2     1  UNL1       -0.2665
     28 N          10.6422   79.8846   25.7533 N.am    1  UNL1       -0.2766
     29 H           9.6052   80.0150   25.7545 H       1  UNL1        0.1553
     30 C           8.0635   78.0002   25.4681 C.3     1  UNL1        0.0345
     31 C           8.9429   77.3382   26.4858 C.ar    1  UNL1        0.0202
     32 C          10.2939   77.5953   26.7451 C.ar    1  UNL1        0.1946
     33 O          10.7257   76.8087   27.7150 O.2     1  UNL1       -0.4492
     34 C           9.7241   76.0556   28.0989 C.ar    1  UNL1        0.1452
     35 C           9.7309   75.0858   29.0953 C.ar    1  UNL1        0.0375
     36 C           8.5358   74.3905   29.3480 C.ar    1  UNL1        0.0031
     37 C           7.3577   74.6726   28.6050 C.ar    1  UNL1        0.0002
     38 C           7.3938   75.6675   27.5985 C.ar    1  UNL1        0.0028
     39 C           8.5972   76.3379   27.3744 C.ar    1  UNL1        0.0337
     40 C           6.1008   73.9315   28.8810 C.ar    1  UNL1        0.0000
     41 C           5.7231   72.8386   28.0776 C.ar    1  UNL1        0.0000
     42 C           4.5391   72.1427   28.3398 C.ar    1  UNL1        0.0000
     43 C           3.7198   72.5285   29.4029 C.ar    1  UNL1        0.0000
     44 C           4.0831   73.6112   30.2068 C.ar    1  UNL1        0.0000
     45 C           5.2665   74.3103   29.9500 C.ar    1  UNL1        0.0000
@<TRIPOS>BOND
     1    30    31    1
     2    31    32   ar
     3    32    26    1
     4    26    27    2
     5    26    28   am
     6    28     1    1
     7     1     2   ar
     8     2     3   ar
     9     3     4   ar
    10     4     7    1
    11     7     8    1
    12     8     9    1
    13     9    10    1
    14    10    13    1
    15    13    14    1
    16    14    15    1
    17    15    16   ar
    18    16    17   ar
    19    17    18   ar
    20    18    19    1
    21    18    20   ar
    22    20    22    1
    23    22    23    2
    24    22    24    1
    25    20    21   ar
    26    10    11    1
    27    11    12    1
    28     4     5   ar
    29     5     6   ar
    30    32    33   ar
    31    33    34   ar
    32    34    35   ar
    33    35    36   ar
    34    36    37   ar
    35    37    40    1
    36    40    41   ar
    37    41    42   ar
    38    42    43   ar
    39    43    44   ar
    40    44    45   ar
    41    37    38   ar
    42    38    39   ar
    43    39    31   ar
    44     6     1   ar
    45    39    34   ar
    46    12     7    1
    47    45    40   ar
    48    21    15   ar
    49    28    29    1
    50    24    25    1
@<TRIPOS>MOLECULE
*****
 45 50 0 0 0
SMALL
GASTEIGER

@<TRIPOS>ATOM
      1 C          11.8610   80.6497   25.1397 C.ar    1  UNL1        0.0702
      2 C          11.1660   81.8364   24.8775 C.ar    1  UNL1        0.0191
      3 C          11.8565   82.9863   24.4924 C.ar    1  UNL1        0.0356
      4 C          13.2567   82.9533   24.3965 C.ar    1  UNL1        0.1318
      5 N          13.9134   81.7907   24.6651 N.ar    1  UNL1       -0.2279
      6 C          13.2615   80.6574   25.0367 C.ar    1  UNL1        0.1149
      7 N          14.0032   84.1128   23.9812 N.pl3   1  UNL1       -0.2932
      8 C          13.8562   85.4065   24.6629 C.3     1  UNL1        0.0923
      9 C          13.6307   86.5381   23.6456 C.3     1  UNL1        0.0252
     10 C          14.3469   86.3008   22.2888 C.3     1  UNL1        0.0472
     11 C          15.5314   85.3261   22.4383 C.3     1  UNL1        0.0252
     12 C          15.0319   83.9630   22.9410 C.3     1  UNL1        0.0923
     13 C          14.8003   87.6370   21.6691 C.3     1  UNL1        0.2054
     14 O          14.1190   87.8961   20.4402 O.3     1  UNL1       -0.4755
     15 C          14.3033   87.1931   19.2380 C.ar    1  UNL1        0.1388
     16 C          14.0790   87.8740   18.0386 C.ar    1  UNL1        0.0378
     17 C          14.2396   87.2260   16.8133 C.ar    1  UNL1        0.0147
     18 C          14.6363   85.8856   16.7662 C.ar    1  UNL1        0.0641
     19 CL         14.7189   85.1044   15.1898 Cl      1  UNL1       -0.0820
     20 C          14.8829   85.1849   17.9668 C.ar    1  UNL1        0.0890
     21 C          14.6955   85.8409   19.1960 C.ar    1  UNL1        0.0442
     22 C          15.3190   83.7721   17.9709 C.2     1  UNL1        0.3390
     23 O          16.5168   83.4893   18.2381 O.2     1  UNL1       -0.2451
     24 O          14.4411   82.7437   17.6367 O.3     1  UNL1       -0.4771
     25 H          13.5062   82.9327   17.2967 H       1  UNL1        0.2954
     26 C          10.1154   79.4810   26.5654 C.2     1  UNL1        0.2839
     27 O           9.9760   80.4770   27.3252 O.2     1  UNL1       -0.2665
     28 N          11.1377   79.4786   25.5558 N.am    1  UNL1       -0.2766
     29 H          11.4332   78.5577   25.1594 H       1  UNL1        0.1553
     30 C           8.1331   78.8825   29.0121 C.3     1  UNL1        0.0345
     31 C           8.3873   78.0308   27.8049 C.ar    1  UNL1        0.0202
     32 C           9.2544   78.2956   26.7389 C.ar    1  UNL1        0.1946
     33 O           9.2057   77.3094   25.8609 O.2     1  UNL1       -0.4492
     34 C           8.3527   76.4180   26.3032 C.ar    1  UNL1        0.1452
     35 C           7.9945   75.2192   25.6968 C.ar    1  UNL1        0.0375
     36 C           7.0538   74.4043   26.3500 C.ar    1  UNL1        0.0031
     37 C           6.4876   74.7973   27.5928 C.ar    1  UNL1        0.0002
     38 C           6.8793   76.0264   28.1759 C.ar    1  UNL1        0.0028
     39 C           7.8154   76.8104   27.4998 C.ar    1  UNL1        0.0337
     40 C           5.4947   73.9279   28.2736 C.ar    1  UNL1        0.0000
     41 C           5.2960   72.6001   27.8495 C.ar    1  UNL1        0.0000
     42 C           4.3604   71.7838   28.4924 C.ar    1  UNL1        0.0000
     43 C           3.6135   72.2815   29.5623 C.ar    1  UNL1        0.0000
     44 C           3.8009   73.5970   29.9921 C.ar    1  UNL1        0.0000
     45 C           4.7358   74.4178   29.3536 C.ar    1  UNL1        0.0000
@<TRIPOS>BOND
     1    30    31    1
     2    31    32   ar
     3    32    26    1
     4    26    27    2
     5    26    28   am
     6    28     1    1
     7     1     2   ar
     8     2     3   ar
     9     3     4   ar
    10     4     7    1
    11     7     8    1
    12     8     9    1
    13     9    10    1
    14    10    13    1
    15    13    14    1
    16    14    15    1
    17    15    16   ar
    18    16    17   ar
    19    17    18   ar
    20    18    19    1
    21    18    20   ar
    22    20    22    1
    23    22    23    2
    24    22    24    1
    25    20    21   ar
    26    10    11    1
    27    11    12    1
    28     4     5   ar
    29     5     6   ar
    30    32    33   ar
    31    33    34   ar
    32    34    35   ar
    33    35    36   ar
    34    36    37   ar
    35    37    40    1
    36    40    41   ar
    37    41    42   ar
    38    42    43   ar
    39    43    44   ar
    40    44    45   ar
    41    37    38   ar
    42    38    39   ar
    43    39    31   ar
    44     6     1   ar
    45    39    34   ar
    46    12     7    1
    47    45    40   ar
    48    21    15   ar
    49    28    29    1
    50    24    25    1
@<TRIPOS>MOLECULE
*****
 45 50 0 0 0
SMALL
GASTEIGER

@<TRIPOS>ATOM
      1 C          11.5867   80.6578   25.1819 C.ar    1  UNL1        0.0702
      2 C          10.9793   81.9046   24.9904 C.ar    1  UNL1        0.0191
      3 C          11.7397   83.0042   24.5905 C.ar    1  UNL1        0.0356
      4 C          13.1240   82.8590   24.4082 C.ar    1  UNL1        0.1318
      5 N          13.6958   81.6392   24.6089 N.ar    1  UNL1       -0.2279
      6 C          12.9744   80.5533   24.9933 C.ar    1  UNL1        0.1149
      7 N          13.9391   83.9644   23.9749 N.pl3   1  UNL1       -0.2932
      8 C          13.9201   85.2553   24.6773 C.3     1  UNL1        0.0923
      9 C          13.7397   86.4158   23.6837 C.3     1  UNL1        0.0252
     10 C          14.3785   86.1449   22.2950 C.3     1  UNL1        0.0472
     11 C          15.4901   85.0809   22.3825 C.3     1  UNL1        0.0252
     12 C          14.9092   83.7523   22.8902 C.3     1  UNL1        0.0923
     13 C          14.9067   87.4519   21.6720 C.3     1  UNL1        0.2054
     14 O          14.1221   87.8423   20.5435 O.3     1  UNL1       -0.4755
     15 C          14.2490   87.3300   19.2416 C.ar    1  UNL1        0.1388
     16 C          14.4120   85.9503   19.0922 C.ar    1  UNL1        0.0378
     17 C          14.5498   85.3847   17.8241 C.ar    1  UNL1        0.0147
     18 C          14.5185   86.1898   16.6808 C.ar    1  UNL1        0.0641
     19 CL         14.8014   85.4207   15.1219 Cl      1  UNL1       -0.0820
     20 C          14.3391   87.5842   16.8101 C.ar    1  UNL1        0.0890
     21 C          14.2245   88.1461   18.0938 C.ar    1  UNL1        0.0442
     22 C          14.2833   88.4769   15.6327 C.2     1  UNL1        0.3390
     23 O          13.2245   88.5505   14.9547 O.2     1  UNL1       -0.2451
     24 O          15.3977   89.2064   15.2253 O.3     1  UNL1       -0.4771
     25 H          16.3020   89.0846   15.6645 H       1  UNL1        0.2954
     26 C          11.3387   78.3454   26.2001 C.2     1  UNL1        0.2839
     27 O          12.5756   78.1124   26.1317 O.2     1  UNL1       -0.2665
     28 N          10.7938   79.5388   25.6142 N.am    1  UNL1       -0.2766
     29 H           9.7686   79.5619   25.4123 H       1  UNL1        0.1553
     30 C           8.2185   77.9146   25.6063 C.3     1  UNL1        0.0345
     31 C           9.0776   77.1790   26.5904 C.ar    1  UNL1        0.0202
     32 C          10.4399   77.3707   26.8470 C.ar    1  UNL1        0.1946
     33 O          10.8461   76.5308   27.7826 O.2     1  UNL1       -0.4492
     34 C           9.8173   75.8052   28.1469 C.ar    1  UNL1        0.1452
     35 C           9.7917   74.7988   29.1060 C.ar    1  UNL1        0.0375
     36 C           8.5709   74.1438   29.3431 C.ar    1  UNL1        0.0031
     37 C           7.3999   74.5018   28.6219 C.ar    1  UNL1        0.0002
     38 C           7.4693   75.5319   27.6534 C.ar    1  UNL1        0.0028
     39 C           8.6976   76.1607   27.4437 C.ar    1  UNL1        0.0337
     40 C           6.1157   73.8027   28.8812 C.ar    1  UNL1        0.0000
     41 C           5.2993   74.1833   29.9635 C.ar    1  UNL1        0.0000
     42 C           4.0907   73.5233   30.2052 C.ar    1  UNL1        0.0000
     43 C           3.6839   72.4780   29.3731 C.ar    1  UNL1        0.0000
     44 C           4.4850   72.0907   28.2968 C.ar    1  UNL1        0.0000
     45 C           5.6943   72.7477   28.0495 C.ar    1  UNL1        0.0000
@<TRIPOS>BOND
     1    30    31    1
     2    31    32   ar
     3    32    26    1
     4    26    27    2
     5    26    28   am
     6    28     1    1
     7     1     2   ar
     8     2     3   ar
     9     3     4   ar
    10     4     7    1
    11     7     8    1
    12     8     9    1
    13     9    10    1
    14    10    13    1
    15    13    14    1
    16    14    15    1
    17    15    16   ar
    18    16    17   ar
    19    17    18   ar
    20    18    19    1
    21    18    20   ar
    22    20    22    1
    23    22    23    2
    24    22    24    1
    25    20    21   ar
    26    10    11    1
    27    11    12    1
    28     4     5   ar
    29     5     6   ar
    30    32    33   ar
    31    33    34   ar
    32    34    35   ar
    33    35    36   ar
    34    36    37   ar
    35    37    40    1
    36    40    41   ar
    37    41    42   ar
    38    42    43   ar
    39    43    44   ar
    40    44    45   ar
    41    37    38   ar
    42    38    39   ar
    43    39    31   ar
    44     6     1   ar
    45    39    34   ar
    46    12     7    1
    47    45    40   ar
    48    21    15   ar
    49    28    29    1
    50    24    25    1
@<TRIPOS>MOLECULE
*****
 45 50 0 0 0
SMALL
GASTEIGER

@<TRIPOS>ATOM
      1 C          11.3103   80.7673   25.4527 C.ar    1  UNL1        0.0702
      2 C          12.6945   80.5720   25.3776 C.ar    1  UNL1        0.0191
      3 C          13.5244   81.5890   24.9038 C.ar    1  UNL1        0.0356
      4 C          12.9591   82.8007   24.4762 C.ar    1  UNL1        0.1318
      5 N          11.6091   82.9660   24.5493 N.ar    1  UNL1       -0.2279
      6 C          10.7821   81.9916   25.0121 C.ar    1  UNL1        0.1149
      7 N          13.7837   83.8819   24.0017 N.pl3   1  UNL1       -0.2932
      8 C          13.7945   85.1909   24.6699 C.3     1  UNL1        0.0923
      9 C          13.6160   86.3275   23.6488 C.3     1  UNL1        0.0252
     10 C          14.2294   86.0107   22.2583 C.3     1  UNL1        0.0472
     11 C          15.3264   84.9327   22.3573 C.3     1  UNL1        0.0252
     12 C          14.7338   83.6268   22.9086 C.3     1  UNL1        0.0923
     13 C          14.7672   87.2927   21.5933 C.3     1  UNL1        0.2054
     14 O          13.9768   87.6601   20.4611 O.3     1  UNL1       -0.4755
     15 C          14.1473   87.1784   19.1525 C.ar    1  UNL1        0.1388
     16 C          14.2835   85.7993   18.9735 C.ar    1  UNL1        0.0378
     17 C          14.4622   85.2630   17.6977 C.ar    1  UNL1        0.0147
     18 C          14.4994   86.0977   16.5760 C.ar    1  UNL1        0.0641
     19 CL         14.8308   85.3619   15.0105 Cl      1  UNL1       -0.0820
     20 C          14.3481   87.4924   16.7347 C.ar    1  UNL1        0.0890
     21 C          14.1918   88.0239   18.0269 C.ar    1  UNL1        0.0442
     22 C          14.3645   88.4160   15.5802 C.2     1  UNL1        0.3390
     23 O          15.4063   89.0753   15.3229 O.2     1  UNL1       -0.2451
     24 O          13.2312   88.6109   14.7943 O.3     1  UNL1       -0.4771
     25 H          12.3390   88.1979   15.0369 H       1  UNL1        0.2954
     26 C           9.7920   79.7117   27.1922 C.2     1  UNL1        0.2839
     27 O          10.1132   80.5516   28.0756 O.2     1  UNL1       -0.2665
     28 N          10.4659   79.7027   25.9233 N.am    1  UNL1       -0.2766
     29 H          10.4077   78.8352   25.3433 H       1  UNL1        0.1553
     30 C          10.1038   76.5244   27.0604 C.3     1  UNL1        0.0345
     31 C           8.8816   77.3148   27.4193 C.ar    1  UNL1        0.0202
     32 C           8.7495   78.7069   27.4751 C.ar    1  UNL1        0.1946
     33 O           7.5190   79.0302   27.8317 O.2     1  UNL1       -0.4492
     34 C           6.8459   77.9196   28.0089 C.ar    1  UNL1        0.1452
     35 C           5.5139   77.7913   28.3862 C.ar    1  UNL1        0.0375
     36 C           4.9869   76.4949   28.5174 C.ar    1  UNL1        0.0031
     37 C           5.7945   75.3517   28.2713 C.ar    1  UNL1        0.0002
     38 C           7.1465   75.5266   27.8895 C.ar    1  UNL1        0.0028
     39 C           7.6365   76.8279   27.7691 C.ar    1  UNL1        0.0337
     40 C           5.2267   73.9870   28.4129 C.ar    1  UNL1        0.0000
     41 C           5.7530   72.9122   27.6710 C.ar    1  UNL1        0.0000
     42 C           5.2163   71.6282   27.8064 C.ar    1  UNL1        0.0000
     43 C           4.1505   71.4022   28.6802 C.ar    1  UNL1        0.0000
     44 C           3.6193   72.4601   29.4212 C.ar    1  UNL1        0.0000
     45 C           4.1525   73.7461   29.2907 C.ar    1  UNL1        0.0000
@<TRIPOS>BOND
     1    30    31    1
     2    31    32   ar
     3    32    26    1
     4    26    27    2
     5    26    28   am
     6    28     1    1
     7     1     2   ar
     8     2     3   ar
     9     3     4   ar
    10     4     7    1
    11     7     8    1
    12     8     9    1
    13     9    10    1
    14    10    13    1
    15    13    14    1
    16    14    15    1
    17    15    16   ar
    18    16    17   ar
    19    17    18   ar
    20    18    19    1
    21    18    20   ar
    22    20    22    1
    23    22    23    2
    24    22    24    1
    25    20    21   ar
    26    10    11    1
    27    11    12    1
    28     4     5   ar
    29     5     6   ar
    30    32    33   ar
    31    33    34   ar
    32    34    35   ar
    33    35    36   ar
    34    36    37   ar
    35    37    40    1
    36    40    41   ar
    37    41    42   ar
    38    42    43   ar
    39    43    44   ar
    40    44    45   ar
    41    37    38   ar
    42    38    39   ar
    43    39    31   ar
    44     6     1   ar
    45    39    34   ar
    46    12     7    1
    47    45    40   ar
    48    21    15   ar
    49    28    29    1
    50    24    25    1
@<TRIPOS>MOLECULE
*****
 45 50 0 0 0
SMALL
GASTEIGER

@<TRIPOS>ATOM
      1 C          10.6224   81.2965   24.8785 C.ar    1  UNL1        0.0702
      2 C          10.0597   80.7683   23.7105 C.ar    1  UNL1        0.0191
      3 C           9.2836   79.6098   23.7644 C.ar    1  UNL1        0.0356
      4 C           9.0936   78.9607   24.9945 C.ar    1  UNL1        0.1318
      5 N           9.6578   79.4867   26.1170 N.ar    1  UNL1       -0.2279
      6 C          10.4129   80.6166   26.0892 C.ar    1  UNL1        0.1149
      7 N           8.2815   77.7755   25.0946 N.pl3   1  UNL1       -0.2932
      8 C           8.4164   76.8445   26.2239 C.3     1  UNL1        0.0923
      9 C           8.5421   75.3946   25.7252 C.3     1  UNL1        0.0252
     10 C           7.7617   75.1237   24.4107 C.3     1  UNL1        0.0472
     11 C           6.6254   76.1450   24.2077 C.3     1  UNL1        0.0252
     12 C           7.2035   77.5655   24.1167 C.3     1  UNL1        0.0923
     13 C           7.2241   73.6797   24.3820 C.3     1  UNL1        0.2054
     14 O           7.6171   73.0039   23.1860 O.3     1  UNL1       -0.4755
     15 C           8.9217   72.9486   22.6679 C.ar    1  UNL1        0.1388
     16 C           9.5152   71.6926   22.5173 C.ar    1  UNL1        0.0378
     17 C          10.8114   71.5754   22.0140 C.ar    1  UNL1        0.0147
     18 C          11.5346   72.7140   21.6441 C.ar    1  UNL1        0.0641
     19 CL         13.2002   72.4976   21.1143 Cl      1  UNL1       -0.0820
     20 C          10.9465   73.9909   21.7741 C.ar    1  UNL1        0.0890
     21 C           9.6487   74.0988   22.3040 C.ar    1  UNL1        0.0442
     22 C          11.6626   75.2239   21.3829 C.2     1  UNL1        0.3390
     23 O          11.9041   76.1067   22.2482 O.2     1  UNL1       -0.2451
     24 O          12.0360   75.4544   20.0610 O.3     1  UNL1       -0.4771
     25 H          11.7547   74.8321   19.3133 H       1  UNL1        0.2954
     26 C          12.8704   82.4762   24.9029 C.2     1  UNL1        0.2839
     27 O          13.4759   81.4515   25.3178 O.2     1  UNL1       -0.2665
     28 N          11.4370   82.4792   24.8042 N.am    1  UNL1       -0.2766
     29 H          10.9505   83.4032   24.7603 H       1  UNL1        0.1553
     30 C          15.4234   82.6655   22.9742 C.3     1  UNL1        0.0345
     31 C          14.7456   83.7789   23.7146 C.ar    1  UNL1        0.0202
     32 C          13.6311   83.6918   24.5564 C.ar    1  UNL1        0.1946
     33 O          13.3242   84.8884   25.0254 O.2     1  UNL1       -0.4492
     34 C          14.1830   85.7468   24.5322 C.ar    1  UNL1        0.1452
     35 C          14.2336   87.1171   24.7627 C.ar    1  UNL1        0.0375
     36 C          15.2473   87.8561   24.1289 C.ar    1  UNL1        0.0031
     37 C          16.1905   87.2186   23.2783 C.ar    1  UNL1        0.0002
     38 C          16.1033   85.8211   23.0699 C.ar    1  UNL1        0.0028
     39 C          15.0842   85.1187   23.7149 C.ar    1  UNL1        0.0337
     40 C          17.2574   88.0098   22.6142 C.ar    1  UNL1        0.0000
     41 C          17.1261   88.4001   21.2678 C.ar    1  UNL1        0.0000
     42 C          18.1322   89.1451   20.6450 C.ar    1  UNL1        0.0000
     43 C          19.2783   89.5074   21.3560 C.ar    1  UNL1        0.0000
     44 C          19.4207   89.1259   22.6919 C.ar    1  UNL1        0.0000
     45 C          18.4174   88.3817   23.3202 C.ar    1  UNL1        0.0000
@<TRIPOS>BOND
     1    30    31    1
     2    31    32   ar
     3    32    26    1
     4    26    27    2
     5    26    28   am
     6    28     1    1
     7     1     2   ar
     8     2     3   ar
     9     3     4   ar
    10     4     7    1
    11     7     8    1
    12     8     9    1
    13     9    10    1
    14    10    13    1
    15    13    14    1
    16    14    15    1
    17    15    16   ar
    18    16    17   ar
    19    17    18   ar
    20    18    19    1
    21    18    20   ar
    22    20    22    1
    23    22    23    2
    24    22    24    1
    25    20    21   ar
    26    10    11    1
    27    11    12    1
    28     4     5   ar
    29     5     6   ar
    30    32    33   ar
    31    33    34   ar
    32    34    35   ar
    33    35    36   ar
    34    36    37   ar
    35    37    40    1
    36    40    41   ar
    37    41    42   ar
    38    42    43   ar
    39    43    44   ar
    40    44    45   ar
    41    37    38   ar
    42    38    39   ar
    43    39    31   ar
    44     6     1   ar
    45    39    34   ar
    46    12     7    1
    47    45    40   ar
    48    21    15   ar
    49    28    29    1
    50    24    25    1
@<TRIPOS>MOLECULE
*****
 45 50 0 0 0
SMALL
GASTEIGER

@<TRIPOS>ATOM
      1 C          12.0831   80.9588   25.1111 C.ar    1  UNL1        0.0702
      2 C          11.3556   82.0908   24.7247 C.ar    1  UNL1        0.0191
      3 C          12.0187   83.2395   24.2908 C.ar    1  UNL1        0.0356
      4 C          13.4221   83.2627   24.2706 C.ar    1  UNL1        0.1318
      5 N          14.1102   82.1533   24.6594 N.ar    1  UNL1       -0.2279
      6 C          13.4857   81.0219   25.0807 C.ar    1  UNL1        0.1149
      7 N          14.1423   84.4212   23.8087 N.pl3   1  UNL1       -0.2932
      8 C          14.0740   85.7039   24.5230 C.3     1  UNL1        0.0923
      9 C          13.7712   86.8561   23.5497 C.3     1  UNL1        0.0252
     10 C          14.3582   86.6356   22.1296 C.3     1  UNL1        0.0472
     11 C          15.5390   85.6454   22.1540 C.3     1  UNL1        0.0252
     12 C          15.0703   84.2789   22.6768 C.3     1  UNL1        0.0923
     13 C          14.7701   87.9777   21.4939 C.3     1  UNL1        0.2054
     14 O          13.6256   88.7517   21.1296 O.3     1  UNL1       -0.4755
     15 C          13.1492   88.9431   19.8220 C.ar    1  UNL1        0.1388
     16 C          11.8020   89.2746   19.6564 C.ar    1  UNL1        0.0378
     17 C          11.2704   89.4704   18.3811 C.ar    1  UNL1        0.0147
     18 C          12.0806   89.3459   17.2479 C.ar    1  UNL1        0.0641
     19 CL         11.3194   89.5055   15.6677 Cl      1  UNL1       -0.0820
     20 C          13.4480   89.0269   17.3954 C.ar    1  UNL1        0.0890
     21 C          13.9676   88.8090   18.6835 C.ar    1  UNL1        0.0442
     22 C          14.3501   88.8991   16.2308 C.2     1  UNL1        0.3390
     23 O          15.4838   89.4471   16.2563 O.2     1  UNL1       -0.2451
     24 O          13.9531   88.2228   15.0798 O.3     1  UNL1       -0.4771
     25 H          13.0090   87.8741   14.9674 H       1  UNL1        0.2954
     26 C          10.3859   79.8063   26.6066 C.2     1  UNL1        0.2839
     27 O          10.2475   80.8216   27.3406 O.2     1  UNL1       -0.2665
     28 N          11.3866   79.7897   25.5757 N.am    1  UNL1       -0.2766
     29 H          11.6875   78.8623   25.1993 H       1  UNL1        0.1553
     30 C           8.0824   79.4616   28.8086 C.3     1  UNL1        0.0345
     31 C           8.5399   78.4596   27.7918 C.ar    1  UNL1        0.0202
     32 C           9.5468   78.6140   26.8322 C.ar    1  UNL1        0.1946
     33 O           9.6604   77.5104   26.1145 O.2     1  UNL1       -0.4492
     34 C           8.7799   76.6478   26.5601 C.ar    1  UNL1        0.1452
     35 C           8.5540   75.3566   26.0961 C.ar    1  UNL1        0.0375
     36 C           7.5531   74.5953   26.7240 C.ar    1  UNL1        0.0031
     37 C           6.7964   75.1325   27.8003 C.ar    1  UNL1        0.0002
     38 C           7.0580   76.4519   28.2417 C.ar    1  UNL1        0.0028
     39 C           8.0587   77.1792   27.5954 C.ar    1  UNL1        0.0337
     40 C           5.7416   74.3186   28.4561 C.ar    1  UNL1        0.0000
     41 C           5.4829   73.0026   28.0273 C.ar    1  UNL1        0.0000
     42 C           4.4891   72.2385   28.6465 C.ar    1  UNL1        0.0000
     43 C           3.7431   72.7771   29.6971 C.ar    1  UNL1        0.0000
     44 C           3.9898   74.0814   30.1312 C.ar    1  UNL1        0.0000
     45 C           4.9830   74.8499   29.5164 C.ar    1  UNL1        0.0000
@<TRIPOS>BOND
     1    30    31    1
     2    31    32   ar
     3    32    26    1
     4    26    27    2
     5    26    28   am
     6    28     1    1
     7     1     2   ar
     8     2     3   ar
     9     3     4   ar
    10     4     7    1
    11     7     8    1
    12     8     9    1
    13     9    10    1
    14    10    13    1
    15    13    14    1
    16    14    15    1
    17    15    16   ar
    18    16    17   ar
    19    17    18   ar
    20    18    19    1
    21    18    20   ar
    22    20    22    1
    23    22    23    2
    24    22    24    1
    25    20    21   ar
    26    10    11    1
    27    11    12    1
    28     4     5   ar
    29     5     6   ar
    30    32    33   ar
    31    33    34   ar
    32    34    35   ar
    33    35    36   ar
    34    36    37   ar
    35    37    40    1
    36    40    41   ar
    37    41    42   ar
    38    42    43   ar
    39    43    44   ar
    40    44    45   ar
    41    37    38   ar
    42    38    39   ar
    43    39    31   ar
    44     6     1   ar
    45    39    34   ar
    46    12     7    1
    47    45    40   ar
    48    21    15   ar
    49    28    29    1
    50    24    25    1
@<TRIPOS>MOLECULE
*****
 45 50 0 0 0
SMALL
GASTEIGER

@<TRIPOS>ATOM
      1 C          11.8709   80.7844   25.0584 C.ar    1  UNL1        0.0702
      2 C          11.1943   81.9881   24.8278 C.ar    1  UNL1        0.0191
      3 C          11.9038   83.1406   24.4878 C.ar    1  UNL1        0.0356
      4 C          13.3043   83.0922   24.4055 C.ar    1  UNL1        0.1318
      5 N          13.9430   81.9128   24.6428 N.ar    1  UNL1       -0.2279
      6 C          13.2724   80.7768   24.9703 C.ar    1  UNL1        0.1149
      7 N          14.0703   84.2545   24.0361 N.pl3   1  UNL1       -0.2932
      8 C          14.1560   85.4297   24.9147 C.3     1  UNL1        0.0923
      9 C          13.8638   86.7207   24.1310 C.3     1  UNL1        0.0252
     10 C          14.3170   86.6588   22.6474 C.3     1  UNL1        0.0472
     11 C          15.4182   85.6012   22.4370 C.3     1  UNL1        0.0252
     12 C          14.8914   84.2090   22.8170 C.3     1  UNL1        0.0923
     13 C          14.7765   88.0460   22.1579 C.3     1  UNL1        0.2054
     14 O          16.2002   88.1616   22.1902 O.3     1  UNL1       -0.4755
     15 C          16.9684   88.5056   23.3150 C.ar    1  UNL1        0.1388
     16 C          18.3475   88.6548   23.1471 C.ar    1  UNL1        0.0378
     17 C          19.1626   88.9891   24.2293 C.ar    1  UNL1        0.0147
     18 C          18.6102   89.1883   25.4987 C.ar    1  UNL1        0.0641
     19 CL         19.7104   89.5063   26.8367 Cl      1  UNL1       -0.0820
     20 C          17.2169   89.0574   25.6853 C.ar    1  UNL1        0.0890
     21 C          16.4082   88.6977   24.5930 C.ar    1  UNL1        0.0442
     22 C          16.5819   89.2727   27.0032 C.2     1  UNL1        0.3390
     23 O          15.3464   89.5076   27.0699 O.2     1  UNL1       -0.2451
     24 O          17.3326   89.2695   28.1764 O.3     1  UNL1       -0.4771
     25 H          18.3433   89.2081   28.1602 H       1  UNL1        0.2954
     26 C          10.1732   79.5670   26.5011 C.2     1  UNL1        0.2839
     27 O          10.1237   80.5024   27.3446 O.2     1  UNL1       -0.2665
     28 N          11.1281   79.6100   25.4284 N.am    1  UNL1       -0.2766
     29 H          11.3595   78.7144   24.9417 H       1  UNL1        0.1553
     30 C           8.5447   78.6880   29.1182 C.3     1  UNL1        0.0345
     31 C           8.5638   78.0163   27.7781 C.ar    1  UNL1        0.0202
     32 C           9.2770   78.4032   26.6378 C.ar    1  UNL1        0.1946
     33 O           9.0380   77.5613   25.6479 O.2     1  UNL1       -0.4492
     34 C           8.2076   76.6476   26.0877 C.ar    1  UNL1        0.1452
     35 C           7.6906   75.5671   25.3817 C.ar    1  UNL1        0.0375
     36 C           6.8098   74.7010   26.0521 C.ar    1  UNL1        0.0031
     37 C           6.4600   74.9262   27.4110 C.ar    1  UNL1        0.0002
     38 C           7.0085   76.0387   28.0933 C.ar    1  UNL1        0.0028
     39 C           7.8794   76.8779   27.3969 C.ar    1  UNL1        0.0337
     40 C           5.5284   74.0042   28.1090 C.ar    1  UNL1        0.0000
     41 C           4.7323   74.4633   29.1758 C.ar    1  UNL1        0.0000
     42 C           3.8561   73.5928   29.8312 C.ar    1  UNL1        0.0000
     43 C           3.7649   72.2577   29.4319 C.ar    1  UNL1        0.0000
     44 C           4.5496   71.7900   28.3755 C.ar    1  UNL1        0.0000
     45 C           5.4270   72.6561   27.7157 C.ar    1  UNL1        0.0000
@<TRIPOS>BOND
     1    30    31    1
     2    31    32   ar
     3    32    26    1
     4    26    27    2
     5    26    28   am
     6    28     1    1
     7     1     2   ar
     8     2     3   ar
     9     3     4   ar
    10     4     7    1
    11     7     8    1
    12     8     9    1
    13     9    10    1
    14    10    13    1
    15    13    14    1
    16    14    15    1
    17    15    16   ar
    18    16    17   ar
    19    17    18   ar
    20    18    19    1
    21    18    20   ar
    22    20    22    1
    23    22    23    2
    24    22    24    1
    25    20    21   ar
    26    10    11    1
    27    11    12    1
    28     4     5   ar
    29     5     6   ar
    30    32    33   ar
    31    33    34   ar
    32    34    35   ar
    33    35    36   ar
    34    36    37   ar
    35    37    40    1
    36    40    41   ar
    37    41    42   ar
    38    42    43   ar
    39    43    44   ar
    40    44    45   ar
    41    37    38   ar
    42    38    39   ar
    43    39    31   ar
    44     6     1   ar
    45    39    34   ar
    46    12     7    1
    47    45    40   ar
    48    21    15   ar
    49    28    29    1
    50    24    25    1
@<TRIPOS>MOLECULE
*****
 45 50 0 0 0
SMALL
GASTEIGER

@<TRIPOS>ATOM
      1 C          10.8162   81.4419   24.8305 C.ar    1  UNL1        0.0702
      2 C          10.3401   80.7523   23.7090 C.ar    1  UNL1        0.0191
      3 C           9.6291   79.5615   23.8643 C.ar    1  UNL1        0.0356
      4 C           9.4181   79.0443   25.1521 C.ar    1  UNL1        0.1318
      5 N           9.8980   79.7268   26.2287 N.ar    1  UNL1       -0.2279
      6 C          10.5884   80.8908   26.1018 C.ar    1  UNL1        0.1149
      7 N           8.6705   77.8301   25.3548 N.pl3   1  UNL1       -0.2932
      8 C           8.9836   76.6015   24.6115 C.3     1  UNL1        0.0923
      9 C           7.7101   75.9933   23.9992 C.3     1  UNL1        0.0252
     10 C           6.4359   76.2421   24.8505 C.3     1  UNL1        0.0472
     11 C           6.7876   76.5253   26.3241 C.3     1  UNL1        0.0252
     12 C           7.6626   77.7841   26.4246 C.3     1  UNL1        0.0923
     13 C           5.4578   75.0573   24.7293 C.3     1  UNL1        0.2054
     14 O           4.1168   75.4612   25.0126 O.3     1  UNL1       -0.4755
     15 C           3.3454   76.3412   24.2355 C.ar    1  UNL1        0.1388
     16 C           2.7607   77.4388   24.8726 C.ar    1  UNL1        0.0378
     17 C           1.9784   78.3434   24.1537 C.ar    1  UNL1        0.0147
     18 C           1.7739   78.1702   22.7810 C.ar    1  UNL1        0.0641
     19 CL          0.6924   79.2917   21.9598 Cl      1  UNL1       -0.0820
     20 C           2.3690   77.0760   22.1162 C.ar    1  UNL1        0.0890
     21 C           3.1361   76.1580   22.8547 C.ar    1  UNL1        0.0442
     22 C           2.1965   76.8569   20.6641 C.2     1  UNL1        0.3390
     23 O           2.7827   77.6128   19.8448 O.2     1  UNL1       -0.2451
     24 O           1.3569   75.8572   20.1787 O.3     1  UNL1       -0.4771
     25 H           0.7722   75.3080   20.7967 H       1  UNL1        0.2954
     26 C          12.9124   82.8455   25.1161 C.2     1  UNL1        0.2839
     27 O          13.4230   82.0324   25.9329 O.2     1  UNL1       -0.2665
     28 N          11.5652   82.6567   24.6538 N.am    1  UNL1       -0.2766
     29 H          11.0695   83.4781   24.2391 H       1  UNL1        0.1553
     30 C          15.3152   82.8683   22.9947 C.3     1  UNL1        0.0345
     31 C          14.7334   84.0330   23.7380 C.ar    1  UNL1        0.0202
     32 C          13.6844   84.0186   24.6641 C.ar    1  UNL1        0.1946
     33 O          13.4544   85.2425   25.1056 O.2     1  UNL1       -0.4492
     34 C          14.3010   86.0498   24.5146 C.ar    1  UNL1        0.1452
     35 C          14.4146   87.4251   24.6845 C.ar    1  UNL1        0.0375
     36 C          15.4009   88.1021   23.9467 C.ar    1  UNL1        0.0031
     37 C          16.2545   87.3988   23.0543 C.ar    1  UNL1        0.0002
     38 C          16.1051   85.9984   22.9102 C.ar    1  UNL1        0.0028
     39 C          15.1155   85.3586   23.6581 C.ar    1  UNL1        0.0337
     40 C          17.2931   88.1249   22.2801 C.ar    1  UNL1        0.0000
     41 C          18.5912   88.2871   22.8009 C.ar    1  UNL1        0.0000
     42 C          19.5671   88.9713   22.0698 C.ar    1  UNL1        0.0000
     43 C          19.2600   89.5010   20.8146 C.ar    1  UNL1        0.0000
     44 C          17.9760   89.3472   20.2874 C.ar    1  UNL1        0.0000
     45 C          16.9961   88.6632   21.0135 C.ar    1  UNL1        0.0000
@<TRIPOS>BOND
     1    30    31    1
     2    31    32   ar
     3    32    26    1
     4    26    27    2
     5    26    28   am
     6    28     1    1
     7     1     2   ar
     8     2     3   ar
     9     3     4   ar
    10     4     7    1
    11     7     8    1
    12     8     9    1
    13     9    10    1
    14    10    13    1
    15    13    14    1
    16    14    15    1
    17    15    16   ar
    18    16    17   ar
    19    17    18   ar
    20    18    19    1
    21    18    20   ar
    22    20    22    1
    23    22    23    2
    24    22    24    1
    25    20    21   ar
    26    10    11    1
    27    11    12    1
    28     4     5   ar
    29     5     6   ar
    30    32    33   ar
    31    33    34   ar
    32    34    35   ar
    33    35    36   ar
    34    36    37   ar
    35    37    40    1
    36    40    41   ar
    37    41    42   ar
    38    42    43   ar
    39    43    44   ar
    40    44    45   ar
    41    37    38   ar
    42    38    39   ar
    43    39    31   ar
    44     6     1   ar
    45    39    34   ar
    46    12     7    1
    47    45    40   ar
    48    21    15   ar
    49    28    29    1
    50    24    25    1
@<TRIPOS>MOLECULE
*****
 45 50 0 0 0
SMALL
GASTEIGER

@<TRIPOS>ATOM
      1 C          10.0552   79.5305   24.1835 C.ar    1  UNL1        0.0702
      2 C           9.4983   79.4560   22.9012 C.ar    1  UNL1        0.0191
      3 C           8.8385   78.2984   22.4864 C.ar    1  UNL1        0.0356
      4 C           8.7607   77.1975   23.3539 C.ar    1  UNL1        0.1318
      5 N           9.3174   77.2884   24.5937 N.ar    1  UNL1       -0.2279
      6 C           9.9602   78.4073   25.0209 C.ar    1  UNL1        0.1149
      7 N           8.0695   75.9935   22.9708 N.pl3   1  UNL1       -0.2932
      8 C           8.4776   75.2145   21.7932 C.3     1  UNL1        0.0923
      9 C           7.2647   74.8931   20.9031 C.3     1  UNL1        0.0252
     10 C           5.9442   74.7142   21.6995 C.3     1  UNL1        0.0472
     11 C           6.2175   74.3449   23.1706 C.3     1  UNL1        0.0252
     12 C           7.0206   75.4622   23.8540 C.3     1  UNL1        0.0923
     13 C           5.0352   73.6697   21.0230 C.3     1  UNL1        0.2054
     14 O           3.6573   74.0298   21.1375 O.3     1  UNL1       -0.4755
     15 C           3.1625   75.3354   21.2930 C.ar    1  UNL1        0.1388
     16 C           2.8975   76.0784   20.1397 C.ar    1  UNL1        0.0378
     17 C           2.4110   77.3831   20.2316 C.ar    1  UNL1        0.0147
     18 C           2.1729   77.9651   21.4809 C.ar    1  UNL1        0.0641
     19 CL          1.6575   79.6487   21.5220 Cl      1  UNL1       -0.0820
     20 C           2.4197   77.2251   22.6576 C.ar    1  UNL1        0.0890
     21 C           2.9316   75.9198   22.5536 C.ar    1  UNL1        0.0442
     22 C           2.1698   77.7888   24.0015 C.2     1  UNL1        0.3390
     23 O           2.7095   78.8779   24.3318 O.2     1  UNL1       -0.2451
     24 O           1.3847   77.1145   24.9336 O.3     1  UNL1       -0.4771
     25 H           1.0334   76.1815   24.7565 H       1  UNL1        0.2954
     26 C          12.1794   80.8676   24.5650 C.2     1  UNL1        0.2839
     27 O          12.9180   79.8560   24.4236 O.2     1  UNL1       -0.2665
     28 N          10.7502   80.7222   24.5893 N.am    1  UNL1       -0.2766
     29 H          10.1856   81.4970   25.0057 H       1  UNL1        0.1553
     30 C          13.1066   82.1983   27.3297 C.3     1  UNL1        0.0345
     31 C          13.1899   82.7855   25.9529 C.ar    1  UNL1        0.0202
     32 C          12.7833   82.2011   24.7480 C.ar    1  UNL1        0.1946
     33 O          13.0188   83.0263   23.7433 O.2     1  UNL1       -0.4492
     34 C          13.5561   84.1162   24.2345 C.ar    1  UNL1        0.1452
     35 C          13.9609   85.2471   23.5342 C.ar    1  UNL1        0.0375
     36 C          14.5155   86.3123   24.2643 C.ar    1  UNL1        0.0031
     37 C          14.6570   86.2323   25.6762 C.ar    1  UNL1        0.0002
     38 C          14.2326   85.0623   26.3507 C.ar    1  UNL1        0.0028
     39 C          13.6867   84.0241   25.5943 C.ar    1  UNL1        0.0337
     40 C          15.2443   87.3643   26.4370 C.ar    1  UNL1        0.0000
     41 C          16.2141   88.1970   25.8464 C.ar    1  UNL1        0.0000
     42 C          16.7654   89.2621   26.5652 C.ar    1  UNL1        0.0000
     43 C          16.3575   89.5077   27.8781 C.ar    1  UNL1        0.0000
     44 C          15.3968   88.6886   28.4752 C.ar    1  UNL1        0.0000
     45 C          14.8413   87.6225   27.7611 C.ar    1  UNL1        0.0000
@<TRIPOS>BOND
     1    30    31    1
     2    31    32   ar
     3    32    26    1
     4    26    27    2
     5    26    28   am
     6    28     1    1
     7     1     2   ar
     8     2     3   ar
     9     3     4   ar
    10     4     7    1
    11     7     8    1
    12     8     9    1
    13     9    10    1
    14    10    13    1
    15    13    14    1
    16    14    15    1
    17    15    16   ar
    18    16    17   ar
    19    17    18   ar
    20    18    19    1
    21    18    20   ar
    22    20    22    1
    23    22    23    2
    24    22    24    1
    25    20    21   ar
    26    10    11    1
    27    11    12    1
    28     4     5   ar
    29     5     6   ar
    30    32    33   ar
    31    33    34   ar
    32    34    35   ar
    33    35    36   ar
    34    36    37   ar
    35    37    40    1
    36    40    41   ar
    37    41    42   ar
    38    42    43   ar
    39    43    44   ar
    40    44    45   ar
    41    37    38   ar
    42    38    39   ar
    43    39    31   ar
    44     6     1   ar
    45    39    34   ar
    46    12     7    1
    47    45    40   ar
    48    21    15   ar
    49    28    29    1
    50    24    25    1
