@<TRIPOS>MOLECULE
*****
 47 52 0 0 0
SMALL
GASTEIGER

@<TRIPOS>ATOM
      1 C          12.1344   81.3221   25.6654 C.ar    1  UNL1        0.0702
      2 C          13.1767   82.0296   26.2753 C.ar    1  UNL1        0.0191
      3 C          13.8107   83.0725   25.5989 C.ar    1  UNL1        0.0356
      4 C          13.3877   83.4195   24.3041 C.ar    1  UNL1        0.1318
      5 N          12.3500   82.7363   23.7441 N.ar    1  UNL1       -0.2279
      6 C          11.7204   81.7150   24.3827 C.ar    1  UNL1        0.1149
      7 N          14.0163   84.4934   23.5710 N.pl3   1  UNL1       -0.2932
      8 C          13.7185   85.8997   23.8940 C.3     1  UNL1        0.0923
      9 C          14.8631   86.8230   23.4589 C.3     1  UNL1        0.0252
     10 C          15.2176   86.6665   21.9586 C.3     1  UNL1        0.0472
     11 C          14.9793   85.2276   21.4304 C.3     1  UNL1        0.0252
     12 C          15.0261   84.1823   22.5475 C.3     1  UNL1        0.0923
     13 C          14.4605   87.6964   21.1036 C.3     1  UNL1        0.2054
     14 O          13.7710   87.0354   20.0442 O.3     1  UNL1       -0.4755
     15 C          13.9967   87.2722   18.6804 C.ar    1  UNL1        0.1388
     16 C          13.8846   88.5532   18.1089 C.ar    1  UNL1        0.0369
     17 C          14.1192   88.7358   16.7446 C.ar    1  UNL1        0.0033
     18 C          14.4663   87.6494   15.9385 C.ar    1  UNL1        0.0066
     19 C          14.5831   86.3623   16.4921 C.ar    1  UNL1        0.0785
     20 C          14.3454   86.1867   17.8670 C.ar    1  UNL1        0.0433
     21 C          14.9505   85.2068   15.6440 C.2     1  UNL1        0.3381
     22 O          14.4051   85.0410   14.5192 O.2     1  UNL1       -0.2451
     23 O          15.9034   84.2901   16.0807 O.3     1  UNL1       -0.4771
     24 H          16.1621   83.4956   15.5080 H       1  UNL1        0.2954
     25 C          11.4890   78.8867   25.9777 C.2     1  UNL1        0.2839
     26 O          12.3135   78.4922   25.1104 O.2     1  UNL1       -0.2665
     27 N          11.4753   80.2650   26.3841 N.am    1  UNL1       -0.2766
     28 H          11.0247   80.5050   27.2961 H       1  UNL1        0.1553
     29 C           8.2881   78.6987   25.6986 C.3     1  UNL1        0.0345
     30 C           9.1992   77.7957   26.4790 C.ar    1  UNL1        0.0214
     31 C          10.5866   77.9205   26.6362 C.ar    1  UNL1        0.1947
     32 O          11.0248   77.0158   27.4885 O.2     1  UNL1       -0.4492
     33 C          10.0048   76.2931   27.8757 C.ar    1  UNL1        0.1464
     34 C          10.0314   75.2510   28.7926 C.ar    1  UNL1        0.0376
     35 C           8.8263   74.6032   29.0921 C.ar    1  UNL1        0.0043
     36 C           7.6187   74.9829   28.4568 C.ar    1  UNL1        0.0131
     37 C           7.6182   76.0525   27.5159 C.ar    1  UNL1        0.0442
     38 N           6.4139   76.4396   26.8419 N.pl3   1  UNL1       -0.3569
     39 C           8.8442   76.7015   27.2634 C.ar    1  UNL1        0.0466
     40 H           5.4767   76.2558   27.2627 H       1  UNL1        0.1424
     41 H           6.4365   76.8017   25.8651 H       1  UNL1        0.1424
     42 C           6.3914   74.2126   28.7600 C.ar    1  UNL1        0.0012
     43 C           5.9894   73.1636   27.9160 C.ar    1  UNL1        0.0000
     44 C           4.8198   72.4476   28.1897 C.ar    1  UNL1        0.0000
     45 C           4.0396   72.7786   29.3009 C.ar    1  UNL1        0.0000
     46 C           4.4256   73.8287   30.1384 C.ar    1  UNL1        0.0000
     47 C           5.5942   74.5473   29.8683 C.ar    1  UNL1        0.0000
@<TRIPOS>BOND
     1    29    30    1
     2    30    31   ar
     3    31    25    1
     4    25    26    2
     5    25    27   am
     6    27     1    1
     7     1     2   ar
     8     2     3   ar
     9     3     4   ar
    10     4     7    1
    11     7     8    1
    12     8     9    1
    13     9    10    1
    14    10    13    1
    15    13    14    1
    16    14    15    1
    17    15    16   ar
    18    16    17   ar
    19    17    18   ar
    20    18    19   ar
    21    19    21    1
    22    21    22    2
    23    21    23    1
    24    19    20   ar
    25    10    11    1
    26    11    12    1
    27     4     5   ar
    28     5     6   ar
    29    31    32   ar
    30    32    33   ar
    31    33    34   ar
    32    34    35   ar
    33    35    36   ar
    34    36    42    1
    35    42    43   ar
    36    43    44   ar
    37    44    45   ar
    38    45    46   ar
    39    46    47   ar
    40    36    37   ar
    41    37    38    1
    42    37    39   ar
    43    39    30   ar
    44     6     1   ar
    45    39    33   ar
    46    12     7    1
    47    47    42   ar
    48    20    15   ar
    49    27    28    1
    50    23    24    1
    51    38    40    1
    52    38    41    1
@<TRIPOS>MOLECULE
*****
 47 52 0 0 0
SMALL
GASTEIGER

@<TRIPOS>ATOM
      1 C          12.1763   81.3837   25.6831 C.ar    1  UNL1        0.0702
      2 C          13.1147   82.1861   26.3422 C.ar    1  UNL1        0.0191
      3 C          13.7584   83.2209   25.6623 C.ar    1  UNL1        0.0356
      4 C          13.4493   83.4632   24.3126 C.ar    1  UNL1        0.1318
      5 N          12.5093   82.6883   23.7019 N.ar    1  UNL1       -0.2279
      6 C          11.8726   81.6730   24.3433 C.ar    1  UNL1        0.1149
      7 N          14.0917   84.5251   23.5738 N.pl3   1  UNL1       -0.2932
      8 C          13.9583   85.9279   24.0038 C.3     1  UNL1        0.0923
      9 C          15.1295   86.7775   23.4954 C.3     1  UNL1        0.0252
     10 C          15.3078   86.6879   21.9588 C.3     1  UNL1        0.0472
     11 C          14.8855   85.3109   21.3828 C.3     1  UNL1        0.0252
     12 C          14.9552   84.1960   22.4292 C.3     1  UNL1        0.0923
     13 C          14.5610   87.8304   21.2503 C.3     1  UNL1        0.2054
     14 O          13.6293   87.2939   20.3129 O.3     1  UNL1       -0.4755
     15 C          13.2237   87.9418   19.1370 C.ar    1  UNL1        0.1388
     16 C          12.0499   88.7150   19.0684 C.ar    1  UNL1        0.0369
     17 C          11.6899   89.3394   17.8726 C.ar    1  UNL1        0.0033
     18 C          12.4915   89.2013   16.7373 C.ar    1  UNL1        0.0066
     19 C          13.6679   88.4330   16.7871 C.ar    1  UNL1        0.0785
     20 C          14.0236   87.8073   17.9952 C.ar    1  UNL1        0.0433
     21 C          14.5218   88.2824   15.5881 C.2     1  UNL1        0.3381
     22 O          15.4214   89.1288   15.3341 O.2     1  UNL1       -0.2451
     23 O          14.3397   87.2028   14.7275 O.3     1  UNL1       -0.4771
     24 H          14.9188   87.0903   13.9040 H       1  UNL1        0.2954
     25 C          11.6120   78.9403   26.0787 C.2     1  UNL1        0.2839
     26 O          12.5239   78.5401   25.3068 O.2     1  UNL1       -0.2665
     27 N          11.5043   80.3360   26.4035 N.am    1  UNL1       -0.2766
     28 H          10.9675   80.6023   27.2598 H       1  UNL1        0.1553
     29 C           8.4018   78.8469   25.8656 C.3     1  UNL1        0.0345
     30 C           9.3056   77.8864   26.5834 C.ar    1  UNL1        0.0214
     31 C          10.6990   77.9685   26.7139 C.ar    1  UNL1        0.1947
     32 O          11.1316   77.0151   27.5143 O.2     1  UNL1       -0.4492
     33 C          10.1016   76.3018   27.8922 C.ar    1  UNL1        0.1464
     34 C          10.1207   75.2187   28.7606 C.ar    1  UNL1        0.0376
     35 C           8.9056   74.5889   29.0585 C.ar    1  UNL1        0.0043
     36 C           7.6949   75.0278   28.4690 C.ar    1  UNL1        0.0131
     37 C           7.7021   76.1388   27.5774 C.ar    1  UNL1        0.0442
     38 N           6.4940   76.5867   26.9494 N.pl3   1  UNL1       -0.3569
     39 C           8.9391   76.7670   27.3259 C.ar    1  UNL1        0.0466
     40 H           5.5618   76.4079   27.3831 H       1  UNL1        0.1424
     41 H           6.5048   76.9922   25.9896 H       1  UNL1        0.1424
     42 C           6.4545   74.2760   28.7656 C.ar    1  UNL1        0.0012
     43 C           6.0451   73.2285   27.9234 C.ar    1  UNL1        0.0000
     44 C           4.8635   72.5302   28.1908 C.ar    1  UNL1        0.0000
     45 C           4.0787   72.8774   29.2938 C.ar    1  UNL1        0.0000
     46 C           4.4722   73.9262   30.1293 C.ar    1  UNL1        0.0000
     47 C           5.6529   74.6273   29.8656 C.ar    1  UNL1        0.0000
@<TRIPOS>BOND
     1    29    30    1
     2    30    31   ar
     3    31    25    1
     4    25    26    2
     5    25    27   am
     6    27     1    1
     7     1     2   ar
     8     2     3   ar
     9     3     4   ar
    10     4     7    1
    11     7     8    1
    12     8     9    1
    13     9    10    1
    14    10    13    1
    15    13    14    1
    16    14    15    1
    17    15    16   ar
    18    16    17   ar
    19    17    18   ar
    20    18    19   ar
    21    19    21    1
    22    21    22    2
    23    21    23    1
    24    19    20   ar
    25    10    11    1
    26    11    12    1
    27     4     5   ar
    28     5     6   ar
    29    31    32   ar
    30    32    33   ar
    31    33    34   ar
    32    34    35   ar
    33    35    36   ar
    34    36    42    1
    35    42    43   ar
    36    43    44   ar
    37    44    45   ar
    38    45    46   ar
    39    46    47   ar
    40    36    37   ar
    41    37    38    1
    42    37    39   ar
    43    39    30   ar
    44     6     1   ar
    45    39    33   ar
    46    12     7    1
    47    47    42   ar
    48    20    15   ar
    49    27    28    1
    50    23    24    1
    51    38    40    1
    52    38    41    1
@<TRIPOS>MOLECULE
*****
 47 52 0 0 0
SMALL
GASTEIGER

@<TRIPOS>ATOM
      1 C          11.7933   80.7789   25.0687 C.ar    1  UNL1        0.0702
      2 C          13.1925   80.7483   25.0514 C.ar    1  UNL1        0.0191
      3 C          13.9179   81.8888   24.7044 C.ar    1  UNL1        0.0356
      4 C          13.2358   83.0755   24.3848 C.ar    1  UNL1        0.1318
      5 N          11.8742   83.0887   24.4394 N.ar    1  UNL1       -0.2279
      6 C          11.1472   81.9892   24.7710 C.ar    1  UNL1        0.1149
      7 N          13.9494   84.2778   24.0223 N.pl3   1  UNL1       -0.2932
      8 C          13.7527   85.5263   24.7792 C.3     1  UNL1        0.0923
      9 C          14.9665   86.4538   24.6443 C.3     1  UNL1        0.0252
     10 C          15.3239   86.7566   23.1673 C.3     1  UNL1        0.0472
     11 C          14.9857   85.5816   22.2127 C.3     1  UNL1        0.0252
     12 C          14.9439   84.2350   22.9392 C.3     1  UNL1        0.0923
     13 C          14.6536   88.0573   22.6942 C.3     1  UNL1        0.2054
     14 O          14.8503   88.2226   21.2911 O.3     1  UNL1       -0.4755
     15 C          13.8153   88.3649   20.3555 C.ar    1  UNL1        0.1388
     16 C          12.4571   88.3223   20.7210 C.ar    1  UNL1        0.0369
     17 C          11.4643   88.4686   19.7502 C.ar    1  UNL1        0.0033
     18 C          11.8119   88.6582   18.4110 C.ar    1  UNL1        0.0066
     19 C          13.1637   88.7037   18.0271 C.ar    1  UNL1        0.0785
     20 C          14.1577   88.5556   19.0108 C.ar    1  UNL1        0.0433
     21 C          13.5392   88.9042   16.6099 C.2     1  UNL1        0.3381
     22 O          12.6765   88.7866   15.6978 O.2     1  UNL1       -0.2451
     23 O          14.8508   89.2251   16.2698 O.3     1  UNL1       -0.4771
     24 H          15.1185   89.3644   15.3027 H       1  UNL1        0.2954
     25 C           9.9485   79.0720   24.7103 C.2     1  UNL1        0.2839
     26 O           9.7310   79.4620   23.5321 O.2     1  UNL1       -0.2665
     27 N          11.0602   79.6022   25.4508 N.am    1  UNL1       -0.2766
     28 H          11.4068   79.0598   26.2742 H       1  UNL1        0.1553
     29 C           8.5672   79.0791   27.6174 C.3     1  UNL1        0.0345
     30 C           8.4595   78.0295   26.5490 C.ar    1  UNL1        0.0214
     31 C           9.1099   78.0128   25.3073 C.ar    1  UNL1        0.1947
     32 O           8.8681   76.8742   24.6894 O.2     1  UNL1       -0.4492
     33 C           8.0768   76.1591   25.4478 C.ar    1  UNL1        0.1464
     34 C           7.6055   74.8816   25.1770 C.ar    1  UNL1        0.0376
     35 C           6.7755   74.2687   26.1243 C.ar    1  UNL1        0.0043
     36 C           6.4052   74.9443   27.3128 C.ar    1  UNL1        0.0131
     37 C           6.8983   76.2567   27.5656 C.ar    1  UNL1        0.0442
     38 N           6.5187   76.9705   28.7492 N.pl3   1  UNL1       -0.3569
     39 C           7.7565   76.8290   26.6042 C.ar    1  UNL1        0.0466
     40 H           6.2209   76.4650   29.6122 H       1  UNL1        0.1424
     41 H           6.4129   78.0071   28.7418 H       1  UNL1        0.1424
     42 C           5.4667   74.2735   28.2405 C.ar    1  UNL1        0.0012
     43 C           5.0995   72.9341   28.0275 C.ar    1  UNL1        0.0000
     44 C           4.1980   72.3046   28.8914 C.ar    1  UNL1        0.0000
     45 C           3.6503   73.0088   29.9671 C.ar    1  UNL1        0.0000
     46 C           4.0005   74.3451   30.1788 C.ar    1  UNL1        0.0000
     47 C           4.9016   74.9785   29.3174 C.ar    1  UNL1        0.0000
@<TRIPOS>BOND
     1    29    30    1
     2    30    31   ar
     3    31    25    1
     4    25    26    2
     5    25    27   am
     6    27     1    1
     7     1     2   ar
     8     2     3   ar
     9     3     4   ar
    10     4     7    1
    11     7     8    1
    12     8     9    1
    13     9    10    1
    14    10    13    1
    15    13    14    1
    16    14    15    1
    17    15    16   ar
    18    16    17   ar
    19    17    18   ar
    20    18    19   ar
    21    19    21    1
    22    21    22    2
    23    21    23    1
    24    19    20   ar
    25    10    11    1
    26    11    12    1
    27     4     5   ar
    28     5     6   ar
    29    31    32   ar
    30    32    33   ar
    31    33    34   ar
    32    34    35   ar
    33    35    36   ar
    34    36    42    1
    35    42    43   ar
    36    43    44   ar
    37    44    45   ar
    38    45    46   ar
    39    46    47   ar
    40    36    37   ar
    41    37    38    1
    42    37    39   ar
    43    39    30   ar
    44     6     1   ar
    45    39    33   ar
    46    12     7    1
    47    47    42   ar
    48    20    15   ar
    49    27    28    1
    50    23    24    1
    51    38    40    1
    52    38    41    1
@<TRIPOS>MOLECULE
*****
 47 52 0 0 0
SMALL
GASTEIGER

@<TRIPOS>ATOM
      1 C          11.8097   80.7188   25.1856 C.ar    1  UNL1        0.0702
      2 C          11.1352   81.9309   24.9986 C.ar    1  UNL1        0.0191
      3 C          11.8388   83.0801   24.6362 C.ar    1  UNL1        0.0356
      4 C          13.2298   83.0120   24.4457 C.ar    1  UNL1        0.1318
      5 N          13.8591   81.8135   24.6031 N.ar    1  UNL1       -0.2279
      6 C          13.1948   80.6825   24.9592 C.ar    1  UNL1        0.1149
      7 N          13.9944   84.1779   24.0688 N.pl3   1  UNL1       -0.2932
      8 C          13.6357   85.5111   24.5831 C.3     1  UNL1        0.0923
      9 C          14.8444   86.4549   24.5683 C.3     1  UNL1        0.0252
     10 C          15.4986   86.5634   23.1679 C.3     1  UNL1        0.0472
     11 C          15.3745   85.2561   22.3422 C.3     1  UNL1        0.0252
     12 C          15.1925   84.0223   23.2295 C.3     1  UNL1        0.0923
     13 C          14.9317   87.7607   22.3867 C.3     1  UNL1        0.2054
     14 O          15.2022   87.6046   20.9949 O.3     1  UNL1       -0.4755
     15 C          14.5233   86.7156   20.1489 C.ar    1  UNL1        0.1388
     16 C          13.1304   86.7722   19.9570 C.ar    1  UNL1        0.0369
     17 C          12.5022   85.8628   19.1038 C.ar    1  UNL1        0.0033
     18 C          13.2510   84.8918   18.4355 C.ar    1  UNL1        0.0066
     19 C          14.6437   84.8202   18.6147 C.ar    1  UNL1        0.0785
     20 C          15.2690   85.7397   19.4755 C.ar    1  UNL1        0.0433
     21 C          15.4432   83.7939   17.9097 C.2     1  UNL1        0.3381
     22 O          15.5138   83.7927   16.6507 O.2     1  UNL1       -0.2451
     23 O          16.1264   82.8183   18.6312 O.3     1  UNL1       -0.4771
     24 H          16.6765   82.1111   18.1585 H       1  UNL1        0.2954
     25 C           9.9864   79.0059   24.7534 C.2     1  UNL1        0.2839
     26 O           9.8112   79.3990   23.5692 O.2     1  UNL1       -0.2665
     27 N          11.0677   79.5379   25.5364 N.am    1  UNL1       -0.2766
     28 H          11.3857   78.9941   26.3704 H       1  UNL1        0.1553
     29 C           8.5940   78.9454   27.6546 C.3     1  UNL1        0.0345
     30 C           8.4756   77.9301   26.5548 C.ar    1  UNL1        0.0214
     31 C           9.1306   77.9414   25.3154 C.ar    1  UNL1        0.1947
     32 O           8.8751   76.8253   24.6627 O.2     1  UNL1       -0.4492
     33 C           8.0707   76.0992   25.3965 C.ar    1  UNL1        0.1464
     34 C           7.5825   74.8373   25.0858 C.ar    1  UNL1        0.0376
     35 C           6.7402   74.2082   26.0113 C.ar    1  UNL1        0.0043
     36 C           6.3748   74.8530   27.2182 C.ar    1  UNL1        0.0131
     37 C           6.8854   76.1501   27.5121 C.ar    1  UNL1        0.0442
     38 N           6.5114   76.8334   28.7153 N.pl3   1  UNL1       -0.3569
     39 C           7.7554   76.7386   26.5714 C.ar    1  UNL1        0.0466
     40 H           6.2031   76.3065   29.5617 H       1  UNL1        0.1424
     41 H           6.4204   77.8711   28.7387 H       1  UNL1        0.1424
     42 C           5.4233   74.1681   28.1221 C.ar    1  UNL1        0.0012
     43 C           4.8259   74.8707   29.1822 C.ar    1  UNL1        0.0000
     44 C           3.9420   74.2205   30.0490 C.ar    1  UNL1        0.0000
     45 C           3.6552   72.8645   29.8698 C.ar    1  UNL1        0.0000
     46 C           4.2548   72.1553   28.8255 C.ar    1  UNL1        0.0000
     47 C           5.1394   72.8014   27.9565 C.ar    1  UNL1        0.0000
@<TRIPOS>BOND
     1    29    30    1
     2    30    31   ar
     3    31    25    1
     4    25    26    2
     5    25    27   am
     6    27     1    1
     7     1     2   ar
     8     2     3   ar
     9     3     4   ar
    10     4     7    1
    11     7     8    1
    12     8     9    1
    13     9    10    1
    14    10    13    1
    15    13    14    1
    16    14    15    1
    17    15    16   ar
    18    16    17   ar
    19    17    18   ar
    20    18    19   ar
    21    19    21    1
    22    21    22    2
    23    21    23    1
    24    19    20   ar
    25    10    11    1
    26    11    12    1
    27     4     5   ar
    28     5     6   ar
    29    31    32   ar
    30    32    33   ar
    31    33    34   ar
    32    34    35   ar
    33    35    36   ar
    34    36    42    1
    35    42    43   ar
    36    43    44   ar
    37    44    45   ar
    38    45    46   ar
    39    46    47   ar
    40    36    37   ar
    41    37    38    1
    42    37    39   ar
    43    39    30   ar
    44     6     1   ar
    45    39    33   ar
    46    12     7    1
    47    47    42   ar
    48    20    15   ar
    49    27    28    1
    50    23    24    1
    51    38    40    1
    52    38    41    1
@<TRIPOS>MOLECULE
*****
 47 52 0 0 0
SMALL
GASTEIGER

@<TRIPOS>ATOM
      1 C          12.9957   83.2311   25.3063 C.ar    1  UNL1        0.0702
      2 C          13.6117   84.1071   26.2076 C.ar    1  UNL1        0.0191
      3 C          14.2749   85.2438   25.7436 C.ar    1  UNL1        0.0356
      4 C          14.3100   85.5133   24.3645 C.ar    1  UNL1        0.1318
      5 N          13.6759   84.6620   23.5098 N.ar    1  UNL1       -0.2279
      6 C          13.0272   83.5474   23.9389 C.ar    1  UNL1        0.1149
      7 N          14.9842   86.6797   23.8439 N.pl3   1  UNL1       -0.2932
      8 C          14.2153   87.8386   23.3578 C.3     1  UNL1        0.0923
      9 C          15.0506   89.1233   23.4184 C.3     1  UNL1        0.0252
     10 C          16.3945   88.9967   22.6576 C.3     1  UNL1        0.0472
     11 C          16.9674   87.5554   22.6827 C.3     1  UNL1        0.0252
     12 C          16.4535   86.7455   23.8754 C.3     1  UNL1        0.0923
     13 C          16.2598   89.5076   21.2134 C.3     1  UNL1        0.2054
     14 O          16.2095   88.4045   20.3105 O.3     1  UNL1       -0.4755
     15 C          15.0364   87.7249   19.9516 C.ar    1  UNL1        0.1388
     16 C          14.9444   86.3208   19.9640 C.ar    1  UNL1        0.0369
     17 C          13.7528   85.6924   19.5969 C.ar    1  UNL1        0.0033
     18 C          12.6449   86.4522   19.2153 C.ar    1  UNL1        0.0066
     19 C          12.7182   87.8562   19.1970 C.ar    1  UNL1        0.0785
     20 C          13.9218   88.4815   19.5683 C.ar    1  UNL1        0.0433
     21 C          11.5483   88.6675   18.7937 C.2     1  UNL1        0.3381
     22 O          11.6032   89.4036   17.7714 O.2     1  UNL1       -0.2451
     23 O          10.3738   88.6257   19.5407 O.3     1  UNL1       -0.4771
     24 H           9.5672   89.1772   19.2734 H       1  UNL1        0.2954
     25 C          11.2450   81.4057   25.0868 C.2     1  UNL1        0.2839
     26 O          11.0677   81.6368   23.8609 O.2     1  UNL1       -0.2665
     27 N          12.2963   82.0762   25.8014 N.am    1  UNL1       -0.2766
     28 H          12.6259   81.6567   26.7001 H       1  UNL1        0.1553
     29 C           9.5560   79.0188   23.7419 C.3     1  UNL1        0.0345
     30 C           9.7307   79.3134   25.2038 C.ar    1  UNL1        0.0214
     31 C          10.4250   80.3886   25.7757 C.ar    1  UNL1        0.1947
     32 O          10.2582   80.3860   27.0830 O.2     1  UNL1       -0.4492
     33 C           9.5151   79.3555   27.3968 C.ar    1  UNL1        0.1464
     34 C           9.0816   79.0064   28.6687 C.ar    1  UNL1        0.0376
     35 C           8.2749   77.8693   28.8032 C.ar    1  UNL1        0.0043
     36 C           7.9335   77.0821   27.6763 C.ar    1  UNL1        0.0131
     37 C           8.3945   77.4587   26.3821 C.ar    1  UNL1        0.0442
     38 N           8.0828   76.6653   25.2298 N.pl3   1  UNL1       -0.3569
     39 C           9.1781   78.6266   26.2816 C.ar    1  UNL1        0.0466
     40 H           7.2375   76.0536   25.2081 H       1  UNL1        0.1424
     41 H           8.7520   76.5842   24.4352 H       1  UNL1        0.1424
     42 C           7.1394   75.8515   27.8919 C.ar    1  UNL1        0.0012
     43 C           5.8007   75.7916   27.4693 C.ar    1  UNL1        0.0000
     44 C           5.0431   74.6372   27.6897 C.ar    1  UNL1        0.0000
     45 C           5.6124   73.5391   28.3403 C.ar    1  UNL1        0.0000
     46 C           6.9393   73.5950   28.7751 C.ar    1  UNL1        0.0000
     47 C           7.7005   74.7474   28.5569 C.ar    1  UNL1        0.0000
@<TRIPOS>BOND
     1    29    30    1
     2    30    31   ar
     3    31    25    1
     4    25    26    2
     5    25    27   am
     6    27     1    1
     7     1     2   ar
     8     2     3   ar
     9     3     4   ar
    10     4     7    1
    11     7     8    1
    12     8     9    1
    13     9    10    1
    14    10    13    1
    15    13    14    1
    16    14    15    1
    17    15    16   ar
    18    16    17   ar
    19    17    18   ar
    20    18    19   ar
    21    19    21    1
    22    21    22    2
    23    21    23    1
    24    19    20   ar
    25    10    11    1
    26    11    12    1
    27     4     5   ar
    28     5     6   ar
    29    31    32   ar
    30    32    33   ar
    31    33    34   ar
    32    34    35   ar
    33    35    36   ar
    34    36    42    1
    35    42    43   ar
    36    43    44   ar
    37    44    45   ar
    38    45    46   ar
    39    46    47   ar
    40    36    37   ar
    41    37    38    1
    42    37    39   ar
    43    39    30   ar
    44     6     1   ar
    45    39    33   ar
    46    12     7    1
    47    47    42   ar
    48    20    15   ar
    49    27    28    1
    50    23    24    1
    51    38    40    1
    52    38    41    1
@<TRIPOS>MOLECULE
*****
 47 52 0 0 0
SMALL
GASTEIGER

@<TRIPOS>ATOM
      1 C          13.3031   83.3992   24.4935 C.ar    1  UNL1        0.0702
      2 C          12.7986   84.6717   24.7851 C.ar    1  UNL1        0.0191
      3 C          13.2605   85.7894   24.0888 C.ar    1  UNL1        0.0356
      4 C          14.2272   85.6294   23.0810 C.ar    1  UNL1        0.1318
      5 N          14.6797   84.3763   22.7942 N.ar    1  UNL1       -0.2279
      6 C          14.2469   83.2744   23.4617 C.ar    1  UNL1        0.1149
      7 N          14.7300   86.7600   22.3361 N.pl3   1  UNL1       -0.2932
      8 C          13.8628   87.9152   22.0459 C.3     1  UNL1        0.0923
      9 C          14.6907   89.1832   21.8041 C.3     1  UNL1        0.0252
     10 C          15.7520   88.9987   20.6902 C.3     1  UNL1        0.0472
     11 C          16.2942   87.5476   20.6095 C.3     1  UNL1        0.0252
     12 C          16.1447   86.7958   21.9343 C.3     1  UNL1        0.0923
     13 C          15.2050   89.4558   19.3275 C.3     1  UNL1        0.2054
     14 O          14.3071   88.4752   18.8109 O.3     1  UNL1       -0.4755
     15 C          14.4493   87.8461   17.5655 C.ar    1  UNL1        0.1388
     16 C          14.4785   88.5651   16.3563 C.ar    1  UNL1        0.0369
     17 C          14.6215   87.8906   15.1422 C.ar    1  UNL1        0.0033
     18 C          14.7365   86.4990   15.1194 C.ar    1  UNL1        0.0066
     19 C          14.7096   85.7639   16.3176 C.ar    1  UNL1        0.0785
     20 C          14.5654   86.4506   17.5363 C.ar    1  UNL1        0.0433
     21 C          14.8309   84.2892   16.3008 C.2     1  UNL1        0.3381
     22 O          15.6812   83.7099   17.0297 O.2     1  UNL1       -0.2451
     23 O          14.0057   83.5262   15.4786 O.3     1  UNL1       -0.4771
     24 H          14.0806   82.5161   15.4595 H       1  UNL1        0.2954
     25 C          11.7126   81.4361   24.7423 C.2     1  UNL1        0.2839
     26 O          11.3193   81.5231   23.5483 O.2     1  UNL1       -0.2665
     27 N          12.8004   82.2541   25.2036 N.am    1  UNL1       -0.2766
     28 H          13.3076   81.9571   26.0678 H       1  UNL1        0.1553
     29 C          11.8745   78.2301   24.5084 C.3     1  UNL1        0.0345
     30 C          11.2206   79.0430   25.5883 C.ar    1  UNL1        0.0214
     31 C          11.1103   80.4392   25.6504 C.ar    1  UNL1        0.1947
     32 O          10.3654   80.7850   26.6811 O.2     1  UNL1       -0.4492
     33 C          10.0053   79.6940   27.3078 C.ar    1  UNL1        0.1464
     34 C           9.1918   79.6164   28.4302 C.ar    1  UNL1        0.0376
     35 C           8.9043   78.3486   28.9517 C.ar    1  UNL1        0.0043
     36 C           9.4505   77.1802   28.3665 C.ar    1  UNL1        0.0131
     37 C          10.2863   77.2865   27.2178 C.ar    1  UNL1        0.0442
     38 N          10.8705   76.1211   26.6220 N.pl3   1  UNL1       -0.3569
     39 C          10.5279   78.5765   26.7024 C.ar    1  UNL1        0.0466
     40 H          10.4301   75.1812   26.7299 H       1  UNL1        0.1424
     41 H          11.8092   76.1602   26.1714 H       1  UNL1        0.1424
     42 C           9.1698   75.8752   29.0066 C.ar    1  UNL1        0.0012
     43 C           7.8780   75.5814   29.4746 C.ar    1  UNL1        0.0000
     44 C           7.6154   74.3572   30.0972 C.ar    1  UNL1        0.0000
     45 C           8.6407   73.4224   30.2650 C.ar    1  UNL1        0.0000
     46 C           9.9312   73.7118   29.8137 C.ar    1  UNL1        0.0000
     47 C          10.1982   74.9347   29.1907 C.ar    1  UNL1        0.0000
@<TRIPOS>BOND
     1    29    30    1
     2    30    31   ar
     3    31    25    1
     4    25    26    2
     5    25    27   am
     6    27     1    1
     7     1     2   ar
     8     2     3   ar
     9     3     4   ar
    10     4     7    1
    11     7     8    1
    12     8     9    1
    13     9    10    1
    14    10    13    1
    15    13    14    1
    16    14    15    1
    17    15    16   ar
    18    16    17   ar
    19    17    18   ar
    20    18    19   ar
    21    19    21    1
    22    21    22    2
    23    21    23    1
    24    19    20   ar
    25    10    11    1
    26    11    12    1
    27     4     5   ar
    28     5     6   ar
    29    31    32   ar
    30    32    33   ar
    31    33    34   ar
    32    34    35   ar
    33    35    36   ar
    34    36    42    1
    35    42    43   ar
    36    43    44   ar
    37    44    45   ar
    38    45    46   ar
    39    46    47   ar
    40    36    37   ar
    41    37    38    1
    42    37    39   ar
    43    39    30   ar
    44     6     1   ar
    45    39    33   ar
    46    12     7    1
    47    47    42   ar
    48    20    15   ar
    49    27    28    1
    50    23    24    1
    51    38    40    1
    52    38    41    1
@<TRIPOS>MOLECULE
*****
 47 52 0 0 0
SMALL
GASTEIGER

@<TRIPOS>ATOM
      1 C          10.0591   80.0248   23.8470 C.ar    1  UNL1        0.0702
      2 C           9.7817   79.4926   22.5825 C.ar    1  UNL1        0.0191
      3 C           9.0107   78.3361   22.4584 C.ar    1  UNL1        0.0356
      4 C           8.5009   77.7140   23.6112 C.ar    1  UNL1        0.1318
      5 N           8.7586   78.2691   24.8288 N.ar    1  UNL1       -0.2279
      6 C           9.5098   79.3925   24.9737 C.ar    1  UNL1        0.1149
      7 N           7.6974   76.5169   23.5257 N.pl3   1  UNL1       -0.2932
      8 C           7.9336   75.3858   24.4398 C.3     1  UNL1        0.0923
      9 C           6.6741   74.5244   24.5931 C.3     1  UNL1        0.0252
     10 C           6.1234   74.0266   23.2330 C.3     1  UNL1        0.0472
     11 C           6.3899   75.0228   22.0743 C.3     1  UNL1        0.0252
     12 C           6.5787   76.4578   22.5723 C.3     1  UNL1        0.0923
     13 C           6.6739   72.6314   22.8935 C.3     1  UNL1        0.2054
     14 O           7.6231   72.7286   21.8331 O.3     1  UNL1       -0.4755
     15 C           9.0112   72.8112   22.0151 C.ar    1  UNL1        0.1388
     16 C           9.7810   71.7172   22.4519 C.ar    1  UNL1        0.0369
     17 C          11.1608   71.8519   22.6180 C.ar    1  UNL1        0.0033
     18 C          11.7860   73.0720   22.3520 C.ar    1  UNL1        0.0066
     19 C          11.0331   74.1759   21.9145 C.ar    1  UNL1        0.0785
     20 C           9.6440   74.0322   21.7495 C.ar    1  UNL1        0.0433
     21 C          11.6890   75.4717   21.6308 C.2     1  UNL1        0.3381
     22 O          12.4590   75.9973   22.4798 O.2     1  UNL1       -0.2451
     23 O          11.4617   76.1238   20.4216 O.3     1  UNL1       -0.4771
     24 H          11.9056   77.0112   20.2174 H       1  UNL1        0.2954
     25 C          12.1841   81.2751   24.4521 C.2     1  UNL1        0.2839
     26 O          12.8526   80.2125   24.5608 O.2     1  UNL1       -0.2665
     27 N          10.8356   81.2302   23.9574 N.am    1  UNL1       -0.2766
     28 H          10.4185   82.1127   23.5839 H       1  UNL1        0.1553
     29 C          13.0789   82.3831   27.3384 C.3     1  UNL1        0.0345
     30 C          13.2512   83.0474   26.0029 C.ar    1  UNL1        0.0214
     31 C          12.8083   82.5782   24.7583 C.ar    1  UNL1        0.1947
     32 O          13.0318   83.4872   23.8307 O.2     1  UNL1       -0.4492
     33 C          13.6178   84.5113   24.3966 C.ar    1  UNL1        0.1464
     34 C          13.9978   85.6930   23.7748 C.ar    1  UNL1        0.0376
     35 C          14.6019   86.6864   24.5560 C.ar    1  UNL1        0.0043
     36 C          14.8431   86.4801   25.9363 C.ar    1  UNL1        0.0131
     37 C          14.4481   85.2568   26.5503 C.ar    1  UNL1        0.0442
     38 N          14.7029   85.0145   27.9398 N.pl3   1  UNL1       -0.3569
     39 C          13.8145   84.2931   25.7391 C.ar    1  UNL1        0.0466
     40 H          14.8082   85.8033   28.6149 H       1  UNL1        0.1424
     41 H          14.9103   84.0551   28.2896 H       1  UNL1        0.1424
     42 C          15.5512   87.5374   26.6928 C.ar    1  UNL1        0.0012
     43 C          16.8838   87.8562   26.3820 C.ar    1  UNL1        0.0000
     44 C          17.5607   88.8409   27.1083 C.ar    1  UNL1        0.0000
     45 C          16.9164   89.5071   28.1543 C.ar    1  UNL1        0.0000
     46 C          15.5951   89.1872   28.4782 C.ar    1  UNL1        0.0000
     47 C          14.9146   88.2032   27.7546 C.ar    1  UNL1        0.0000
@<TRIPOS>BOND
     1    29    30    1
     2    30    31   ar
     3    31    25    1
     4    25    26    2
     5    25    27   am
     6    27     1    1
     7     1     2   ar
     8     2     3   ar
     9     3     4   ar
    10     4     7    1
    11     7     8    1
    12     8     9    1
    13     9    10    1
    14    10    13    1
    15    13    14    1
    16    14    15    1
    17    15    16   ar
    18    16    17   ar
    19    17    18   ar
    20    18    19   ar
    21    19    21    1
    22    21    22    2
    23    21    23    1
    24    19    20   ar
    25    10    11    1
    26    11    12    1
    27     4     5   ar
    28     5     6   ar
    29    31    32   ar
    30    32    33   ar
    31    33    34   ar
    32    34    35   ar
    33    35    36   ar
    34    36    42    1
    35    42    43   ar
    36    43    44   ar
    37    44    45   ar
    38    45    46   ar
    39    46    47   ar
    40    36    37   ar
    41    37    38    1
    42    37    39   ar
    43    39    30   ar
    44     6     1   ar
    45    39    33   ar
    46    12     7    1
    47    47    42   ar
    48    20    15   ar
    49    27    28    1
    50    23    24    1
    51    38    40    1
    52    38    41    1
@<TRIPOS>MOLECULE
*****
 47 52 0 0 0
SMALL
GASTEIGER

@<TRIPOS>ATOM
      1 C          12.8895   82.3091   24.8755 C.ar    1  UNL1        0.0702
      2 C          13.2612   82.2094   26.2212 C.ar    1  UNL1        0.0191
      3 C          13.7326   83.3298   26.9067 C.ar    1  UNL1        0.0356
      4 C          13.8197   84.5652   26.2420 C.ar    1  UNL1        0.1318
      5 N          13.4221   84.6435   24.9409 N.ar    1  UNL1       -0.2279
      6 C          12.9634   83.5650   24.2526 C.ar    1  UNL1        0.1149
      7 N          14.3005   85.7486   26.9161 N.pl3   1  UNL1       -0.2932
      8 C          14.4437   87.0222   26.1894 C.3     1  UNL1        0.0923
      9 C          14.3799   88.2178   27.1478 C.3     1  UNL1        0.0252
     10 C          15.4180   88.1188   28.2939 C.3     1  UNL1        0.0472
     11 C          15.7191   86.6549   28.7091 C.3     1  UNL1        0.0252
     12 C          14.5716   85.7035   28.3612 C.3     1  UNL1        0.0923
     13 C          16.7137   88.8623   27.9289 C.3     1  UNL1        0.2054
     14 O          16.5642   89.5070   26.6653 O.3     1  UNL1       -0.4755
     15 C          17.3753   89.2616   25.5478 C.ar    1  UNL1        0.1388
     16 C          18.7806   89.2944   25.6141 C.ar    1  UNL1        0.0369
     17 C          19.5430   89.0434   24.4716 C.ar    1  UNL1        0.0033
     18 C          18.9169   88.7583   23.2562 C.ar    1  UNL1        0.0066
     19 C          17.5140   88.7211   23.1710 C.ar    1  UNL1        0.0785
     20 C          16.7532   88.9749   24.3262 C.ar    1  UNL1        0.0433
     21 C          16.8440   88.4198   21.8865 C.2     1  UNL1        0.3381
     22 O          15.7149   88.9157   21.6232 O.2     1  UNL1       -0.2451
     23 O          17.4550   87.5843   20.9549 O.3     1  UNL1       -0.4771
     24 H          17.0049   87.3715   20.0727 H       1  UNL1        0.2954
     25 C          11.0462   80.6475   24.3401 C.2     1  UNL1        0.2839
     26 O          10.1598   81.3618   24.8803 O.2     1  UNL1       -0.2665
     27 N          12.3837   81.1510   24.1890 N.am    1  UNL1       -0.2766
     28 H          13.0041   80.6959   23.4817 H       1  UNL1        0.1553
     29 C          12.0279   77.7714   25.3998 C.3     1  UNL1        0.0345
     30 C          11.0745   78.0629   24.2771 C.ar    1  UNL1        0.0214
     31 C          10.6967   79.3221   23.7901 C.ar    1  UNL1        0.1947
     32 O           9.9400   79.1808   22.7204 O.2     1  UNL1       -0.4492
     33 C           9.7834   77.9007   22.4982 C.ar    1  UNL1        0.1464
     34 C           9.0776   77.3243   21.4508 C.ar    1  UNL1        0.0376
     35 C           9.0361   75.9265   21.3719 C.ar    1  UNL1        0.0043
     36 C           9.6735   75.1233   22.3489 C.ar    1  UNL1        0.0131
     37 C          10.3878   75.7387   23.4168 C.ar    1  UNL1        0.0442
     38 N          11.0208   74.9482   24.4311 N.pl3   1  UNL1       -0.3569
     39 C          10.4343   77.1477   23.4458 C.ar    1  UNL1        0.0466
     40 H          11.3205   73.9666   24.2419 H       1  UNL1        0.1424
     41 H          11.0879   75.2873   25.4141 H       1  UNL1        0.1424
     42 C           9.5324   73.6529   22.2526 C.ar    1  UNL1        0.0012
     43 C          10.6658   72.8272   22.3418 C.ar    1  UNL1        0.0000
     44 C          10.5370   71.4392   22.2313 C.ar    1  UNL1        0.0000
     45 C           9.2793   70.8667   22.0225 C.ar    1  UNL1        0.0000
     46 C           8.1486   71.6815   21.9200 C.ar    1  UNL1        0.0000
     47 C           8.2728   73.0699   22.0298 C.ar    1  UNL1        0.0000
@<TRIPOS>BOND
     1    29    30    1
     2    30    31   ar
     3    31    25    1
     4    25    26    2
     5    25    27   am
     6    27     1    1
     7     1     2   ar
     8     2     3   ar
     9     3     4   ar
    10     4     7    1
    11     7     8    1
    12     8     9    1
    13     9    10    1
    14    10    13    1
    15    13    14    1
    16    14    15    1
    17    15    16   ar
    18    16    17   ar
    19    17    18   ar
    20    18    19   ar
    21    19    21    1
    22    21    22    2
    23    21    23    1
    24    19    20   ar
    25    10    11    1
    26    11    12    1
    27     4     5   ar
    28     5     6   ar
    29    31    32   ar
    30    32    33   ar
    31    33    34   ar
    32    34    35   ar
    33    35    36   ar
    34    36    42    1
    35    42    43   ar
    36    43    44   ar
    37    44    45   ar
    38    45    46   ar
    39    46    47   ar
    40    36    37   ar
    41    37    38    1
    42    37    39   ar
    43    39    30   ar
    44     6     1   ar
    45    39    33   ar
    46    12     7    1
    47    47    42   ar
    48    20    15   ar
    49    27    28    1
    50    23    24    1
    51    38    40    1
    52    38    41    1
@<TRIPOS>MOLECULE
*****
 47 52 0 0 0
SMALL
GASTEIGER

@<TRIPOS>ATOM
      1 C          13.0772   82.8881   24.8595 C.ar    1  UNL1        0.0702
      2 C          12.6736   84.2257   24.9442 C.ar    1  UNL1        0.0191
      3 C          13.3353   85.2093   24.2081 C.ar    1  UNL1        0.0356
      4 C          14.4031   84.8481   23.3683 C.ar    1  UNL1        0.1318
      5 N          14.7568   83.5351   23.2790 N.ar    1  UNL1       -0.2279
      6 C          14.1291   82.5610   23.9892 C.ar    1  UNL1        0.1149
      7 N          15.1128   85.8353   22.5887 N.pl3   1  UNL1       -0.2932
      8 C          15.5244   87.1153   23.1910 C.3     1  UNL1        0.0923
      9 C          16.7164   87.7230   22.4417 C.3     1  UNL1        0.0252
     10 C          16.4444   87.8909   20.9255 C.3     1  UNL1        0.0472
     11 C          15.4925   86.8042   20.3604 C.3     1  UNL1        0.0252
     12 C          15.5014   85.5270   21.2038 C.3     1  UNL1        0.0923
     13 C          15.9132   89.3001   20.6142 C.3     1  UNL1        0.2054
     14 O          14.5200   89.3708   20.9120 O.3     1  UNL1       -0.4755
     15 C          13.4966   89.1994   19.9685 C.ar    1  UNL1        0.1388
     16 C          12.1638   88.9428   20.3398 C.ar    1  UNL1        0.0369
     17 C          11.1818   88.7792   19.3609 C.ar    1  UNL1        0.0033
     18 C          11.5151   88.8690   18.0076 C.ar    1  UNL1        0.0066
     19 C          12.8414   89.1251   17.6178 C.ar    1  UNL1        0.0785
     20 C          13.8246   89.2888   18.6098 C.ar    1  UNL1        0.0433
     21 C          13.2016   89.2216   16.1858 C.2     1  UNL1        0.3381
     22 O          12.3229   89.0692   15.2944 O.2     1  UNL1       -0.2451
     23 O          14.5166   89.4819   15.8086 O.3     1  UNL1       -0.4771
     24 H          14.7738   89.5499   14.8312 H       1  UNL1        0.2954
     25 C          11.1338   81.2868   25.1815 C.2     1  UNL1        0.2839
     26 O          10.7434   81.4226   23.9912 O.2     1  UNL1       -0.2665
     27 N          12.3706   81.8826   25.6063 N.am    1  UNL1       -0.2766
     28 H          12.8248   81.5107   26.4710 H       1  UNL1        0.1553
     29 C           9.1765   78.8338   24.4662 C.3     1  UNL1        0.0345
     30 C           9.5512   79.3467   25.8268 C.ar    1  UNL1        0.0214
     31 C          10.3626   80.4507   26.1237 C.ar    1  UNL1        0.1947
     32 O          10.3652   80.6690   27.4233 O.2     1  UNL1       -0.4492
     33 C           9.6214   79.7544   27.9916 C.ar    1  UNL1        0.1464
     34 C           9.3392   79.6438   29.3464 C.ar    1  UNL1        0.0376
     35 C           8.5043   78.5998   29.7646 C.ar    1  UNL1        0.0043
     36 C           7.9846   77.6667   28.8343 C.ar    1  UNL1        0.0131
     37 C           8.2925   77.7990   27.4498 C.ar    1  UNL1        0.0442
     38 N           7.7987   76.8538   26.4921 N.pl3   1  UNL1       -0.3569
     39 C           9.1103   78.8805   27.0624 C.ar    1  UNL1        0.0466
     40 H           6.9300   76.3047   26.6741 H       1  UNL1        0.1424
     41 H           8.3556   76.6016   25.6484 H       1  UNL1        0.1424
     42 C           7.1683   76.5428   29.3461 C.ar    1  UNL1        0.0012
     43 C           7.7831   75.3348   29.7165 C.ar    1  UNL1        0.0000
     44 C           7.0117   74.2652   30.1816 C.ar    1  UNL1        0.0000
     45 C           5.6227   74.3900   30.2716 C.ar    1  UNL1        0.0000
     46 C           5.0022   75.5836   29.8933 C.ar    1  UNL1        0.0000
     47 C           5.7696   76.6557   29.4276 C.ar    1  UNL1        0.0000
@<TRIPOS>BOND
     1    29    30    1
     2    30    31   ar
     3    31    25    1
     4    25    26    2
     5    25    27   am
     6    27     1    1
     7     1     2   ar
     8     2     3   ar
     9     3     4   ar
    10     4     7    1
    11     7     8    1
    12     8     9    1
    13     9    10    1
    14    10    13    1
    15    13    14    1
    16    14    15    1
    17    15    16   ar
    18    16    17   ar
    19    17    18   ar
    20    18    19   ar
    21    19    21    1
    22    21    22    2
    23    21    23    1
    24    19    20   ar
    25    10    11    1
    26    11    12    1
    27     4     5   ar
    28     5     6   ar
    29    31    32   ar
    30    32    33   ar
    31    33    34   ar
    32    34    35   ar
    33    35    36   ar
    34    36    42    1
    35    42    43   ar
    36    43    44   ar
    37    44    45   ar
    38    45    46   ar
    39    46    47   ar
    40    36    37   ar
    41    37    38    1
    42    37    39   ar
    43    39    30   ar
    44     6     1   ar
    45    39    33   ar
    46    12     7    1
    47    47    42   ar
    48    20    15   ar
    49    27    28    1
    50    23    24    1
    51    38    40    1
    52    38    41    1
