@<TRIPOS>MOLECULE
*****
 38 42 0 0 0
SMALL
GASTEIGER

@<TRIPOS>ATOM
      1 C          -8.0752  -16.7361   24.4839 C.ar    1  UNL1        0.0674
      2 C          -8.7037  -17.9789   24.2230 C.ar    1  UNL1        0.0190
      3 C          -9.5440  -18.6025   25.1886 C.ar    1  UNL1        0.0375
      4 C          -9.7535  -17.9647   26.4334 C.ar    1  UNL1        0.0215
      5 C          -9.1244  -16.7468   26.6615 C.ar    1  UNL1        0.0769
      6 N          -9.1860  -15.9812   27.7584 N.ar    1  UNL1       -0.3373
      7 C          -8.3955  -14.9182   27.4613 C.ar    1  UNL1        0.1406
      8 N          -7.8470  -14.9915   26.2199 N.ar    1  UNL1       -0.2258
      9 C          -8.3188  -16.1554   25.7367 C.ar    1  UNL1        0.1116
     10 H          -9.7052  -16.1859   28.6406 H       1  UNL1        0.1674
     11 N          -5.5305  -14.7974   21.5264 N.3     1  UNL1       -0.2647
     12 C          -6.9558  -15.1027   21.2535 C.3     1  UNL1        0.0941
     13 C          -7.4718  -16.3016   22.0585 C.3     1  UNL1        0.1082
     14 N          -7.2297  -16.1030   23.4949 N.pl3   1  UNL1       -0.3034
     15 C          -6.1387  -15.2126   23.9149 C.3     1  UNL1        0.1082
     16 C          -5.0289  -15.2034   22.8600 C.3     1  UNL1        0.0941
     17 C          -4.6078  -15.1547   20.4255 C.3     1  UNL1        0.1200
     18 N          -2.4343  -18.0461   21.1171 N.ar    1  UNL1       -0.3128
     19 C          -1.7223  -16.9868   21.5472 C.ar    1  UNL1        0.1780
     20 N          -2.3736  -15.8194   21.3733 N.ar    1  UNL1       -0.2273
     21 C          -3.5577  -16.1659   20.8254 C.ar    1  UNL1        0.0885
     22 C          -3.6063  -17.5460   20.6760 C.ar    1  UNL1        0.0537
     23 C          -4.6851  -18.3628   20.0238 C.3     1  UNL1        0.0514
     24 C          -0.4925  -19.5360   21.2267 C.3     1  UNL1        0.0265
     25 C          -2.0120  -19.4456   21.1787 C.3     1  UNL1        0.1073
     26 C          -8.1209  -13.7983   28.3910 C.ar    1  UNL1        0.0339
     27 C          -6.8261  -13.2828   28.5476 C.ar    1  UNL1        0.0027
     28 C          -6.5841  -12.2279   29.4312 C.ar    1  UNL1       -0.0042
     29 C          -7.6281  -11.6504   30.1864 C.ar    1  UNL1       -0.0228
     30 C          -8.9288  -12.1774   30.0162 C.ar    1  UNL1       -0.0042
     31 C          -9.1666  -13.2369   29.1370 C.ar    1  UNL1        0.0027
     32 C          -7.3187  -10.4892   31.1540 C.3     1  UNL1        0.0189
     33 C          -7.8609   -9.1692   30.5638 C.3     1  UNL1        0.0044
     34 C          -5.8039  -10.3008   31.4115 C.3     1  UNL1        0.0044
     35 C          -7.9960  -10.7591   32.5150 C.3     1  UNL1        0.0044
     36 C         -10.2004  -19.9086   24.9111 C.2     1  UNL1        0.1736
     37 C         -11.1542  -20.0908   23.7686 C.3     1  UNL1        0.0773
     38 O          -9.9558  -20.9007   25.6504 O.2     1  UNL1       -0.2913
@<TRIPOS>BOND
     1    24    25    1
     2    25    18    1
     3    18    19   ar
     4    19    20   ar
     5    20    21   ar
     6    21    17    1
     7    17    11    1
     8    11    12    1
     9    12    13    1
    10    13    14    1
    11    14     1    1
    12     1     2   ar
    13     2     3   ar
    14     3    36    1
    15    36    37    1
    16    36    38    2
    17     3     4   ar
    18     4     5   ar
    19     5     6   ar
    20     6     7   ar
    21     7    26    1
    22    26    27   ar
    23    27    28   ar
    24    28    29   ar
    25    29    32    1
    26    32    33    1
    27    32    34    1
    28    32    35    1
    29    29    30   ar
    30    30    31   ar
    31     7     8   ar
    32     8     9   ar
    33    14    15    1
    34    15    16    1
    35    21    22   ar
    36    22    23    1
    37    22    18   ar
    38    16    11    1
    39     9     1   ar
    40     9     5   ar
    41    31    26   ar
    42     6    10    1
@<TRIPOS>MOLECULE
*****
 38 42 0 0 0
SMALL
GASTEIGER

@<TRIPOS>ATOM
      1 C          -8.4059  -15.9125   25.4921 C.ar    1  UNL1        0.0674
      2 C          -8.7661  -15.1630   26.6393 C.ar    1  UNL1        0.0190
      3 C          -7.7934  -14.4472   27.3935 C.ar    1  UNL1        0.0375
      4 C          -6.4398  -14.4875   26.9857 C.ar    1  UNL1        0.0215
      5 C          -6.1158  -15.2306   25.8570 C.ar    1  UNL1        0.0769
      6 N          -4.9088  -15.4017   25.3028 N.ar    1  UNL1       -0.3373
      7 C          -5.1487  -16.2078   24.2370 C.ar    1  UNL1        0.1406
      8 N          -6.4594  -16.5420   24.1050 N.ar    1  UNL1       -0.2258
      9 C          -7.0486  -15.9165   25.1404 C.ar    1  UNL1        0.1116
     10 H          -3.9995  -15.0185   25.6435 H       1  UNL1        0.1674
     11 N         -11.4246  -18.0440   23.1844 N.3     1  UNL1       -0.2647
     12 C         -11.1005  -18.4162   24.5829 C.3     1  UNL1        0.0941
     13 C          -9.6632  -18.0546   24.9767 C.3     1  UNL1        0.1082
     14 N          -9.4006  -16.6303   24.7245 N.pl3   1  UNL1       -0.3034
     15 C         -10.1971  -15.9303   23.7071 C.3     1  UNL1        0.1082
     16 C         -10.6500  -16.9126   22.6233 C.3     1  UNL1        0.0941
     17 C         -11.5313  -19.1918   22.2560 C.3     1  UNL1        0.1200
     18 N          -8.4579  -19.5335   20.2559 N.ar    1  UNL1       -0.3128
     19 C          -9.4018  -19.1954   19.3566 C.ar    1  UNL1        0.1780
     20 N         -10.6150  -19.0228   19.9186 N.ar    1  UNL1       -0.2273
     21 C         -10.4174  -19.2451   21.2353 C.ar    1  UNL1        0.0885
     22 C          -9.0797  -19.5496   21.4523 C.ar    1  UNL1        0.0537
     23 C          -8.4278  -19.9614   22.7414 C.3     1  UNL1        0.0514
     24 C          -6.2032  -18.5877   20.4121 C.3     1  UNL1        0.0265
     25 C          -7.0445  -19.7762   19.9658 C.3     1  UNL1        0.1073
     26 C          -4.1002  -16.7082   23.3181 C.ar    1  UNL1        0.0339
     27 C          -3.4730  -15.8573   22.3966 C.ar    1  UNL1        0.0027
     28 C          -2.4878  -16.3465   21.5351 C.ar    1  UNL1       -0.0042
     29 C          -2.0940  -17.7022   21.5668 C.ar    1  UNL1       -0.0228
     30 C          -2.7320  -18.5479   22.5028 C.ar    1  UNL1       -0.0042
     31 C          -3.7217  -18.0574   23.3584 C.ar    1  UNL1        0.0027
     32 C          -1.0048  -18.2039   20.5962 C.3     1  UNL1        0.0189
     33 C          -1.6718  -18.7881   19.3319 C.3     1  UNL1        0.0044
     34 C          -0.1091  -19.3086   21.2073 C.3     1  UNL1        0.0044
     35 C          -0.0900  -17.0261   20.1959 C.3     1  UNL1        0.0044
     36 C          -8.1760  -13.6630   28.5987 C.2     1  UNL1        0.1736
     37 C          -9.5776  -13.6595   29.1315 C.3     1  UNL1        0.0773
     38 O          -7.3054  -12.9769   29.2004 O.2     1  UNL1       -0.2913
@<TRIPOS>BOND
     1    24    25    1
     2    25    18    1
     3    18    19   ar
     4    19    20   ar
     5    20    21   ar
     6    21    17    1
     7    17    11    1
     8    11    12    1
     9    12    13    1
    10    13    14    1
    11    14     1    1
    12     1     2   ar
    13     2     3   ar
    14     3    36    1
    15    36    37    1
    16    36    38    2
    17     3     4   ar
    18     4     5   ar
    19     5     6   ar
    20     6     7   ar
    21     7    26    1
    22    26    27   ar
    23    27    28   ar
    24    28    29   ar
    25    29    32    1
    26    32    33    1
    27    32    34    1
    28    32    35    1
    29    29    30   ar
    30    30    31   ar
    31     7     8   ar
    32     8     9   ar
    33    14    15    1
    34    15    16    1
    35    21    22   ar
    36    22    23    1
    37    22    18   ar
    38    16    11    1
    39     9     1   ar
    40     9     5   ar
    41    31    26   ar
    42     6    10    1
@<TRIPOS>MOLECULE
*****
 38 42 0 0 0
SMALL
GASTEIGER

@<TRIPOS>ATOM
      1 C          -7.8512  -16.1590   24.7116 C.ar    1  UNL1        0.0674
      2 C          -6.7431  -16.6217   23.9597 C.ar    1  UNL1        0.0190
      3 C          -5.4068  -16.3059   24.3366 C.ar    1  UNL1        0.0375
      4 C          -5.1849  -15.5133   25.4867 C.ar    1  UNL1        0.0215
      5 C          -6.2906  -15.0735   26.2046 C.ar    1  UNL1        0.0769
      6 N          -6.3067  -14.3208   27.3120 N.ar    1  UNL1       -0.3373
      7 C          -7.6272  -14.1827   27.5954 C.ar    1  UNL1        0.1406
      8 N          -8.4333  -14.8236   26.7085 N.ar    1  UNL1       -0.2258
      9 C          -7.5670  -15.3750   25.8389 C.ar    1  UNL1        0.1116
     10 H          -5.4832  -13.9181   27.8115 H       1  UNL1        0.1674
     11 N         -11.9444  -17.1277   23.5766 N.3     1  UNL1       -0.2647
     12 C         -11.2195  -17.8919   24.6206 C.3     1  UNL1        0.0941
     13 C          -9.6989  -17.8731   24.4230 C.3     1  UNL1        0.1082
     14 N          -9.2065  -16.4911   24.3286 N.pl3   1  UNL1       -0.3034
     15 C         -10.1278  -15.4379   23.8795 C.3     1  UNL1        0.1082
     16 C         -11.1848  -16.0262   22.9407 C.3     1  UNL1        0.0941
     17 C         -12.6750  -17.9679   22.6013 C.3     1  UNL1        0.1200
     18 N         -10.4964  -19.3301   19.9630 N.ar    1  UNL1       -0.3128
     19 C         -11.1009  -18.2763   19.3814 C.ar    1  UNL1        0.1780
     20 N         -11.9496  -17.6411   20.2142 N.ar    1  UNL1       -0.2273
     21 C         -11.8581  -18.3179   21.3785 C.ar    1  UNL1        0.0885
     22 C         -10.9493  -19.3582   21.2327 C.ar    1  UNL1        0.0537
     23 C         -10.6048  -20.4251   22.2325 C.3     1  UNL1        0.0514
     24 C          -8.1401  -19.5561   19.3313 C.3     1  UNL1        0.0265
     25 C          -9.5146  -20.2119   19.3312 C.3     1  UNL1        0.1073
     26 C          -8.1576  -13.3937   28.7313 C.ar    1  UNL1        0.0339
     27 C          -7.3412  -12.5032   29.4435 C.ar    1  UNL1        0.0027
     28 C          -7.8570  -11.7687   30.5143 C.ar    1  UNL1       -0.0042
     29 C          -9.2069  -11.8972   30.9082 C.ar    1  UNL1       -0.0228
     30 C         -10.0193  -12.7957   30.1796 C.ar    1  UNL1       -0.0042
     31 C          -9.4990  -13.5340   29.1136 C.ar    1  UNL1        0.0027
     32 C          -9.7369  -11.0709   32.0985 C.3     1  UNL1        0.0189
     33 C         -10.8386  -10.1074   31.6060 C.3     1  UNL1        0.0044
     34 C          -8.6401  -10.2192   32.7825 C.3     1  UNL1        0.0044
     35 C         -10.3252  -12.0215   33.1635 C.3     1  UNL1        0.0044
     36 C          -4.2462  -16.7924   23.5429 C.2     1  UNL1        0.1736
     37 C          -3.8854  -16.1947   22.2159 C.3     1  UNL1        0.0773
     38 O          -3.5354  -17.7345   23.9878 O.2     1  UNL1       -0.2913
@<TRIPOS>BOND
     1    24    25    1
     2    25    18    1
     3    18    19   ar
     4    19    20   ar
     5    20    21   ar
     6    21    17    1
     7    17    11    1
     8    11    12    1
     9    12    13    1
    10    13    14    1
    11    14     1    1
    12     1     2   ar
    13     2     3   ar
    14     3    36    1
    15    36    37    1
    16    36    38    2
    17     3     4   ar
    18     4     5   ar
    19     5     6   ar
    20     6     7   ar
    21     7    26    1
    22    26    27   ar
    23    27    28   ar
    24    28    29   ar
    25    29    32    1
    26    32    33    1
    27    32    34    1
    28    32    35    1
    29    29    30   ar
    30    30    31   ar
    31     7     8   ar
    32     8     9   ar
    33    14    15    1
    34    15    16    1
    35    21    22   ar
    36    22    23    1
    37    22    18   ar
    38    16    11    1
    39     9     1   ar
    40     9     5   ar
    41    31    26   ar
    42     6    10    1
@<TRIPOS>MOLECULE
*****
 38 42 0 0 0
SMALL
GASTEIGER

@<TRIPOS>ATOM
      1 C          -8.4122  -11.8518   30.4226 C.ar    1  UNL1        0.0674
      2 C          -9.5374  -11.8043   31.2825 C.ar    1  UNL1        0.0190
      3 C         -10.6128  -12.7279   31.1489 C.ar    1  UNL1        0.0375
      4 C         -10.5529  -13.7123   30.1353 C.ar    1  UNL1        0.0215
      5 C          -9.4375  -13.7350   29.3068 C.ar    1  UNL1        0.0769
      6 N          -9.1806  -14.5737   28.2949 N.ar    1  UNL1       -0.3373
      7 C          -7.9752  -14.1617   27.8254 C.ar    1  UNL1        0.1406
      8 N          -7.4707  -13.1007   28.5087 N.ar    1  UNL1       -0.2258
      9 C          -8.4127  -12.8478   29.4357 C.ar    1  UNL1        0.1116
     10 H          -9.7926  -15.3433   27.9443 H       1  UNL1        0.1674
     11 N          -5.0979   -9.0549   30.8395 N.3     1  UNL1       -0.2647
     12 C          -5.4419  -10.0262   31.9061 C.3     1  UNL1        0.0941
     13 C          -6.9239  -10.4203   31.8960 C.3     1  UNL1        0.1082
     14 N          -7.3182  -10.9161   30.5694 N.pl3   1  UNL1       -0.3034
     15 C          -6.5540  -10.4806   29.3922 C.3     1  UNL1        0.1082
     16 C          -5.9583   -9.0909   29.6340 C.3     1  UNL1        0.0941
     17 C          -4.8362   -7.6815   31.3254 C.3     1  UNL1        0.1200
     18 N          -7.7245   -5.5012   30.6425 N.ar    1  UNL1       -0.3128
     19 C          -6.7402   -4.9966   29.8740 C.ar    1  UNL1        0.1780
     20 N          -5.5857   -5.6821   29.9942 N.ar    1  UNL1       -0.2273
     21 C          -5.8656   -6.6746   30.8653 C.ar    1  UNL1        0.0885
     22 C          -7.1934   -6.5753   31.2608 C.ar    1  UNL1        0.0537
     23 C          -7.9112   -7.4036   32.2879 C.3     1  UNL1        0.0514
     24 C          -9.9580   -5.6268   29.6433 C.3     1  UNL1        0.0265
     25 C          -9.0941   -4.9929   30.7255 C.3     1  UNL1        0.1073
     26 C          -7.2785  -14.7717   26.6694 C.ar    1  UNL1        0.0339
     27 C          -5.8841  -14.9197   26.6549 C.ar    1  UNL1        0.0027
     28 C          -5.2425  -15.4948   25.5550 C.ar    1  UNL1       -0.0042
     29 C          -5.9729  -15.9440   24.4331 C.ar    1  UNL1       -0.0228
     30 C          -7.3780  -15.7919   24.4624 C.ar    1  UNL1       -0.0042
     31 C          -8.0161  -15.2101   25.5608 C.ar    1  UNL1        0.0027
     32 C          -5.2265  -16.5702   23.2369 C.3     1  UNL1        0.0189
     33 C          -6.2034  -17.4454   22.4218 C.3     1  UNL1        0.0044
     34 C          -4.0386  -17.4661   23.6641 C.3     1  UNL1        0.0044
     35 C          -4.6677  -15.4487   22.3347 C.3     1  UNL1        0.0044
     36 C         -11.7933  -12.6730   32.0529 C.2     1  UNL1        0.1736
     37 C         -13.1377  -12.2110   31.5758 C.3     1  UNL1        0.0773
     38 O         -11.6742  -13.0234   33.2586 O.2     1  UNL1       -0.2913
@<TRIPOS>BOND
     1    24    25    1
     2    25    18    1
     3    18    19   ar
     4    19    20   ar
     5    20    21   ar
     6    21    17    1
     7    17    11    1
     8    11    12    1
     9    12    13    1
    10    13    14    1
    11    14     1    1
    12     1     2   ar
    13     2     3   ar
    14     3    36    1
    15    36    37    1
    16    36    38    2
    17     3     4   ar
    18     4     5   ar
    19     5     6   ar
    20     6     7   ar
    21     7    26    1
    22    26    27   ar
    23    27    28   ar
    24    28    29   ar
    25    29    32    1
    26    32    33    1
    27    32    34    1
    28    32    35    1
    29    29    30   ar
    30    30    31   ar
    31     7     8   ar
    32     8     9   ar
    33    14    15    1
    34    15    16    1
    35    21    22   ar
    36    22    23    1
    37    22    18   ar
    38    16    11    1
    39     9     1   ar
    40     9     5   ar
    41    31    26   ar
    42     6    10    1
@<TRIPOS>MOLECULE
*****
 38 42 0 0 0
SMALL
GASTEIGER

@<TRIPOS>ATOM
      1 C         -10.5819  -11.3178   30.7881 C.ar    1  UNL1        0.0674
      2 C         -11.4207  -11.5288   31.9103 C.ar    1  UNL1        0.0190
      3 C         -11.7794  -12.8406   32.3323 C.ar    1  UNL1        0.0375
      4 C         -11.2858  -13.9540   31.6135 C.ar    1  UNL1        0.0215
      5 C         -10.4653  -13.7169   30.5172 C.ar    1  UNL1        0.0769
      6 N          -9.8952  -14.6168   29.7057 N.ar    1  UNL1       -0.3373
      7 C          -9.2088  -13.8621   28.8099 C.ar    1  UNL1        0.1406
      8 N          -9.3273  -12.5270   29.0351 N.ar    1  UNL1       -0.2258
      9 C         -10.1274  -12.4607   30.1149 C.ar    1  UNL1        0.1116
     10 H          -9.9918  -15.6552   29.7507 H       1  UNL1        0.1674
     11 N          -9.4955   -7.3007   29.4982 N.3     1  UNL1       -0.2647
     12 C          -8.5544   -8.4411   29.3843 C.3     1  UNL1        0.0941
     13 C          -8.8148   -9.5335   30.4285 C.3     1  UNL1        0.1082
     14 N         -10.2135   -9.9824   30.3698 N.pl3   1  UNL1       -0.3034
     15 C         -11.2316   -9.0668   29.8362 C.3     1  UNL1        0.1082
     16 C         -10.8184   -7.6138   30.0870 C.3     1  UNL1        0.0941
     17 C          -8.8937   -6.0646   30.0469 C.3     1  UNL1        0.1200
     18 N          -5.9692   -6.5349   32.2352 N.ar    1  UNL1       -0.3128
     19 C          -7.0254   -6.7172   33.0509 C.ar    1  UNL1        0.1780
     20 N          -8.2041   -6.5833   32.4105 N.ar    1  UNL1       -0.2273
     21 C          -7.8701   -6.3233   31.1288 C.ar    1  UNL1        0.0885
     22 C          -6.4862   -6.3046   31.0113 C.ar    1  UNL1        0.0537
     23 C          -5.6709   -5.9610   29.7974 C.3     1  UNL1        0.0514
     24 C          -4.3713   -7.7173   33.6674 C.3     1  UNL1        0.0265
     25 C          -4.5610   -6.6264   32.6218 C.3     1  UNL1        0.1073
     26 C          -8.4299  -14.4153   27.6779 C.ar    1  UNL1        0.0339
     27 C          -9.0647  -14.9006   26.5256 C.ar    1  UNL1        0.0027
     28 C          -8.3148  -15.4217   25.4680 C.ar    1  UNL1       -0.0042
     29 C          -6.9049  -15.4731   25.5251 C.ar    1  UNL1       -0.0228
     30 C          -6.2779  -14.9774   26.6910 C.ar    1  UNL1       -0.0042
     31 C          -7.0307  -14.4632   27.7498 C.ar    1  UNL1        0.0027
     32 C          -6.1136  -16.0595   24.3375 C.3     1  UNL1        0.0189
     33 C          -4.9183  -16.8793   24.8704 C.3     1  UNL1        0.0044
     34 C          -5.5519  -14.9743   23.3872 C.3     1  UNL1        0.0044
     35 C          -7.0363  -16.9781   23.5076 C.3     1  UNL1        0.0044
     36 C         -12.6621  -13.0574   33.5102 C.2     1  UNL1        0.1736
     37 C         -12.5285  -14.2635   34.3910 C.3     1  UNL1        0.0773
     38 O         -13.5531  -12.2092   33.7882 O.2     1  UNL1       -0.2913
@<TRIPOS>BOND
     1    24    25    1
     2    25    18    1
     3    18    19   ar
     4    19    20   ar
     5    20    21   ar
     6    21    17    1
     7    17    11    1
     8    11    12    1
     9    12    13    1
    10    13    14    1
    11    14     1    1
    12     1     2   ar
    13     2     3   ar
    14     3    36    1
    15    36    37    1
    16    36    38    2
    17     3     4   ar
    18     4     5   ar
    19     5     6   ar
    20     6     7   ar
    21     7    26    1
    22    26    27   ar
    23    27    28   ar
    24    28    29   ar
    25    29    32    1
    26    32    33    1
    27    32    34    1
    28    32    35    1
    29    29    30   ar
    30    30    31   ar
    31     7     8   ar
    32     8     9   ar
    33    14    15    1
    34    15    16    1
    35    21    22   ar
    36    22    23    1
    37    22    18   ar
    38    16    11    1
    39     9     1   ar
    40     9     5   ar
    41    31    26   ar
    42     6    10    1
@<TRIPOS>MOLECULE
*****
 38 42 0 0 0
SMALL
GASTEIGER

@<TRIPOS>ATOM
      1 C          -8.3808  -11.5811   30.4399 C.ar    1  UNL1        0.0674
      2 C          -7.3128  -10.7915   30.9332 C.ar    1  UNL1        0.0190
      3 C          -5.9842  -10.9536   30.4472 C.ar    1  UNL1        0.0375
      4 C          -5.7293  -11.9244   29.4509 C.ar    1  UNL1        0.0215
      5 C          -6.7959  -12.6842   28.9860 C.ar    1  UNL1        0.0769
      6 N          -6.7768  -13.6470   28.0555 N.ar    1  UNL1       -0.3373
      7 C          -8.0682  -14.0597   27.9841 C.ar    1  UNL1        0.1406
      8 N          -8.8908  -13.3880   28.8324 N.ar    1  UNL1       -0.2258
      9 C          -8.0644  -12.5283   29.4557 C.ar    1  UNL1        0.1116
     10 H          -5.9447  -14.0040   27.5360 H       1  UNL1        0.1674
     11 N         -12.4527  -11.0307   31.8882 N.3     1  UNL1       -0.2647
     12 C         -11.3012  -10.3258   32.5019 C.3     1  UNL1        0.0941
     13 C          -9.9826  -11.0929   32.3455 C.3     1  UNL1        0.1082
     14 N          -9.7305  -11.4052   30.9312 N.pl3   1  UNL1       -0.3034
     15 C         -10.8711  -11.4932   30.0089 C.3     1  UNL1        0.1082
     16 C         -12.1271  -11.9381   30.7634 C.3     1  UNL1        0.0941
     17 C         -13.3930  -11.6282   32.8628 C.3     1  UNL1        0.1200
     18 N         -13.2429  -15.3077   32.8342 N.ar    1  UNL1       -0.3128
     19 C         -14.4070  -15.0194   32.2211 C.ar    1  UNL1        0.1780
     20 N         -14.6336  -13.6932   32.1364 N.ar    1  UNL1       -0.2273
     21 C         -13.5510  -13.1234   32.7068 C.ar    1  UNL1        0.0885
     22 C         -12.6795  -14.1189   33.1298 C.ar    1  UNL1        0.0537
     23 C         -11.4005  -13.9548   33.9003 C.3     1  UNL1        0.0514
     24 C         -12.6044  -17.4126   31.7552 C.3     1  UNL1        0.0265
     25 C         -12.7060  -16.6484   33.0686 C.3     1  UNL1        0.1073
     26 C          -8.5474  -15.1490   27.1022 C.ar    1  UNL1        0.0339
     27 C          -8.8027  -14.9252   25.7416 C.ar    1  UNL1        0.0027
     28 C          -9.2570  -15.9634   24.9243 C.ar    1  UNL1       -0.0042
     29 C          -9.4692  -17.2613   25.4384 C.ar    1  UNL1       -0.0228
     30 C          -9.2046  -17.4737   26.8107 C.ar    1  UNL1       -0.0042
     31 C          -8.7570  -16.4319   27.6270 C.ar    1  UNL1        0.0027
     32 C          -9.9751  -18.3796   24.5036 C.3     1  UNL1        0.0189
     33 C          -9.0340  -18.4965   23.2849 C.3     1  UNL1        0.0044
     34 C         -11.4052  -18.1235   23.9692 C.3     1  UNL1        0.0044
     35 C          -9.9932  -19.7207   25.2684 C.3     1  UNL1        0.0044
     36 C          -4.8654  -10.1235   30.9696 C.2     1  UNL1        0.1736
     37 C          -4.5541   -8.7678   30.4097 C.3     1  UNL1        0.0773
     38 O          -4.1497  -10.5605   31.9117 O.2     1  UNL1       -0.2913
@<TRIPOS>BOND
     1    24    25    1
     2    25    18    1
     3    18    19   ar
     4    19    20   ar
     5    20    21   ar
     6    21    17    1
     7    17    11    1
     8    11    12    1
     9    12    13    1
    10    13    14    1
    11    14     1    1
    12     1     2   ar
    13     2     3   ar
    14     3    36    1
    15    36    37    1
    16    36    38    2
    17     3     4   ar
    18     4     5   ar
    19     5     6   ar
    20     6     7   ar
    21     7    26    1
    22    26    27   ar
    23    27    28   ar
    24    28    29   ar
    25    29    32    1
    26    32    33    1
    27    32    34    1
    28    32    35    1
    29    29    30   ar
    30    30    31   ar
    31     7     8   ar
    32     8     9   ar
    33    14    15    1
    34    15    16    1
    35    21    22   ar
    36    22    23    1
    37    22    18   ar
    38    16    11    1
    39     9     1   ar
    40     9     5   ar
    41    31    26   ar
    42     6    10    1
@<TRIPOS>MOLECULE
*****
 38 42 0 0 0
SMALL
GASTEIGER

@<TRIPOS>ATOM
      1 C          -8.3977  -11.6621   30.4641 C.ar    1  UNL1        0.0674
      2 C          -7.3424  -10.8341   30.9203 C.ar    1  UNL1        0.0190
      3 C          -6.0298  -10.9388   30.3784 C.ar    1  UNL1        0.0375
      4 C          -5.7781  -11.8907   29.3632 C.ar    1  UNL1        0.0215
      5 C          -6.8320  -12.6891   28.9355 C.ar    1  UNL1        0.0769
      6 N          -6.8133  -13.6431   27.9959 N.ar    1  UNL1       -0.3373
      7 C          -8.0891  -14.1068   27.9741 C.ar    1  UNL1        0.1406
      8 N          -8.9017  -13.4755   28.8620 N.ar    1  UNL1       -0.2258
      9 C          -8.0850  -12.5881   29.4588 C.ar    1  UNL1        0.1116
     10 H          -5.9900  -13.9623   27.4392 H       1  UNL1        0.1674
     11 N         -12.4241  -11.2863   32.0852 N.3     1  UNL1       -0.2647
     12 C         -11.2699  -10.5710   32.6814 C.3     1  UNL1        0.0941
     13 C          -9.9374  -11.2924   32.4461 C.3     1  UNL1        0.1082
     14 N          -9.7317  -11.5445   31.0124 N.pl3   1  UNL1       -0.3034
     15 C         -10.9044  -11.6320   30.1311 C.3     1  UNL1        0.1082
     16 C         -12.1171  -12.1414   30.9150 C.3     1  UNL1        0.0941
     17 C         -13.3087  -11.9471   33.0710 C.3     1  UNL1        0.1200
     18 N         -12.7978  -15.5897   33.2533 N.ar    1  UNL1       -0.3128
     19 C         -11.9250  -15.0881   34.1481 C.ar    1  UNL1        0.1780
     20 N         -11.9732  -13.7429   34.2213 N.ar    1  UNL1       -0.2273
     21 C         -12.9353  -13.3862   33.3442 C.ar    1  UNL1        0.0885
     22 C         -13.4590  -14.5275   32.7504 C.ar    1  UNL1        0.0537
     23 C         -14.4769  -14.6063   31.6486 C.3     1  UNL1        0.0514
     24 C         -12.3906  -17.3481   31.5967 C.3     1  UNL1        0.0265
     25 C         -12.9972  -17.0073   32.9514 C.3     1  UNL1        0.1073
     26 C          -8.5608  -15.2076   27.1024 C.ar    1  UNL1        0.0339
     27 C          -8.7731  -16.4978   27.6092 C.ar    1  UNL1        0.0027
     28 C          -9.2156  -17.5254   26.7723 C.ar    1  UNL1       -0.0042
     29 C          -9.4635  -17.2980   25.4009 C.ar    1  UNL1       -0.0228
     30 C          -9.2487  -15.9921   24.9041 C.ar    1  UNL1       -0.0042
     31 C          -8.7996  -14.9682   25.7419 C.ar    1  UNL1        0.0027
     32 C          -9.9478  -18.4604   24.5095 C.3     1  UNL1        0.0189
     33 C         -11.3860  -18.1733   24.0259 C.3     1  UNL1        0.0044
     34 C          -9.9629  -19.8231   25.2439 C.3     1  UNL1        0.0044
     35 C          -9.0133  -18.5961   23.2879 C.3     1  UNL1        0.0044
     36 C          -4.9242  -10.0685   30.8619 C.2     1  UNL1        0.1736
     37 C          -4.5776   -8.7758   30.1856 C.3     1  UNL1        0.0773
     38 O          -4.2505  -10.4156   31.8701 O.2     1  UNL1       -0.2913
@<TRIPOS>BOND
     1    24    25    1
     2    25    18    1
     3    18    19   ar
     4    19    20   ar
     5    20    21   ar
     6    21    17    1
     7    17    11    1
     8    11    12    1
     9    12    13    1
    10    13    14    1
    11    14     1    1
    12     1     2   ar
    13     2     3   ar
    14     3    36    1
    15    36    37    1
    16    36    38    2
    17     3     4   ar
    18     4     5   ar
    19     5     6   ar
    20     6     7   ar
    21     7    26    1
    22    26    27   ar
    23    27    28   ar
    24    28    29   ar
    25    29    32    1
    26    32    33    1
    27    32    34    1
    28    32    35    1
    29    29    30   ar
    30    30    31   ar
    31     7     8   ar
    32     8     9   ar
    33    14    15    1
    34    15    16    1
    35    21    22   ar
    36    22    23    1
    37    22    18   ar
    38    16    11    1
    39     9     1   ar
    40     9     5   ar
    41    31    26   ar
    42     6    10    1
@<TRIPOS>MOLECULE
*****
 38 42 0 0 0
SMALL
GASTEIGER

@<TRIPOS>ATOM
      1 C          -8.1951  -12.0781   29.8077 C.ar    1  UNL1        0.0674
      2 C          -7.0838  -11.3008   30.2181 C.ar    1  UNL1        0.0190
      3 C          -5.7844  -11.5216   29.6792 C.ar    1  UNL1        0.0375
      4 C          -5.6033  -12.5393   28.7140 C.ar    1  UNL1        0.0215
      5 C          -6.7110  -13.2856   28.3307 C.ar    1  UNL1        0.0769
      6 N          -6.7621  -14.2858   27.4416 N.ar    1  UNL1       -0.3373
      7 C          -8.0663  -14.6628   27.4467 C.ar    1  UNL1        0.1406
      8 N          -8.8294  -13.9332   28.3026 N.ar    1  UNL1       -0.2258
      9 C          -7.9513  -13.0735   28.8509 C.ar    1  UNL1        0.1116
     10 H          -5.9653  -14.6880   26.9001 H       1  UNL1        0.1674
     11 N         -12.1740  -11.4069   31.4506 N.3     1  UNL1       -0.2647
     12 C         -11.8740  -11.1951   30.0137 C.3     1  UNL1        0.0941
     13 C         -10.4054  -10.8340   29.7599 C.3     1  UNL1        0.1082
     14 N          -9.5149  -11.8426   30.3524 N.pl3   1  UNL1       -0.3034
     15 C         -10.0023  -12.6439   31.4837 C.3     1  UNL1        0.1082
     16 C         -11.0346  -11.8487   32.2880 C.3     1  UNL1        0.0941
     17 C         -12.9682  -10.3249   32.0746 C.3     1  UNL1        0.1200
     18 N         -11.3529   -7.1338   31.1970 N.ar    1  UNL1       -0.3128
     19 C         -12.6192   -6.9947   30.7598 C.ar    1  UNL1        0.1780
     20 N         -13.3739   -8.0852   31.0021 N.ar    1  UNL1       -0.2273
     21 C         -12.5458   -8.9406   31.6381 C.ar    1  UNL1        0.0885
     22 C         -11.2952   -8.3515   31.7732 C.ar    1  UNL1        0.0537
     23 C         -10.0431   -8.9688   32.3277 C.3     1  UNL1        0.0514
     24 C         -10.7435   -4.9795   30.2019 C.3     1  UNL1        0.0265
     25 C         -10.2954   -6.1277   31.0965 C.3     1  UNL1        0.1073
     26 C          -8.6160  -15.7726   26.6342 C.ar    1  UNL1        0.0339
     27 C          -8.9052  -17.0199   27.2061 C.ar    1  UNL1        0.0027
     28 C          -9.4208  -18.0569   26.4244 C.ar    1  UNL1       -0.0042
     29 C          -9.6674  -17.8819   25.0452 C.ar    1  UNL1       -0.0228
     30 C          -9.3747  -16.6186   24.4825 C.ar    1  UNL1       -0.0042
     31 C          -8.8527  -15.5856   25.2651 C.ar    1  UNL1        0.0027
     32 C         -10.2339  -19.0533   24.2161 C.3     1  UNL1        0.0189
     33 C         -11.7403  -18.8246   23.9649 C.3     1  UNL1        0.0044
     34 C         -10.0780  -20.4246   24.9172 C.3     1  UNL1        0.0044
     35 C          -9.4942  -19.1312   22.8631 C.3     1  UNL1        0.0044
     36 C          -4.6199  -10.7043   30.1145 C.2     1  UNL1        0.1736
     37 C          -3.9548   -9.7197   29.1999 C.3     1  UNL1        0.0773
     38 O          -4.1688  -10.8325   31.2853 O.2     1  UNL1       -0.2913
@<TRIPOS>BOND
     1    24    25    1
     2    25    18    1
     3    18    19   ar
     4    19    20   ar
     5    20    21   ar
     6    21    17    1
     7    17    11    1
     8    11    12    1
     9    12    13    1
    10    13    14    1
    11    14     1    1
    12     1     2   ar
    13     2     3   ar
    14     3    36    1
    15    36    37    1
    16    36    38    2
    17     3     4   ar
    18     4     5   ar
    19     5     6   ar
    20     6     7   ar
    21     7    26    1
    22    26    27   ar
    23    27    28   ar
    24    28    29   ar
    25    29    32    1
    26    32    33    1
    27    32    34    1
    28    32    35    1
    29    29    30   ar
    30    30    31   ar
    31     7     8   ar
    32     8     9   ar
    33    14    15    1
    34    15    16    1
    35    21    22   ar
    36    22    23    1
    37    22    18   ar
    38    16    11    1
    39     9     1   ar
    40     9     5   ar
    41    31    26   ar
    42     6    10    1
