@<TRIPOS>MOLECULE
*****
 26 29 0 0 0
SMALL
GASTEIGER

@<TRIPOS>ATOM
      1 C          48.8592   13.6837  -22.9601 C.3     1  UNL1        0.1428
      2 O          50.1187   13.2143  -22.5391 O.3     1  UNL1       -0.3752
      3 C          48.7919   15.2430  -22.9254 C.3     1  UNL1        0.0500
      4 C          47.9555   15.7007  -24.1475 C.3     1  UNL1        0.0472
      5 S          48.9178   16.7778  -25.2756 S.3     1  UNL1       -0.1687
      6 C          47.4942   14.3841  -24.7823 C.3     1  UNL1        0.0132
      7 C          47.0338   14.2667  -26.2417 C.3     1  UNL1        0.0053
      8 C          46.0787   15.3603  -26.7493 C.3     1  UNL1        0.0050
      9 C          45.6564   15.0976  -28.2258 C.3     1  UNL1        0.0261
     10 C          45.9173   13.6866  -28.7596 C.ar    1  UNL1       -0.0231
     11 C          45.8236   13.4635  -30.1418 C.ar    1  UNL1        0.0320
     12 C          46.1226   12.2109  -30.6829 C.ar    1  UNL1        0.1333
     13 O          46.0262   12.0166  -32.0590 O.3     1  UNL1       -0.5055
     14 C          46.5239   11.1670  -29.8425 C.ar    1  UNL1        0.0363
     15 C          46.6105   11.3640  -28.4625 C.ar    1  UNL1       -0.0015
     16 C          46.2855   12.6146  -27.9030 C.ar    1  UNL1       -0.0263
     17 C          46.2998   12.9083  -26.4197 C.3     1  UNL1        0.0221
     18 C          46.6915   11.7878  -25.3916 C.3     1  UNL1        0.0045
     19 C          48.1099   11.8819  -24.7897 C.3     1  UNL1        0.0036
     20 C          48.5954   13.3412  -24.4583 C.3     1  UNL1        0.0341
     21 C          49.9237   13.5611  -25.2606 C.3     1  UNL1        0.0034
     22 H          50.2906   13.5852  -21.6334 H       1  UNL1        0.2114
     23 H          49.0222   17.8068  -24.3204 H       1  UNL1        0.1023
     24 H          46.2386   11.1213  -32.4837 H       1  UNL1        0.2922
     25 C          46.9665   12.6507  -21.3508 C.1     1  UNL1       -0.0119
     26 C          47.8141   13.1147  -22.0719 C.1     1  UNL1       -0.0525
@<TRIPOS>BOND
     1    25    26    3
     2     1    26    1
     3     1     2    1
     4     1     3    1
     5     3     4    1
     6     4     5    1
     7     4     6    1
     8     6     7    1
     9     7     8    1
    10     8     9    1
    11     9    10    1
    12    10    11   ar
    13    11    12   ar
    14    12    13    1
    15    12    14   ar
    16    14    15   ar
    17    15    16   ar
    18    16    17    1
    19    17    18    1
    20    18    19    1
    21    19    20    1
    22    20    21    1
    23    20     1    1
    24    20     6    1
    25    17     7    1
    26    16    10   ar
    27     2    22    1
    28     5    23    1
    29    13    24    1
@<TRIPOS>MOLECULE
*****
 26 29 0 0 0
SMALL
GASTEIGER

@<TRIPOS>ATOM
      1 C          49.8223   11.1437  -22.8541 C.3     1  UNL1        0.1428
      2 O          50.3413   11.1007  -21.5454 O.3     1  UNL1       -0.3752
      3 C          48.3279   10.6934  -22.8890 C.3     1  UNL1        0.0500
      4 C          47.5991   11.5772  -23.9333 C.3     1  UNL1        0.0472
      5 S          46.2355   12.5454  -23.1837 S.3     1  UNL1       -0.1687
      6 C          48.7223   12.4349  -24.5265 C.3     1  UNL1        0.0132
      7 C          48.4749   13.7628  -25.2552 C.3     1  UNL1        0.0053
      8 C          47.3205   13.7824  -26.2714 C.3     1  UNL1        0.0050
      9 C          47.2077   15.1713  -26.9683 C.3     1  UNL1        0.0261
     10 C          48.4236   16.0920  -26.8348 C.ar    1  UNL1       -0.0231
     11 C          48.2858   17.4424  -27.1905 C.ar    1  UNL1        0.0320
     12 C          49.3455   18.3359  -27.0186 C.ar    1  UNL1        0.1333
     13 O          49.1815   19.6725  -27.3754 O.3     1  UNL1       -0.5055
     14 C          50.5566   17.8852  -26.4827 C.ar    1  UNL1        0.0363
     15 C          50.7193   16.5424  -26.1348 C.ar    1  UNL1       -0.0015
     16 C          49.6671   15.6270  -26.3289 C.ar    1  UNL1       -0.0263
     17 C          49.7656   14.1478  -26.0309 C.3     1  UNL1        0.0221
     18 C          51.0994   13.5372  -25.4705 C.3     1  UNL1        0.0045
     19 C          51.1156   13.2061  -23.9627 C.3     1  UNL1        0.0036
     20 C          49.7755   12.6033  -23.4006 C.3     1  UNL1        0.0341
     21 C          49.3112   13.5534  -22.2438 C.3     1  UNL1        0.0034
     22 H          50.2109   10.1780  -21.2002 H       1  UNL1        0.2114
     23 H          45.4847   11.3925  -22.8851 H       1  UNL1        0.1023
     24 H          49.9292   20.3470  -27.2610 H       1  UNL1        0.2922
     25 C          51.2959    9.5325  -24.4262 C.1     1  UNL1       -0.0119
     26 C          50.6362   10.2554  -23.7221 C.1     1  UNL1       -0.0525
@<TRIPOS>BOND
     1    25    26    3
     2     1    26    1
     3     1     2    1
     4     1     3    1
     5     3     4    1
     6     4     5    1
     7     4     6    1
     8     6     7    1
     9     7     8    1
    10     8     9    1
    11     9    10    1
    12    10    11   ar
    13    11    12   ar
    14    12    13    1
    15    12    14   ar
    16    14    15   ar
    17    15    16   ar
    18    16    17    1
    19    17    18    1
    20    18    19    1
    21    19    20    1
    22    20    21    1
    23    20     1    1
    24    20     6    1
    25    17     7    1
    26    16    10   ar
    27     2    22    1
    28     5    23    1
    29    13    24    1
@<TRIPOS>MOLECULE
*****
 26 29 0 0 0
SMALL
GASTEIGER

@<TRIPOS>ATOM
      1 C          46.9173   12.4884  -22.7922 C.3     1  UNL1        0.1428
      2 O          45.5643   12.1265  -22.6425 O.3     1  UNL1       -0.3752
      3 C          47.7209   11.3862  -23.5517 C.3     1  UNL1        0.0500
      4 C          48.7453   12.1039  -24.4672 C.3     1  UNL1        0.0472
      5 S          48.4853   11.7040  -26.2368 S.3     1  UNL1       -0.1687
      6 C          48.5566   13.5864  -24.1269 C.3     1  UNL1        0.0132
      7 C          48.9903   14.7275  -25.0571 C.3     1  UNL1        0.0053
      8 C          50.3807   14.5958  -25.7015 C.3     1  UNL1        0.0050
      9 C          50.7125   15.8372  -26.5825 C.3     1  UNL1        0.0261
     10 C          49.8401   17.0749  -26.3572 C.ar    1  UNL1       -0.0231
     11 C          49.8974   18.1168  -27.2955 C.ar    1  UNL1        0.0320
     12 C          49.0679   19.2337  -27.1711 C.ar    1  UNL1        0.1333
     13 O          49.1411   20.2523  -28.1186 O.3     1  UNL1       -0.5055
     14 C          48.1665   19.3165  -26.1045 C.ar    1  UNL1        0.0363
     15 C          48.1031   18.2969  -25.1520 C.ar    1  UNL1       -0.0015
     16 C          48.9533   17.1791  -25.2521 C.ar    1  UNL1       -0.0263
     17 C          48.9933   16.0524  -24.2444 C.3     1  UNL1        0.0221
     18 C          48.0526   16.0771  -22.9872 C.3     1  UNL1        0.0045
     19 C          46.8194   15.1499  -23.0415 C.3     1  UNL1        0.0036
     20 C          47.0734   13.7449  -23.7023 C.3     1  UNL1        0.0341
     21 C          46.0629   13.6249  -24.8944 C.3     1  UNL1        0.0034
     22 H          45.5375   11.2465  -22.1816 H       1  UNL1        0.2114
     23 H          48.8298   10.3510  -26.0558 H       1  UNL1        0.1023
     24 H          48.5516   21.0745  -28.0592 H       1  UNL1        0.2922
     25 C          47.9865   12.8785  -20.3543 C.1     1  UNL1       -0.0119
     26 C          47.5074   12.7049  -21.4469 C.1     1  UNL1       -0.0525
@<TRIPOS>BOND
     1    25    26    3
     2     1    26    1
     3     1     2    1
     4     1     3    1
     5     3     4    1
     6     4     5    1
     7     4     6    1
     8     6     7    1
     9     7     8    1
    10     8     9    1
    11     9    10    1
    12    10    11   ar
    13    11    12   ar
    14    12    13    1
    15    12    14   ar
    16    14    15   ar
    17    15    16   ar
    18    16    17    1
    19    17    18    1
    20    18    19    1
    21    19    20    1
    22    20    21    1
    23    20     1    1
    24    20     6    1
    25    17     7    1
    26    16    10   ar
    27     2    22    1
    28     5    23    1
    29    13    24    1
@<TRIPOS>MOLECULE
*****
 26 29 0 0 0
SMALL
GASTEIGER

@<TRIPOS>ATOM
      1 C          49.4663   10.5378  -21.7018 C.3     1  UNL1        0.1428
      2 O          50.5834   10.8743  -20.9127 O.3     1  UNL1       -0.3752
      3 C          48.2096   10.2567  -20.8192 C.3     1  UNL1        0.0500
      4 C          46.9764   10.8181  -21.5721 C.3     1  UNL1        0.0472
      5 S          46.1112   12.1132  -20.6062 S.3     1  UNL1       -0.1687
      6 C          47.5593   11.3132  -22.9003 C.3     1  UNL1        0.0132
      7 C          46.8609   12.3458  -23.7955 C.3     1  UNL1        0.0053
      8 C          45.3524   12.1486  -24.0215 C.3     1  UNL1        0.0050
      9 C          44.7801   13.2352  -24.9803 C.3     1  UNL1        0.0261
     10 C          45.8088   14.0188  -25.7998 C.ar    1  UNL1       -0.0231
     11 C          45.3930   15.1839  -26.4622 C.ar    1  UNL1        0.0320
     12 C          46.3103   15.9707  -27.1627 C.ar    1  UNL1        0.1333
     13 O          45.8727   17.1252  -27.8082 O.3     1  UNL1       -0.5055
     14 C          47.6584   15.5995  -27.2032 C.ar    1  UNL1        0.0363
     15 C          48.0908   14.4364  -26.5621 C.ar    1  UNL1       -0.0015
     16 C          47.1706   13.6211  -25.8758 C.ar    1  UNL1       -0.0263
     17 C          47.5342   12.3201  -25.1962 C.3     1  UNL1        0.0221
     18 C          49.0136   11.7943  -25.2263 C.3     1  UNL1        0.0045
     19 C          49.8275   11.9772  -23.9273 C.3     1  UNL1        0.0036
     20 C          49.0213   11.7334  -22.5984 C.3     1  UNL1        0.0341
     21 C          49.1349   13.0532  -21.7607 C.3     1  UNL1        0.0034
     22 H          50.7278   10.1349  -20.2647 H       1  UNL1        0.2114
     23 H          45.7212   11.2058  -19.6029 H       1  UNL1        0.1023
     24 H          46.5126   17.7194  -28.3225 H       1  UNL1        0.2922
     25 C          50.0623    8.3592  -23.1638 C.1     1  UNL1       -0.0119
     26 C          49.7940    9.3351  -22.5088 C.1     1  UNL1       -0.0525
@<TRIPOS>BOND
     1    25    26    3
     2     1    26    1
     3     1     2    1
     4     1     3    1
     5     3     4    1
     6     4     5    1
     7     4     6    1
     8     6     7    1
     9     7     8    1
    10     8     9    1
    11     9    10    1
    12    10    11   ar
    13    11    12   ar
    14    12    13    1
    15    12    14   ar
    16    14    15   ar
    17    15    16   ar
    18    16    17    1
    19    17    18    1
    20    18    19    1
    21    19    20    1
    22    20    21    1
    23    20     1    1
    24    20     6    1
    25    17     7    1
    26    16    10   ar
    27     2    22    1
    28     5    23    1
    29    13    24    1
@<TRIPOS>MOLECULE
*****
 26 29 0 0 0
SMALL
GASTEIGER

@<TRIPOS>ATOM
      1 C          46.8949   15.8998  -26.2540 C.3     1  UNL1        0.1428
      2 O          46.0834   16.9865  -25.8737 O.3     1  UNL1       -0.3752
      3 C          48.3385   16.3680  -26.6200 C.3     1  UNL1        0.0500
      4 C          49.3229   15.2842  -26.1109 C.3     1  UNL1        0.0472
      5 S          50.5085   15.9533  -24.8839 S.3     1  UNL1       -0.1687
      6 C          48.4016   14.1910  -25.5584 C.3     1  UNL1        0.0132
      7 C          48.8610   13.1319  -24.5472 C.3     1  UNL1        0.0053
      8 C          50.2206   12.4670  -24.8207 C.3     1  UNL1        0.0050
      9 C          50.5440   11.3848  -23.7475 C.3     1  UNL1        0.0261
     10 C          49.3653   10.9107  -22.8933 C.ar    1  UNL1       -0.0231
     11 C          49.6319   10.1584  -21.7393 C.ar    1  UNL1        0.0320
     12 C          48.5949    9.7648  -20.8902 C.ar    1  UNL1        0.1333
     13 O          48.8867    9.0221  -19.7483 O.3     1  UNL1       -0.5055
     14 C          47.2764   10.1259  -21.1874 C.ar    1  UNL1        0.0363
     15 C          46.9878   10.8628  -22.3382 C.ar    1  UNL1       -0.0015
     16 C          48.0218   11.2418  -23.2155 C.ar    1  UNL1       -0.0263
     17 C          47.8021   11.9947  -24.5084 C.3     1  UNL1        0.0221
     18 C          46.3528   12.4042  -24.9531 C.3     1  UNL1        0.0045
     19 C          45.9729   13.8870  -24.7527 C.3     1  UNL1        0.0036
     20 C          47.1216   14.9153  -25.0663 C.3     1  UNL1        0.0341
     21 C          47.3376   15.7531  -23.7594 C.3     1  UNL1        0.0034
     22 H          46.0956   17.6458  -26.6172 H       1  UNL1        0.2114
     23 H          51.1259   16.7924  -25.8309 H       1  UNL1        0.1023
     24 H          48.1583    8.7232  -19.1103 H       1  UNL1        0.2922
     25 C          45.7703   14.6753  -28.3694 C.1     1  UNL1       -0.0119
     26 C          46.2740   15.2230  -27.4208 C.1     1  UNL1       -0.0525
@<TRIPOS>BOND
     1    25    26    3
     2     1    26    1
     3     1     2    1
     4     1     3    1
     5     3     4    1
     6     4     5    1
     7     4     6    1
     8     6     7    1
     9     7     8    1
    10     8     9    1
    11     9    10    1
    12    10    11   ar
    13    11    12   ar
    14    12    13    1
    15    12    14   ar
    16    14    15   ar
    17    15    16   ar
    18    16    17    1
    19    17    18    1
    20    18    19    1
    21    19    20    1
    22    20    21    1
    23    20     1    1
    24    20     6    1
    25    17     7    1
    26    16    10   ar
    27     2    22    1
    28     5    23    1
    29    13    24    1
@<TRIPOS>MOLECULE
*****
 26 29 0 0 0
SMALL
GASTEIGER

@<TRIPOS>ATOM
      1 C          46.8857   15.3506  -26.5354 C.3     1  UNL1        0.1428
      2 O          46.0562   16.4711  -26.7360 O.3     1  UNL1       -0.3752
      3 C          48.3908   15.7130  -26.7373 C.3     1  UNL1        0.0500
      4 C          49.2071   14.9138  -25.6897 C.3     1  UNL1        0.0472
      5 S          50.1408   16.0140  -24.5598 S.3     1  UNL1       -0.1687
      6 C          48.1505   14.0511  -24.9907 C.3     1  UNL1        0.0132
      7 C          48.3513   13.4321  -23.6008 C.3     1  UNL1        0.0053
      8 C          49.7114   12.7637  -23.3380 C.3     1  UNL1        0.0050
      9 C          49.7657   12.1399  -21.9114 C.3     1  UNL1        0.0261
     10 C          48.4194   11.9530  -21.2069 C.ar    1  UNL1       -0.0231
     11 C          48.4143   11.6640  -19.8338 C.ar    1  UNL1        0.0320
     12 C          47.2107   11.5559  -19.1332 C.ar    1  UNL1        0.1333
     13 O          47.2331   11.2726  -17.7693 O.3     1  UNL1       -0.5055
     14 C          45.9963   11.7411  -19.8023 C.ar    1  UNL1        0.0363
     15 C          45.9785   12.0160  -21.1715 C.ar    1  UNL1       -0.0015
     16 C          47.1843   12.1005  -21.8936 C.ar    1  UNL1       -0.0263
     17 C          47.2639   12.3429  -23.3840 C.3     1  UNL1        0.0221
     18 C          45.9536   12.5169  -24.2318 C.3     1  UNL1        0.0045
     19 C          45.5983   13.9607  -24.6471 C.3     1  UNL1        0.0036
     20 C          46.8258   14.8547  -25.0583 C.3     1  UNL1        0.0341
     21 C          46.8013   16.1053  -24.1138 C.3     1  UNL1        0.0034
     22 H          46.2461   16.8273  -27.6441 H       1  UNL1        0.2114
     23 H          50.9713   16.4892  -25.5925 H       1  UNL1        0.1023
     24 H          46.3783   11.1903  -17.2313 H       1  UNL1        0.2922
     25 C          46.1737   13.4201  -28.2689 C.1     1  UNL1       -0.0119
     26 C          46.4917   14.2850  -27.4915 C.1     1  UNL1       -0.0525
@<TRIPOS>BOND
     1    25    26    3
     2     1    26    1
     3     1     2    1
     4     1     3    1
     5     3     4    1
     6     4     5    1
     7     4     6    1
     8     6     7    1
     9     7     8    1
    10     8     9    1
    11     9    10    1
    12    10    11   ar
    13    11    12   ar
    14    12    13    1
    15    12    14   ar
    16    14    15   ar
    17    15    16   ar
    18    16    17    1
    19    17    18    1
    20    18    19    1
    21    19    20    1
    22    20    21    1
    23    20     1    1
    24    20     6    1
    25    17     7    1
    26    16    10   ar
    27     2    22    1
    28     5    23    1
    29    13    24    1
@<TRIPOS>MOLECULE
*****
 26 29 0 0 0
SMALL
GASTEIGER

@<TRIPOS>ATOM
      1 C          48.5880   17.4007  -26.5376 C.3     1  UNL1        0.1428
      2 O          49.8266   17.6963  -27.1396 O.3     1  UNL1       -0.3752
      3 C          47.5162   17.0088  -27.6029 C.3     1  UNL1        0.0500
      4 C          46.6420   15.8838  -26.9924 C.3     1  UNL1        0.0472
      5 S          46.7170   14.3416  -27.9796 S.3     1  UNL1       -0.1687
      6 C          47.1837   15.7400  -25.5658 C.3     1  UNL1        0.0132
      7 C          46.9806   14.4832  -24.7087 C.3     1  UNL1        0.0053
      8 C          45.5679   13.8749  -24.7080 C.3     1  UNL1        0.0050
      9 C          45.4892   12.6357  -23.7670 C.3     1  UNL1        0.0261
     10 C          46.6334   12.4802  -22.7618 C.ar    1  UNL1       -0.0231
     11 C          46.7728   11.2580  -22.0866 C.ar    1  UNL1        0.0320
     12 C          47.8426   11.0442  -21.2143 C.ar    1  UNL1        0.1333
     13 O          47.9606    9.8202  -20.5596 O.3     1  UNL1       -0.5055
     14 C          48.7891   12.0542  -21.0123 C.ar    1  UNL1        0.0363
     15 C          48.6615   13.2830  -21.6639 C.ar    1  UNL1       -0.0015
     16 C          47.5726   13.5195  -22.5246 C.ar    1  UNL1       -0.0263
     17 C          47.3225   14.8318  -23.2331 C.3     1  UNL1        0.0221
     18 C          48.3031   16.0420  -23.0336 C.3     1  UNL1        0.0045
     19 C          49.2850   16.3206  -24.1918 C.3     1  UNL1        0.0036
     20 C          48.6822   16.1341  -25.6330 C.3     1  UNL1        0.0341
     21 C          49.5790   15.0714  -26.3561 C.3     1  UNL1        0.0034
     22 H          49.6719   18.4137  -27.8096 H       1  UNL1        0.2114
     23 H          46.0788   14.9337  -29.0861 H       1  UNL1        0.1023
     24 H          48.7260    9.6317  -19.9227 H       1  UNL1        0.2922
     25 C          47.7579   19.5568  -25.1586 C.1     1  UNL1       -0.0119
     26 C          48.1294   18.5899  -25.7757 C.1     1  UNL1       -0.0525
@<TRIPOS>BOND
     1    25    26    3
     2     1    26    1
     3     1     2    1
     4     1     3    1
     5     3     4    1
     6     4     5    1
     7     4     6    1
     8     6     7    1
     9     7     8    1
    10     8     9    1
    11     9    10    1
    12    10    11   ar
    13    11    12   ar
    14    12    13    1
    15    12    14   ar
    16    14    15   ar
    17    15    16   ar
    18    16    17    1
    19    17    18    1
    20    18    19    1
    21    19    20    1
    22    20    21    1
    23    20     1    1
    24    20     6    1
    25    17     7    1
    26    16    10   ar
    27     2    22    1
    28     5    23    1
    29    13    24    1
@<TRIPOS>MOLECULE
*****
 26 29 0 0 0
SMALL
GASTEIGER

@<TRIPOS>ATOM
      1 C          48.8132   11.8131  -20.3764 C.3     1  UNL1        0.1428
      2 O          49.4222   10.5790  -20.0764 O.3     1  UNL1       -0.3752
      3 C          49.7803   13.0072  -20.1008 C.3     1  UNL1        0.0500
      4 C          49.5421   14.0650  -21.2085 C.3     1  UNL1        0.0472
      5 S          51.0557   14.3856  -22.1909 S.3     1  UNL1       -0.1687
      6 C          48.3812   13.4812  -22.0211 C.3     1  UNL1        0.0132
      7 C          48.0675   13.8986  -23.4643 C.3     1  UNL1        0.0053
      8 C          48.1025   15.4066  -23.7648 C.3     1  UNL1        0.0050
      9 C          47.7236   15.6937  -25.2486 C.3     1  UNL1        0.0261
     10 C          47.0367   14.5510  -26.0010 C.ar    1  UNL1       -0.0231
     11 C          46.9240   14.6382  -27.3970 C.ar    1  UNL1        0.0320
     12 C          46.3700   13.5888  -28.1338 C.ar    1  UNL1        0.1333
     13 O          46.2736   13.6984  -29.5192 O.3     1  UNL1       -0.5055
     14 C          45.9259   12.4358  -27.4778 C.ar    1  UNL1        0.0363
     15 C          46.0163   12.3342  -26.0878 C.ar    1  UNL1       -0.0015
     16 C          46.5480   13.3967  -25.3323 C.ar    1  UNL1       -0.0263
     17 C          46.6397   13.4000  -23.8229 C.3     1  UNL1        0.0221
     18 C          46.1240   12.1707  -22.9929 C.3     1  UNL1        0.0045
     19 C          47.2078   11.2243  -22.4334 C.3     1  UNL1        0.0036
     20 C          48.5031   11.9399  -21.8993 C.3     1  UNL1        0.0341
     21 C          49.7067   11.3399  -22.7042 C.3     1  UNL1        0.0034
     22 H          49.7264   10.6155  -19.1311 H       1  UNL1        0.2114
     23 H          51.7359   14.9470  -21.0935 H       1  UNL1        0.1023
     24 H          45.8795   12.9544  -30.0833 H       1  UNL1        0.2922
     25 C          46.5939   12.0745  -18.8780 C.1     1  UNL1       -0.0119
     26 C          47.5878   11.9565  -19.5501 C.1     1  UNL1       -0.0525
@<TRIPOS>BOND
     1    25    26    3
     2     1    26    1
     3     1     2    1
     4     1     3    1
     5     3     4    1
     6     4     5    1
     7     4     6    1
     8     6     7    1
     9     7     8    1
    10     8     9    1
    11     9    10    1
    12    10    11   ar
    13    11    12   ar
    14    12    13    1
    15    12    14   ar
    16    14    15   ar
    17    15    16   ar
    18    16    17    1
    19    17    18    1
    20    18    19    1
    21    19    20    1
    22    20    21    1
    23    20     1    1
    24    20     6    1
    25    17     7    1
    26    16    10   ar
    27     2    22    1
    28     5    23    1
    29    13    24    1
@<TRIPOS>MOLECULE
*****
 26 29 0 0 0
SMALL
GASTEIGER

@<TRIPOS>ATOM
      1 C          48.2681   11.8215  -21.8222 C.3     1  UNL1        0.1428
      2 O          48.7286   10.4979  -21.9631 O.3     1  UNL1       -0.3752
      3 C          49.3607   12.7403  -21.1902 C.3     1  UNL1        0.0500
      4 C          49.2600   14.1254  -21.8787 C.3     1  UNL1        0.0472
      5 S          50.8140   14.5823  -22.7361 S.3     1  UNL1       -0.1687
      6 C          48.0519   13.9782  -22.8103 C.3     1  UNL1        0.0132
      7 C          47.8082   14.8833  -24.0255 C.3     1  UNL1        0.0053
      8 C          48.0186   16.3916  -23.8102 C.3     1  UNL1        0.0050
      9 C          47.6960   17.1954  -25.1052 C.3     1  UNL1        0.0261
     10 C          46.8944   16.4517  -26.1768 C.ar    1  UNL1       -0.0231
     11 C          46.8122   17.0094  -27.4618 C.ar    1  UNL1        0.0320
     12 C          46.1530   16.3330  -28.4909 C.ar    1  UNL1        0.1333
     13 O          46.0893   16.9063  -29.7590 O.3     1  UNL1       -0.5055
     14 C          45.5714   15.0850  -28.2434 C.ar    1  UNL1        0.0363
     15 C          45.6300   14.5184  -26.9682 C.ar    1  UNL1       -0.0015
     16 C          46.2682   15.2033  -25.9165 C.ar    1  UNL1       -0.0263
     17 C          46.3382   14.6951  -24.4941 C.3     1  UNL1        0.0221
     18 C          45.6744   13.3259  -24.1059 C.3     1  UNL1        0.0045
     19 C          46.6356   12.1325  -23.9183 C.3     1  UNL1        0.0036
     20 C          47.9961   12.4805  -23.2090 C.3     1  UNL1        0.0341
     21 C          49.1350   12.0509  -24.1964 C.3     1  UNL1        0.0034
     22 H          49.0215   10.1843  -21.0667 H       1  UNL1        0.2114
     23 H          51.5380   14.6678  -21.5316 H       1  UNL1        0.1023
     24 H          45.6212   16.4408  -30.5279 H       1  UNL1        0.2922
     25 C          46.0711   11.8143  -20.2691 C.1     1  UNL1       -0.0119
     26 C          47.0554   11.8187  -20.9654 C.1     1  UNL1       -0.0525
@<TRIPOS>BOND
     1    25    26    3
     2     1    26    1
     3     1     2    1
     4     1     3    1
     5     3     4    1
     6     4     5    1
     7     4     6    1
     8     6     7    1
     9     7     8    1
    10     8     9    1
    11     9    10    1
    12    10    11   ar
    13    11    12   ar
    14    12    13    1
    15    12    14   ar
    16    14    15   ar
    17    15    16   ar
    18    16    17    1
    19    17    18    1
    20    18    19    1
    21    19    20    1
    22    20    21    1
    23    20     1    1
    24    20     6    1
    25    17     7    1
    26    16    10   ar
    27     2    22    1
    28     5    23    1
    29    13    24    1
