@<TRIPOS>MOLECULE
*****
 52 58 0 0 0
SMALL
GASTEIGER

@<TRIPOS>ATOM
      1 C          58.6656   86.5950    9.8337 C.ar    1  UNL1        0.0481
      2 C          58.0464   85.3708    9.5378 C.ar    1  UNL1        0.0176
      3 C          57.6733   84.5025   10.5663 C.ar    1  UNL1        0.0382
      4 C          57.9237   84.8282   11.9039 C.ar    1  UNL1        0.1388
      5 C          58.5180   86.0695   12.2037 C.ar    1  UNL1        0.0382
      6 C          58.8924   86.9386   11.1748 C.ar    1  UNL1        0.0176
      7 N          59.3626   89.5370    6.9281 N.pl3   1  UNL1       -0.3041
      8 C          59.7898   89.7865    8.3104 C.3     1  UNL1        0.1122
      9 C          60.1402   88.4675    8.9991 C.3     1  UNL1        0.1122
     10 N          59.0694   87.4884    8.7792 N.pl3   1  UNL1       -0.3041
     11 C          58.6454   87.2363    7.3967 C.3     1  UNL1        0.1122
     12 C          58.2942   88.5549    6.7069 C.3     1  UNL1        0.1122
     13 C          60.4753   92.2568    3.8407 C.ar    1  UNL1        0.0699
     14 C          59.1643   92.2465    4.3477 C.ar    1  UNL1        0.0190
     15 C          58.8027   91.3536    5.3602 C.ar    1  UNL1        0.0160
     16 C          59.7416   90.4516    5.8823 C.ar    1  UNL1        0.0480
     17 C          61.0506   90.4569    5.3746 C.ar    1  UNL1        0.0160
     18 C          61.4126   91.3479    4.3606 C.ar    1  UNL1        0.0190
     19 N          61.9175   94.1735    1.1157 N.ar    1  UNL1       -0.2024
     20 N          60.8335   94.8923    1.3664 N.ar    1  UNL1       -0.1442
     21 C          60.1920   94.2759    2.3828 C.ar    1  UNL1        0.2073
     22 N          60.8540   93.1700    2.7925 N.ar    1  UNL1       -0.2398
     23 C          61.9237   93.1341    1.9735 C.ar    1  UNL1        0.3522
     24 O          62.7981   92.2261    1.9822 O.2     1  UNL1       -0.2444
     25 C          62.8838   94.4963    0.0591 C.3     1  UNL1        0.1099
     26 C          64.3103   94.4857    0.6254 C.3     1  UNL1        0.0265
     27 C          61.3695   93.6964   -1.8397 C.3     1  UNL1        0.0021
     28 C          62.7138   93.5293   -1.1311 C.3     1  UNL1        0.0245
     29 O          57.5511   83.8932   12.8834 O.3     1  UNL1       -0.4727
     30 C          58.2617   82.7093   13.2578 C.3     1  UNL1        0.2374
     31 C          59.6360   82.6272   12.5718 C.3     1  UNL1        0.1909
     32 C          60.5240   81.5269   13.0850 C.3     1  UNL1        0.1783
     33 O          61.8162   82.0483   13.1248 O.3     1  UNL1       -0.3271
     34 C          61.7135   83.4143   12.7756 C.3     1  UNL1        0.2232
     35 O          60.3542   83.8049   12.7588 O.3     1  UNL1       -0.3258
     36 C          62.3537   83.6414   11.3998 C.ar    1  UNL1        0.0401
     37 C          61.6171   84.2883   10.3836 C.ar    1  UNL1       -0.0022
     38 C          62.1744   84.5301    9.1182 C.ar    1  UNL1       -0.0114
     39 C          61.3552   85.2094    8.0547 C.3     1  UNL1        0.0319
     40 C          63.5004   84.1420    8.8635 C.ar    1  UNL1        0.0545
     41 CL         64.2574   84.4224    7.2985 Cl      1  UNL1       -0.0825
     42 C          64.2523   83.5326    9.8684 C.ar    1  UNL1        0.0223
     43 C          63.7017   83.2884   11.1304 C.ar    1  UNL1        0.0591
     44 CL         64.7640   82.5653   12.3380 Cl      1  UNL1       -0.0824
     45 C          62.4514   84.2827   13.8173 C.3     1  UNL1        0.1338
     46 N          61.9628   85.6838   13.8031 N.3     1  UNL1       -0.2659
     47 C          63.0806   86.6521   13.8163 C.3     1  UNL1        0.0898
     48 C          63.6849   86.7872   15.2232 C.3     1  UNL1        0.0897
     49 N          62.6758   87.1157   16.2620 N.3     1  UNL1       -0.2691
     50 C          62.7988   86.2344   17.4347 C.3     1  UNL1        0.0897
     51 C          61.2867   87.1586   15.7582 C.3     1  UNL1        0.0897
     52 C          60.9539   85.9465   14.8673 C.3     1  UNL1        0.0898
@<TRIPOS>BOND
     1    27    28    1
     2    28    25    1
     3    25    26    1
     4    25    19    1
     5    19    20   ar
     6    20    21   ar
     7    21    22   ar
     8    22    13    1
     9    13    14   ar
    10    14    15   ar
    11    15    16   ar
    12    16     7    1
    13     7     8    1
    14     8     9    1
    15     9    10    1
    16    10     1    1
    17     1     2   ar
    18     2     3   ar
    19     3     4   ar
    20     4    29    1
    21    29    30    1
    22    30    31    1
    23    31    32    1
    24    32    33    1
    25    33    34    1
    26    34    45    1
    27    45    46    1
    28    46    47    1
    29    47    48    1
    30    48    49    1
    31    49    50    1
    32    49    51    1
    33    51    52    1
    34    34    36    1
    35    36    37   ar
    36    37    38   ar
    37    38    39    1
    38    38    40   ar
    39    40    41    1
    40    40    42   ar
    41    42    43   ar
    42    43    44    1
    43    34    35    1
    44     4     5   ar
    45     5     6   ar
    46    10    11    1
    47    11    12    1
    48    16    17   ar
    49    17    18   ar
    50    22    23   ar
    51    23    24    2
    52    23    19   ar
    53    18    13   ar
    54    12     7    1
    55     6     1   ar
    56    35    31    1
    57    52    46    1
    58    43    36   ar
@<TRIPOS>MOLECULE
*****
 52 58 0 0 0
SMALL
GASTEIGER

@<TRIPOS>ATOM
      1 C          58.3622   84.1312   11.1346 C.ar    1  UNL1        0.0481
      2 C          58.3609   82.8219   10.6293 C.ar    1  UNL1        0.0176
      3 C          58.2917   81.7307   11.4986 C.ar    1  UNL1        0.0382
      4 C          58.2394   81.9214   12.8837 C.ar    1  UNL1        0.1388
      5 C          58.2107   83.2353   13.3905 C.ar    1  UNL1        0.0382
      6 C          58.2806   84.3278   12.5212 C.ar    1  UNL1        0.0176
      7 N          59.1854   87.2262    8.4278 N.pl3   1  UNL1       -0.3041
      8 C          58.8068   85.9069    7.9067 C.3     1  UNL1        0.1122
      9 C          57.8827   85.1960    8.8955 C.3     1  UNL1        0.1122
     10 N          58.4508   85.2615   10.2470 N.pl3   1  UNL1       -0.3041
     11 C          58.8255   86.5811   10.7691 C.3     1  UNL1        0.1122
     12 C          59.7502   87.2931    9.7811 C.3     1  UNL1        0.1122
     13 C          59.5559   90.5373    5.7694 C.ar    1  UNL1        0.0699
     14 C          60.5804   90.2344    6.6830 C.ar    1  UNL1        0.0190
     15 C          60.4559   89.1479    7.5533 C.ar    1  UNL1        0.0160
     16 C          59.3049   88.3463    7.5306 C.ar    1  UNL1        0.0480
     17 C          58.2783   88.6494    6.6220 C.ar    1  UNL1        0.0160
     18 C          58.4010   89.7370    5.7530 C.ar    1  UNL1        0.0190
     19 N          60.3932   93.0982    3.3363 N.ar    1  UNL1       -0.2024
     20 N          59.2252   93.5505    3.7674 N.ar    1  UNL1       -0.1442
     21 C          58.7940   92.6712    4.6978 C.ar    1  UNL1        0.2073
     22 N          59.6742   91.6596    4.8736 N.ar    1  UNL1       -0.2398
     23 C          60.6579   91.9563    4.0013 C.ar    1  UNL1        0.3522
     24 O          61.6764   91.2401    3.8047 O.2     1  UNL1       -0.2444
     25 C          61.1913   93.7606    2.2977 C.3     1  UNL1        0.1099
     26 C          61.6934   92.7293    1.2780 C.3     1  UNL1        0.0265
     27 C          59.8496   94.5127    0.2549 C.3     1  UNL1        0.0021
     28 C          60.3744   94.8923    1.6397 C.3     1  UNL1        0.0245
     29 O          58.2044   80.7780   13.6986 O.3     1  UNL1       -0.4727
     30 C          59.3160   79.9701   14.0963 C.3     1  UNL1        0.2374
     31 C          60.6371   80.4820   13.4975 C.3     1  UNL1        0.1909
     32 C          61.8726   79.8697   14.0988 C.3     1  UNL1        0.1783
     33 O          62.8123   80.8943   14.1996 O.3     1  UNL1       -0.3271
     34 C          62.1603   82.0836   13.8009 C.3     1  UNL1        0.2232
     35 O          60.7691   81.8544   13.6893 O.3     1  UNL1       -0.3258
     36 C          62.7348   82.5582   12.4596 C.ar    1  UNL1        0.0401
     37 C          61.8619   83.0029   11.4428 C.ar    1  UNL1       -0.0022
     38 C          62.3502   83.4614   10.2093 C.ar    1  UNL1       -0.0114
     39 C          61.3898   83.9144    9.1434 C.3     1  UNL1        0.0319
     40 C          63.7371   83.5013    9.9889 C.ar    1  UNL1        0.0545
     41 CL         64.4114   84.0709    8.4652 Cl      1  UNL1       -0.0825
     42 C          64.6137   83.0974   10.9965 C.ar    1  UNL1        0.0223
     43 C          64.1325   82.6388   12.2268 C.ar    1  UNL1        0.0591
     44 CL         65.3344   82.2100   13.4438 Cl      1  UNL1       -0.0824
     45 C          62.3836   83.1878   14.8565 C.3     1  UNL1        0.1338
     46 N          62.2557   84.5423   14.2638 N.3     1  UNL1       -0.2659
     47 C          63.5470   85.2631   14.2652 C.3     1  UNL1        0.0898
     48 C          63.8776   85.8126   15.6622 C.3     1  UNL1        0.0897
     49 N          62.7921   86.6517   16.2304 N.3     1  UNL1       -0.2691
     50 C          62.4685   86.2570   17.6112 C.3     1  UNL1        0.0897
     51 C          61.5801   86.7188   15.3867 C.3     1  UNL1        0.0897
     52 C          61.1497   85.3303   14.8763 C.3     1  UNL1        0.0898
@<TRIPOS>BOND
     1    27    28    1
     2    28    25    1
     3    25    26    1
     4    25    19    1
     5    19    20   ar
     6    20    21   ar
     7    21    22   ar
     8    22    13    1
     9    13    14   ar
    10    14    15   ar
    11    15    16   ar
    12    16     7    1
    13     7     8    1
    14     8     9    1
    15     9    10    1
    16    10     1    1
    17     1     2   ar
    18     2     3   ar
    19     3     4   ar
    20     4    29    1
    21    29    30    1
    22    30    31    1
    23    31    32    1
    24    32    33    1
    25    33    34    1
    26    34    45    1
    27    45    46    1
    28    46    47    1
    29    47    48    1
    30    48    49    1
    31    49    50    1
    32    49    51    1
    33    51    52    1
    34    34    36    1
    35    36    37   ar
    36    37    38   ar
    37    38    39    1
    38    38    40   ar
    39    40    41    1
    40    40    42   ar
    41    42    43   ar
    42    43    44    1
    43    34    35    1
    44     4     5   ar
    45     5     6   ar
    46    10    11    1
    47    11    12    1
    48    16    17   ar
    49    17    18   ar
    50    22    23   ar
    51    23    24    2
    52    23    19   ar
    53    18    13   ar
    54    12     7    1
    55     6     1   ar
    56    35    31    1
    57    52    46    1
    58    43    36   ar
@<TRIPOS>MOLECULE
*****
 52 58 0 0 0
SMALL
GASTEIGER

@<TRIPOS>ATOM
      1 C          58.3267   85.3467   10.4909 C.ar    1  UNL1        0.0481
      2 C          58.1424   84.0268   10.0512 C.ar    1  UNL1        0.0176
      3 C          58.0045   82.9885   10.9754 C.ar    1  UNL1        0.0382
      4 C          58.0639   83.2416   12.3502 C.ar    1  UNL1        0.1388
      5 C          58.2192   84.5697   12.7929 C.ar    1  UNL1        0.0382
      6 C          58.3579   85.6092   11.8686 C.ar    1  UNL1        0.0176
      7 N          59.3611   88.2617    7.6595 N.pl3   1  UNL1       -0.3041
      8 C          58.9859   86.9203    7.1955 C.3     1  UNL1        0.1122
      9 C          57.9942   86.2846    8.1699 C.3     1  UNL1        0.1122
     10 N          58.4872   86.4208    9.5454 N.pl3   1  UNL1       -0.3041
     11 C          58.8584   87.7627   10.0102 C.3     1  UNL1        0.1122
     12 C          59.8507   88.3993    9.0365 C.3     1  UNL1        0.1122
     13 C          59.9156   91.4168    4.8479 C.ar    1  UNL1        0.0699
     14 C          58.6247   91.0452    5.2617 C.ar    1  UNL1        0.0190
     15 C          58.4462   90.0103    6.1839 C.ar    1  UNL1        0.0160
     16 C          59.5527   89.3245    6.7068 C.ar    1  UNL1        0.0480
     17 C          60.8429   89.6909    6.2918 C.ar    1  UNL1        0.0160
     18 C          61.0222   90.7241    5.3679 C.ar    1  UNL1        0.0190
     19 N          60.8657   93.7360    2.2215 N.ar    1  UNL1       -0.2024
     20 N          59.8395   94.3835    2.7527 N.ar    1  UNL1       -0.1442
     21 C          59.3829   93.6132    3.7641 C.ar    1  UNL1        0.2073
     22 N          60.1073   92.4784    3.8927 N.ar    1  UNL1       -0.2398
     23 C          61.0207   92.5865    2.9076 C.ar    1  UNL1        0.3522
     24 O          61.8852   91.7097    2.6377 O.2     1  UNL1       -0.2444
     25 C          61.6359   94.2299    1.0738 C.3     1  UNL1        0.1099
     26 C          63.0783   94.5384    1.4978 C.3     1  UNL1        0.0265
     27 C          60.1436   93.0199   -0.6138 C.3     1  UNL1        0.0021
     28 C          61.5658   93.2182   -0.0892 C.3     1  UNL1        0.0245
     29 O          57.9504   82.1452   13.2206 O.3     1  UNL1       -0.4727
     30 C          58.9533   81.1660   13.5069 C.3     1  UNL1        0.2374
     31 C          60.2939   81.5083   12.8350 C.3     1  UNL1        0.1909
     32 C          61.4563   80.6763   13.3034 C.3     1  UNL1        0.1783
     33 O          62.5501   81.5365   13.3856 O.3     1  UNL1       -0.3271
     34 C          62.0672   82.8350   13.1043 C.3     1  UNL1        0.2232
     35 O          60.6529   82.8289   13.0900 O.3     1  UNL1       -0.3258
     36 C          62.6151   83.3035   11.7498 C.ar    1  UNL1        0.0401
     37 C          61.7959   84.0675   10.8902 C.ar    1  UNL1       -0.0022
     38 C          62.2671   84.5295    9.6514 C.ar    1  UNL1       -0.0114
     39 C          61.3615   85.3291    8.7547 C.3     1  UNL1        0.0319
     40 C          63.5887   84.2466    9.2676 C.ar    1  UNL1        0.0545
     41 CL         64.2399   84.8026    7.7289 Cl      1  UNL1       -0.0825
     42 C          64.4211   83.5220   10.1213 C.ar    1  UNL1        0.0223
     43 C          63.9564   83.0585   11.3560 C.ar    1  UNL1        0.0591
     44 CL         65.1148   82.2042   12.3748 Cl      1  UNL1       -0.0824
     45 C          62.5337   83.8204   14.1975 C.3     1  UNL1        0.1338
     46 N          62.0542   85.1989   13.9292 N.3     1  UNL1       -0.2659
     47 C          63.1729   86.1646   13.8717 C.3     1  UNL1        0.0898
     48 C          63.6744   86.5217   15.2801 C.3     1  UNL1        0.0897
     49 N          62.5944   87.0019   16.1792 N.3     1  UNL1       -0.2691
     50 C          62.6279   86.3154   17.4810 C.3     1  UNL1        0.0897
     51 C          61.2456   86.9565   15.5759 C.3     1  UNL1        0.0897
     52 C          60.9723   85.6180   14.8637 C.3     1  UNL1        0.0898
@<TRIPOS>BOND
     1    27    28    1
     2    28    25    1
     3    25    26    1
     4    25    19    1
     5    19    20   ar
     6    20    21   ar
     7    21    22   ar
     8    22    13    1
     9    13    14   ar
    10    14    15   ar
    11    15    16   ar
    12    16     7    1
    13     7     8    1
    14     8     9    1
    15     9    10    1
    16    10     1    1
    17     1     2   ar
    18     2     3   ar
    19     3     4   ar
    20     4    29    1
    21    29    30    1
    22    30    31    1
    23    31    32    1
    24    32    33    1
    25    33    34    1
    26    34    45    1
    27    45    46    1
    28    46    47    1
    29    47    48    1
    30    48    49    1
    31    49    50    1
    32    49    51    1
    33    51    52    1
    34    34    36    1
    35    36    37   ar
    36    37    38   ar
    37    38    39    1
    38    38    40   ar
    39    40    41    1
    40    40    42   ar
    41    42    43   ar
    42    43    44    1
    43    34    35    1
    44     4     5   ar
    45     5     6   ar
    46    10    11    1
    47    11    12    1
    48    16    17   ar
    49    17    18   ar
    50    22    23   ar
    51    23    24    2
    52    23    19   ar
    53    18    13   ar
    54    12     7    1
    55     6     1   ar
    56    35    31    1
    57    52    46    1
    58    43    36   ar
@<TRIPOS>MOLECULE
*****
 52 58 0 0 0
SMALL
GASTEIGER

@<TRIPOS>ATOM
      1 C          61.0073   85.3826    9.4440 C.ar    1  UNL1        0.0481
      2 C          59.6837   85.6937    9.0963 C.ar    1  UNL1        0.0176
      3 C          58.9124   84.7825    8.3712 C.ar    1  UNL1        0.0382
      4 C          59.4478   83.5552    7.9655 C.ar    1  UNL1        0.1388
      5 C          60.7663   83.2295    8.3392 C.ar    1  UNL1        0.0382
      6 C          61.5390   84.1412    9.0643 C.ar    1  UNL1        0.0176
      7 N          62.8595   88.2244   11.9092 N.pl3   1  UNL1       -0.3041
      8 C          62.6897   86.8535   12.4065 C.3     1  UNL1        0.1122
      9 C          62.7147   85.8642   11.2413 C.3     1  UNL1        0.1122
     10 N          61.8154   86.3229   10.1761 N.pl3   1  UNL1       -0.3041
     11 C          61.9882   87.6922    9.6765 C.3     1  UNL1        0.1122
     12 C          61.9630   88.6828   10.8411 C.3     1  UNL1        0.1122
     13 C          65.1630   91.0376   14.1335 C.ar    1  UNL1        0.0699
     14 C          64.6313   91.3805   12.8783 C.ar    1  UNL1        0.0190
     15 C          63.8762   90.4558   12.1515 C.ar    1  UNL1        0.0160
     16 C          63.6417   89.1705   12.6622 C.ar    1  UNL1        0.0480
     17 C          64.1753   88.8241   13.9138 C.ar    1  UNL1        0.0160
     18 C          64.9324   89.7473   14.6402 C.ar    1  UNL1        0.0190
     19 N          67.5615   93.3539   15.5692 N.ar    1  UNL1       -0.2024
     20 N          66.5872   93.4338   16.4630 N.ar    1  UNL1       -0.1442
     21 C          65.6107   92.6017   16.0402 C.ar    1  UNL1        0.2073
     22 N          65.9478   91.9832   14.8857 N.ar    1  UNL1       -0.2398
     23 C          67.1706   92.4829   14.6180 C.ar    1  UNL1        0.3522
     24 O          67.8467   92.2016   13.5920 O.2     1  UNL1       -0.2444
     25 C          68.8078   94.1250   15.6502 C.3     1  UNL1        0.1099
     26 C          68.8699   94.8923   16.9780 C.3     1  UNL1        0.0265
     27 C          70.1273   92.1177   16.5266 C.3     1  UNL1        0.0021
     28 C          70.0228   93.1957   15.4477 C.3     1  UNL1        0.0245
     29 O          58.6254   82.7023    7.2112 O.3     1  UNL1       -0.4727
     30 C          58.0812   81.4451    7.6235 C.3     1  UNL1        0.2374
     31 C          58.6306   81.0060    8.9914 C.3     1  UNL1        0.1909
     32 C          57.7234   80.0856    9.7612 C.3     1  UNL1        0.1783
     33 O          57.8097   80.4726   11.0976 O.3     1  UNL1       -0.3271
     34 C          58.6206   81.6300   11.1334 C.3     1  UNL1        0.2232
     35 O          58.8361   82.1063    9.8191 O.3     1  UNL1       -0.3258
     36 C          59.9575   81.2987   11.8096 C.ar    1  UNL1        0.0401
     37 C          61.1614   81.7851   11.2550 C.ar    1  UNL1       -0.0022
     38 C          62.4023   81.5185   11.8545 C.ar    1  UNL1       -0.0114
     39 C          63.6663   82.0410   11.2278 C.3     1  UNL1        0.0319
     40 C          62.4470   80.7721   13.0439 C.ar    1  UNL1        0.0545
     41 CL         63.9717   80.4090   13.8465 Cl      1  UNL1       -0.0825
     42 C          61.2630   80.3137   13.6226 C.ar    1  UNL1        0.0223
     43 C          60.0243   80.5756   13.0290 C.ar    1  UNL1        0.0591
     44 CL         58.5931   79.9959   13.8805 Cl      1  UNL1       -0.0824
     45 C          57.9173   82.7430   11.9398 C.3     1  UNL1        0.1338
     46 N          58.4561   84.0839   11.6025 N.3     1  UNL1       -0.2659
     47 C          59.3999   84.5682   12.6330 C.3     1  UNL1        0.0898
     48 C          58.6541   85.0859   13.8733 C.3     1  UNL1        0.0897
     49 N          57.6331   86.1153   13.5520 N.3     1  UNL1       -0.2691
     50 C          56.3425   85.8174   14.1944 C.3     1  UNL1        0.0897
     51 C          57.4729   86.3719   12.1050 C.3     1  UNL1        0.0897
     52 C          57.3820   85.0677   11.2900 C.3     1  UNL1        0.0898
@<TRIPOS>BOND
     1    27    28    1
     2    28    25    1
     3    25    26    1
     4    25    19    1
     5    19    20   ar
     6    20    21   ar
     7    21    22   ar
     8    22    13    1
     9    13    14   ar
    10    14    15   ar
    11    15    16   ar
    12    16     7    1
    13     7     8    1
    14     8     9    1
    15     9    10    1
    16    10     1    1
    17     1     2   ar
    18     2     3   ar
    19     3     4   ar
    20     4    29    1
    21    29    30    1
    22    30    31    1
    23    31    32    1
    24    32    33    1
    25    33    34    1
    26    34    45    1
    27    45    46    1
    28    46    47    1
    29    47    48    1
    30    48    49    1
    31    49    50    1
    32    49    51    1
    33    51    52    1
    34    34    36    1
    35    36    37   ar
    36    37    38   ar
    37    38    39    1
    38    38    40   ar
    39    40    41    1
    40    40    42   ar
    41    42    43   ar
    42    43    44    1
    43    34    35    1
    44     4     5   ar
    45     5     6   ar
    46    10    11    1
    47    11    12    1
    48    16    17   ar
    49    17    18   ar
    50    22    23   ar
    51    23    24    2
    52    23    19   ar
    53    18    13   ar
    54    12     7    1
    55     6     1   ar
    56    35    31    1
    57    52    46    1
    58    43    36   ar
@<TRIPOS>MOLECULE
*****
 52 58 0 0 0
SMALL
GASTEIGER

@<TRIPOS>ATOM
      1 C          59.7507   87.2718   10.1826 C.ar    1  UNL1        0.0481
      2 C          60.6027   87.4661   11.2808 C.ar    1  UNL1        0.0176
      3 C          60.4516   86.6948   12.4356 C.ar    1  UNL1        0.0382
      4 C          59.4421   85.7300   12.5247 C.ar    1  UNL1        0.1388
      5 C          58.6055   85.5137   11.4124 C.ar    1  UNL1        0.0382
      6 C          58.7557   86.2857   10.2567 C.ar    1  UNL1        0.0176
      7 N          59.6251   89.8698    6.8935 N.pl3   1  UNL1       -0.3041
      8 C          60.0909   90.3824    8.1880 C.3     1  UNL1        0.1122
      9 C          60.7505   89.2615    8.9914 C.3     1  UNL1        0.1122
     10 N          59.8879   88.0742    8.9950 N.pl3   1  UNL1       -0.3041
     11 C          59.4257   87.5597    7.7003 C.3     1  UNL1        0.1122
     12 C          58.7654   88.6800    6.8959 C.3     1  UNL1        0.1122
     13 C          59.9589   92.2829    3.3959 C.ar    1  UNL1        0.0699
     14 C          61.0815   91.6146    3.9146 C.ar    1  UNL1        0.0190
     15 C          60.9687   90.8239    5.0615 C.ar    1  UNL1        0.0160
     16 C          59.7344   90.6892    5.7143 C.ar    1  UNL1        0.0480
     17 C          58.6126   91.3592    5.2008 C.ar    1  UNL1        0.0160
     18 C          58.7249   92.1519    4.0553 C.ar    1  UNL1        0.0190
     19 N          60.1759   93.8155    0.1121 N.ar    1  UNL1       -0.2024
     20 N          60.2639   94.8888    0.8834 N.ar    1  UNL1       -0.1442
     21 C          60.1955   94.4501    2.1591 C.ar    1  UNL1        0.2073
     22 N          60.0688   93.1049    2.2177 N.ar    1  UNL1       -0.2398
     23 C          60.0534   92.7434    0.9194 C.ar    1  UNL1        0.3522
     24 O          59.9060   91.5600    0.5106 O.2     1  UNL1       -0.2444
     25 C          60.1903   93.8619   -1.3548 C.3     1  UNL1        0.1099
     26 C          58.9220   94.5521   -1.8749 C.3     1  UNL1        0.0265
     27 C          62.7460   93.8054   -1.4177 C.3     1  UNL1        0.0021
     28 C          61.4810   94.5453   -1.8530 C.3     1  UNL1        0.0245
     29 O          59.3283   85.0146   13.7280 O.3     1  UNL1       -0.4727
     30 C          59.7932   83.6867   13.9870 C.3     1  UNL1        0.2374
     31 C          59.5137   82.7430   12.8050 C.3     1  UNL1        0.1909
     32 C          59.4511   81.2856   13.1722 C.3     1  UNL1        0.1783
     33 O          60.0740   80.5902   12.1370 O.3     1  UNL1       -0.3271
     34 C          60.5931   81.5614   11.2506 C.3     1  UNL1        0.2232
     35 O          60.5152   82.8433   11.8434 O.3     1  UNL1       -0.3258
     36 C          59.8031   81.5299    9.9357 C.ar    1  UNL1        0.0401
     37 C          60.2433   82.2988    8.8364 C.ar    1  UNL1       -0.0022
     38 C          59.5578   82.2823    7.6116 C.ar    1  UNL1       -0.0114
     39 C          60.0476   83.1255    6.4659 C.3     1  UNL1        0.0319
     40 C          58.4233   81.4662    7.4677 C.ar    1  UNL1        0.0545
     41 CL         57.5238   81.3979    5.9555 Cl      1  UNL1       -0.0825
     42 C          57.9959   80.6745    8.5342 C.ar    1  UNL1        0.0223
     43 C          58.6746   80.6880    9.7568 C.ar    1  UNL1        0.0591
     44 CL         58.0775   79.6037   11.0127 Cl      1  UNL1       -0.0824
     45 C          62.0767   81.2603   10.9471 C.3     1  UNL1        0.1338
     46 N          62.7895   82.4678   10.4612 N.3     1  UNL1       -0.2659
     47 C          64.2571   82.3086   10.5508 C.3     1  UNL1        0.0898
     48 C          64.7511   82.4937   11.9946 C.3     1  UNL1        0.0897
     49 N          64.3105   83.7754   12.6016 N.3     1  UNL1       -0.2691
     50 C          63.7293   83.5702   13.9385 C.3     1  UNL1        0.0897
     51 C          63.4155   84.5736   11.7372 C.3     1  UNL1        0.0897
     52 C          62.3000   83.7175   11.1078 C.3     1  UNL1        0.0898
@<TRIPOS>BOND
     1    27    28    1
     2    28    25    1
     3    25    26    1
     4    25    19    1
     5    19    20   ar
     6    20    21   ar
     7    21    22   ar
     8    22    13    1
     9    13    14   ar
    10    14    15   ar
    11    15    16   ar
    12    16     7    1
    13     7     8    1
    14     8     9    1
    15     9    10    1
    16    10     1    1
    17     1     2   ar
    18     2     3   ar
    19     3     4   ar
    20     4    29    1
    21    29    30    1
    22    30    31    1
    23    31    32    1
    24    32    33    1
    25    33    34    1
    26    34    45    1
    27    45    46    1
    28    46    47    1
    29    47    48    1
    30    48    49    1
    31    49    50    1
    32    49    51    1
    33    51    52    1
    34    34    36    1
    35    36    37   ar
    36    37    38   ar
    37    38    39    1
    38    38    40   ar
    39    40    41    1
    40    40    42   ar
    41    42    43   ar
    42    43    44    1
    43    34    35    1
    44     4     5   ar
    45     5     6   ar
    46    10    11    1
    47    11    12    1
    48    16    17   ar
    49    17    18   ar
    50    22    23   ar
    51    23    24    2
    52    23    19   ar
    53    18    13   ar
    54    12     7    1
    55     6     1   ar
    56    35    31    1
    57    52    46    1
    58    43    36   ar
@<TRIPOS>MOLECULE
*****
 52 58 0 0 0
SMALL
GASTEIGER

@<TRIPOS>ATOM
      1 C          59.4972   87.9812   10.7014 C.ar    1  UNL1        0.0481
      2 C          59.3758   86.5893   10.8336 C.ar    1  UNL1        0.0176
      3 C          59.1338   86.0183   12.0852 C.ar    1  UNL1        0.0382
      4 C          59.0250   86.8185   13.2278 C.ar    1  UNL1        0.1388
      5 C          59.1172   88.2174   13.0919 C.ar    1  UNL1        0.0382
      6 C          59.3600   88.7895   11.8398 C.ar    1  UNL1        0.0176
      7 N          59.7673   90.0433    7.0602 N.pl3   1  UNL1       -0.3041
      8 C          60.2137   90.7093    8.2901 C.3     1  UNL1        0.1122
      9 C          60.7294   89.6752    9.2910 C.3     1  UNL1        0.1122
     10 N          59.7641   88.5772    9.4181 N.pl3   1  UNL1       -0.3041
     11 C          59.3211   87.9090    8.1886 C.3     1  UNL1        0.1122
     12 C          58.8046   88.9423    7.1868 C.3     1  UNL1        0.1122
     13 C          60.4872   91.8533    3.2690 C.ar    1  UNL1        0.0699
     14 C          61.5046   91.1407    3.9270 C.ar    1  UNL1        0.0190
     15 C          61.2653   90.5482    5.1700 C.ar    1  UNL1        0.0160
     16 C          60.0075   90.6597    5.7810 C.ar    1  UNL1        0.0480
     17 C          58.9909   91.3746    5.1279 C.ar    1  UNL1        0.0160
     18 C          59.2300   91.9693    3.8860 C.ar    1  UNL1        0.0190
     19 N          61.7009   93.3628    0.1985 N.ar    1  UNL1       -0.2024
     20 N          60.3950   93.3885   -0.0221 N.ar    1  UNL1       -0.1442
     21 C          59.8118   92.8442    1.0680 C.ar    1  UNL1        0.2073
     22 N          60.7282   92.4723    1.9904 N.ar    1  UNL1       -0.2398
     23 C          61.8979   92.8056    1.4097 C.ar    1  UNL1        0.3522
     24 O          63.0321   92.5906    1.9162 O.2     1  UNL1       -0.2444
     25 C          62.6998   93.8487   -0.7609 C.3     1  UNL1        0.1099
     26 C          62.0054   94.4076   -2.0103 C.3     1  UNL1        0.0265
     27 C          65.1065   94.5323   -0.2325 C.3     1  UNL1        0.0021
     28 C          63.6256   94.8830   -0.0872 C.3     1  UNL1        0.0245
     29 O          58.8140   86.1739   14.4577 O.3     1  UNL1       -0.4727
     30 C          59.7890   85.9145   15.4719 C.3     1  UNL1        0.2374
     31 C          61.0845   85.3307   14.8828 C.3     1  UNL1        0.1909
     32 C          62.1807   85.1064   15.8881 C.3     1  UNL1        0.1783
     33 O          63.3725   85.4637   15.2593 O.3     1  UNL1       -0.3271
     34 C          63.0224   85.9877   13.9940 C.3     1  UNL1        0.2232
     35 O          61.6237   86.1869   13.9267 O.3     1  UNL1       -0.3258
     36 C          63.4797   85.0205   12.8941 C.ar    1  UNL1        0.0401
     37 C          62.8307   85.0297   11.6402 C.ar    1  UNL1       -0.0022
     38 C          63.2318   84.1728   10.6033 C.ar    1  UNL1       -0.0114
     39 C          62.5079   84.2000    9.2847 C.3     1  UNL1        0.0319
     40 C          64.3166   83.3038   10.8081 C.ar    1  UNL1        0.0545
     41 CL         64.8707   82.2091    9.5452 Cl      1  UNL1       -0.0825
     42 C          64.9899   83.3074   12.0302 C.ar    1  UNL1        0.0223
     43 C          64.5937   84.1583   13.0668 C.ar    1  UNL1        0.0591
     44 CL         65.5546   84.1162   14.5448 Cl      1  UNL1       -0.0824
     45 C          63.7141   87.3509   13.7770 C.3     1  UNL1        0.1338
     46 N          62.8592   88.4746   14.2336 N.3     1  UNL1       -0.2659
     47 C          62.6179   89.4523   13.1504 C.3     1  UNL1        0.0898
     48 C          63.8407   90.3582   12.9342 C.3     1  UNL1        0.0897
     49 N          64.2934   91.0329   14.1772 N.3     1  UNL1       -0.2691
     50 C          65.7456   90.8912   14.3725 C.3     1  UNL1        0.0897
     51 C          63.5416   90.6336   15.3858 C.3     1  UNL1        0.0897
     52 C          63.3673   89.1060   15.4836 C.3     1  UNL1        0.0898
@<TRIPOS>BOND
     1    27    28    1
     2    28    25    1
     3    25    26    1
     4    25    19    1
     5    19    20   ar
     6    20    21   ar
     7    21    22   ar
     8    22    13    1
     9    13    14   ar
    10    14    15   ar
    11    15    16   ar
    12    16     7    1
    13     7     8    1
    14     8     9    1
    15     9    10    1
    16    10     1    1
    17     1     2   ar
    18     2     3   ar
    19     3     4   ar
    20     4    29    1
    21    29    30    1
    22    30    31    1
    23    31    32    1
    24    32    33    1
    25    33    34    1
    26    34    45    1
    27    45    46    1
    28    46    47    1
    29    47    48    1
    30    48    49    1
    31    49    50    1
    32    49    51    1
    33    51    52    1
    34    34    36    1
    35    36    37   ar
    36    37    38   ar
    37    38    39    1
    38    38    40   ar
    39    40    41    1
    40    40    42   ar
    41    42    43   ar
    42    43    44    1
    43    34    35    1
    44     4     5   ar
    45     5     6   ar
    46    10    11    1
    47    11    12    1
    48    16    17   ar
    49    17    18   ar
    50    22    23   ar
    51    23    24    2
    52    23    19   ar
    53    18    13   ar
    54    12     7    1
    55     6     1   ar
    56    35    31    1
    57    52    46    1
    58    43    36   ar
@<TRIPOS>MOLECULE
*****
 52 58 0 0 0
SMALL
GASTEIGER

@<TRIPOS>ATOM
      1 C          59.6654   88.0752   10.9231 C.ar    1  UNL1        0.0481
      2 C          59.5890   86.6827   11.0809 C.ar    1  UNL1        0.0176
      3 C          59.3504   86.1278   12.3404 C.ar    1  UNL1        0.0382
      4 C          59.2004   86.9455   13.4658 C.ar    1  UNL1        0.1388
      5 C          59.2474   88.3439   13.3038 C.ar    1  UNL1        0.0382
      6 C          59.4868   88.8999   12.0438 C.ar    1  UNL1        0.0176
      7 N          59.8671   89.9950    7.2006 N.pl3   1  UNL1       -0.3041
      8 C          60.0785   90.7839    8.4207 C.3     1  UNL1        0.1122
      9 C          60.6858   89.9069    9.5157 C.3     1  UNL1        0.1122
     10 N          59.9284   88.6553    9.6318 N.pl3   1  UNL1       -0.3041
     11 C          59.7207   87.8649    8.4125 C.3     1  UNL1        0.1122
     12 C          59.1129   88.7410    7.3165 C.3     1  UNL1        0.1122
     13 C          60.5464   91.7712    3.3860 C.ar    1  UNL1        0.0699
     14 C          59.2733   91.8160    3.9802 C.ar    1  UNL1        0.0190
     15 C          59.0539   91.2328    5.2313 C.ar    1  UNL1        0.0160
     16 C          60.1000   90.5904    5.9102 C.ar    1  UNL1        0.0480
     17 C          61.3714   90.5405    5.3169 C.ar    1  UNL1        0.0160
     18 C          61.5912   91.1214    4.0649 C.ar    1  UNL1        0.0190
     19 N          60.5145   93.3747    0.1291 N.ar    1  UNL1       -0.2024
     20 N          61.8078   93.1183    0.2570 N.ar    1  UNL1       -0.1442
     21 C          61.9607   92.5080    1.4523 C.ar    1  UNL1        0.2073
     22 N          60.7788   92.3645    2.0937 N.ar    1  UNL1       -0.2398
     23 C          59.8987   92.9237    1.2398 C.ar    1  UNL1        0.3522
     24 O          58.6643   93.0437    1.4654 O.2     1  UNL1       -0.2444
     25 C          59.9289   94.0553   -1.0319 C.3     1  UNL1        0.1099
     26 C          60.9998   94.8826   -1.7560 C.3     1  UNL1        0.0265
     27 C          57.7205   93.0809   -1.8760 C.3     1  UNL1        0.0021
     28 C          59.2461   93.0301   -1.9613 C.3     1  UNL1        0.0245
     29 O          58.9956   86.3177   14.7054 O.3     1  UNL1       -0.4727
     30 C          59.9882   86.0085   15.6881 C.3     1  UNL1        0.2374
     31 C          61.2562   85.4144   15.0517 C.3     1  UNL1        0.1909
     32 C          62.3958   85.2053   16.0110 C.3     1  UNL1        0.1783
     33 O          63.5586   85.5515   15.3246 O.3     1  UNL1       -0.3271
     34 C          63.1531   86.0555   14.0677 C.3     1  UNL1        0.2232
     35 O          61.7528   86.2548   14.0592 O.3     1  UNL1       -0.3258
     36 C          63.5612   85.0705   12.9643 C.ar    1  UNL1        0.0401
     37 C          62.9264   85.1290   11.7045 C.ar    1  UNL1       -0.0022
     38 C          63.2847   84.2570   10.6645 C.ar    1  UNL1       -0.0114
     39 C          62.5769   84.3385    9.3393 C.3     1  UNL1        0.0319
     40 C          64.3121   83.3216   10.8724 C.ar    1  UNL1        0.0545
     41 CL         64.8106   82.2045    9.6058 Cl      1  UNL1       -0.0825
     42 C          64.9721   83.2746   12.1008 C.ar    1  UNL1        0.0223
     43 C          64.6185   84.1403   13.1405 C.ar    1  UNL1        0.0591
     44 CL         65.5603   84.0282   14.6271 Cl      1  UNL1       -0.0824
     45 C          63.8347   87.4145   13.7986 C.3     1  UNL1        0.1338
     46 N          62.9727   88.5484   14.2150 N.3     1  UNL1       -0.2659
     47 C          62.7939   89.5286   13.1220 C.3     1  UNL1        0.0898
     48 C          64.0361   90.4199   12.9634 C.3     1  UNL1        0.0897
     49 N          64.4383   91.0894   14.2265 N.3     1  UNL1       -0.2691
     50 C          65.8780   90.9306   14.4894 C.3     1  UNL1        0.0897
     51 C          63.6261   90.6995   15.3984 C.3     1  UNL1        0.0897
     52 C          63.4293   89.1741   15.4876 C.3     1  UNL1        0.0898
@<TRIPOS>BOND
     1    27    28    1
     2    28    25    1
     3    25    26    1
     4    25    19    1
     5    19    20   ar
     6    20    21   ar
     7    21    22   ar
     8    22    13    1
     9    13    14   ar
    10    14    15   ar
    11    15    16   ar
    12    16     7    1
    13     7     8    1
    14     8     9    1
    15     9    10    1
    16    10     1    1
    17     1     2   ar
    18     2     3   ar
    19     3     4   ar
    20     4    29    1
    21    29    30    1
    22    30    31    1
    23    31    32    1
    24    32    33    1
    25    33    34    1
    26    34    45    1
    27    45    46    1
    28    46    47    1
    29    47    48    1
    30    48    49    1
    31    49    50    1
    32    49    51    1
    33    51    52    1
    34    34    36    1
    35    36    37   ar
    36    37    38   ar
    37    38    39    1
    38    38    40   ar
    39    40    41    1
    40    40    42   ar
    41    42    43   ar
    42    43    44    1
    43    34    35    1
    44     4     5   ar
    45     5     6   ar
    46    10    11    1
    47    11    12    1
    48    16    17   ar
    49    17    18   ar
    50    22    23   ar
    51    23    24    2
    52    23    19   ar
    53    18    13   ar
    54    12     7    1
    55     6     1   ar
    56    35    31    1
    57    52    46    1
    58    43    36   ar
@<TRIPOS>MOLECULE
*****
 52 58 0 0 0
SMALL
GASTEIGER

@<TRIPOS>ATOM
      1 C          60.1460   88.0084   10.7331 C.ar    1  UNL1        0.0481
      2 C          61.3708   87.9760   11.4176 C.ar    1  UNL1        0.0176
      3 C          61.5053   87.2239   12.5869 C.ar    1  UNL1        0.0382
      4 C          60.4218   86.5055   13.1043 C.ar    1  UNL1        0.1388
      5 C          59.2007   86.5135   12.4022 C.ar    1  UNL1        0.0382
      6 C          59.0652   87.2665   11.2323 C.ar    1  UNL1        0.0176
      7 N          60.1985   90.0076    7.0474 N.pl3   1  UNL1       -0.3041
      8 C          59.6481   88.6481    7.1119 C.3     1  UNL1        0.1122
      9 C          59.0449   88.3895    8.4926 C.3     1  UNL1        0.1122
     10 N          59.9933   88.7949    9.5367 N.pl3   1  UNL1       -0.3041
     11 C          60.5402   90.1556    9.4741 C.3     1  UNL1        0.1122
     12 C          61.1442   90.4153    8.0935 C.3     1  UNL1        0.1122
     13 C          59.8345   92.2758    3.4571 C.ar    1  UNL1        0.0699
     14 C          61.0778   91.7497    3.8487 C.ar    1  UNL1        0.0190
     15 C          61.1938   91.0062    5.0265 C.ar    1  UNL1        0.0160
     16 C          60.0720   90.7779    5.8372 C.ar    1  UNL1        0.0480
     17 C          58.8299   91.3060    5.4505 C.ar    1  UNL1        0.0160
     18 C          58.7134   92.0515    4.2741 C.ar    1  UNL1        0.0190
     19 N          59.4557   93.6677    0.1256 N.ar    1  UNL1       -0.2024
     20 N          59.5670   94.7789    0.8380 N.ar    1  UNL1       -0.1442
     21 C          59.7172   94.3955    2.1245 C.ar    1  UNL1        0.2073
     22 N          59.7084   93.0487    2.2476 N.ar    1  UNL1       -0.2398
     23 C          59.5363   92.6277    0.9789 C.ar    1  UNL1        0.3522
     24 O          59.4272   91.4192    0.6374 O.2     1  UNL1       -0.2444
     25 C          59.2563   93.6476   -1.3284 C.3     1  UNL1        0.1099
     26 C          60.5788   93.3303   -2.0395 C.3     1  UNL1        0.0265
     27 C          56.7385   93.2625   -1.5548 C.3     1  UNL1        0.0021
     28 C          58.1341   92.6551   -1.6980 C.3     1  UNL1        0.0245
     29 O          60.6203   85.7980   14.3013 O.3     1  UNL1       -0.4727
     30 C          61.7295   84.9565   14.6299 C.3     1  UNL1        0.2374
     31 C          61.6354   83.5891   13.9318 C.3     1  UNL1        0.1909
     32 C          62.9301   82.8250   13.8804 C.3     1  UNL1        0.1783
     33 O          62.9785   82.2134   12.6287 O.3     1  UNL1       -0.3271
     34 C          61.8484   82.6676   11.9112 C.3     1  UNL1        0.2232
     35 O          61.2354   83.7359   12.6065 O.3     1  UNL1       -0.3258
     36 C          60.8586   81.5097   11.7270 C.ar    1  UNL1        0.0401
     37 C          59.8099   81.6284   10.7891 C.ar    1  UNL1       -0.0022
     38 C          58.8955   80.5843   10.5792 C.ar    1  UNL1       -0.0114
     39 C          57.7817   80.7512    9.5816 C.3     1  UNL1        0.0319
     40 C          59.0394   79.3868   11.2998 C.ar    1  UNL1        0.0545
     41 CL         57.9282   78.0391   11.0775 Cl      1  UNL1       -0.0825
     42 C          60.0910   79.2417   12.2052 C.ar    1  UNL1        0.0223
     43 C          61.0041   80.2791   12.4188 C.ar    1  UNL1        0.0591
     44 CL         62.3245   79.9607   13.5434 Cl      1  UNL1       -0.0824
     45 C          62.2775   83.1815   10.5200 C.3     1  UNL1        0.1338
     46 N          61.7577   84.5468   10.2592 N.3     1  UNL1       -0.2659
     47 C          60.4181   84.5108    9.6336 C.3     1  UNL1        0.0898
     48 C          60.5099   84.1677    8.1380 C.3     1  UNL1        0.0897
     49 N          61.4295   85.0624    7.3902 N.3     1  UNL1       -0.2691
     50 C          62.3653   84.2975    6.5498 C.3     1  UNL1        0.0897
     51 C          62.1392   86.0414    8.2405 C.3     1  UNL1        0.0897
     52 C          62.7274   85.3920    9.5077 C.3     1  UNL1        0.0898
@<TRIPOS>BOND
     1    27    28    1
     2    28    25    1
     3    25    26    1
     4    25    19    1
     5    19    20   ar
     6    20    21   ar
     7    21    22   ar
     8    22    13    1
     9    13    14   ar
    10    14    15   ar
    11    15    16   ar
    12    16     7    1
    13     7     8    1
    14     8     9    1
    15     9    10    1
    16    10     1    1
    17     1     2   ar
    18     2     3   ar
    19     3     4   ar
    20     4    29    1
    21    29    30    1
    22    30    31    1
    23    31    32    1
    24    32    33    1
    25    33    34    1
    26    34    45    1
    27    45    46    1
    28    46    47    1
    29    47    48    1
    30    48    49    1
    31    49    50    1
    32    49    51    1
    33    51    52    1
    34    34    36    1
    35    36    37   ar
    36    37    38   ar
    37    38    39    1
    38    38    40   ar
    39    40    41    1
    40    40    42   ar
    41    42    43   ar
    42    43    44    1
    43    34    35    1
    44     4     5   ar
    45     5     6   ar
    46    10    11    1
    47    11    12    1
    48    16    17   ar
    49    17    18   ar
    50    22    23   ar
    51    23    24    2
    52    23    19   ar
    53    18    13   ar
    54    12     7    1
    55     6     1   ar
    56    35    31    1
    57    52    46    1
    58    43    36   ar
@<TRIPOS>MOLECULE
*****
 52 58 0 0 0
SMALL
GASTEIGER

@<TRIPOS>ATOM
      1 C          59.0112   87.1943   10.1048 C.ar    1  UNL1        0.0481
      2 C          58.2189   86.0485    9.9344 C.ar    1  UNL1        0.0176
      3 C          57.8779   85.2573   11.0339 C.ar    1  UNL1        0.0382
      4 C          58.3315   85.5816   12.3171 C.ar    1  UNL1        0.1388
      5 C          59.1019   86.7475   12.4936 C.ar    1  UNL1        0.0382
      6 C          59.4442   87.5394   11.3937 C.ar    1  UNL1        0.0176
      7 N          59.5710   89.8601    6.9167 N.pl3   1  UNL1       -0.3041
      8 C          59.8874   90.3043    8.2798 C.3     1  UNL1        0.1122
      9 C          60.3310   89.1147    9.1313 C.3     1  UNL1        0.1122
     10 N          59.3823   88.0060    8.9748 N.pl3   1  UNL1       -0.3041
     11 C          59.0694   87.5596    7.6120 C.3     1  UNL1        0.1122
     12 C          58.6251   88.7486    6.7594 C.3     1  UNL1        0.1122
     13 C          60.5792   92.3329    3.5946 C.ar    1  UNL1        0.0699
     14 C          59.2836   92.3585    4.1391 C.ar    1  UNL1        0.0190
     15 C          58.9562   91.5466    5.2286 C.ar    1  UNL1        0.0160
     16 C          59.9147   90.6910    5.7918 C.ar    1  UNL1        0.0480
     17 C          61.2083   90.6604    5.2470 C.ar    1  UNL1        0.0160
     18 C          61.5359   91.4702    4.1561 C.ar    1  UNL1        0.0190
     19 N          61.9013   94.0054    0.6562 N.ar    1  UNL1       -0.2024
     20 N          60.8833   94.8015    0.9469 N.ar    1  UNL1       -0.1442
     21 C          60.2927   94.2821    2.0451 C.ar    1  UNL1        0.2073
     22 N          60.9224   93.1622    2.4675 N.ar    1  UNL1       -0.2398
     23 C          61.9185   93.0163    1.5714 C.ar    1  UNL1        0.3522
     24 O          62.7383   92.0587    1.5664 O.2     1  UNL1       -0.2444
     25 C          62.7954   94.2101   -0.4897 C.3     1  UNL1        0.1099
     26 C          64.2507   93.9479   -0.0787 C.3     1  UNL1        0.0265
     27 C          60.8934   93.5722   -2.0752 C.3     1  UNL1        0.0021
     28 C          62.3494   93.3308   -1.6766 C.3     1  UNL1        0.0245
     29 O          57.9769   84.7229   13.3705 O.3     1  UNL1       -0.4727
     30 C          58.0990   83.2978   13.3975 C.3     1  UNL1        0.2374
     31 C          58.7463   82.7556   12.1119 C.3     1  UNL1        0.1909
     32 C          58.8605   81.2567   12.0557 C.3     1  UNL1        0.1783
     33 O          60.0930   80.9762   11.4678 O.3     1  UNL1       -0.3271
     34 C          60.7470   82.2161   11.2850 C.3     1  UNL1        0.2232
     35 O          60.0457   83.2349   11.9713 O.3     1  UNL1       -0.3258
     36 C          60.8282   82.5369    9.7867 C.ar    1  UNL1        0.0401
     37 C          59.9670   81.8780    8.8825 C.ar    1  UNL1       -0.0022
     38 C          59.9989   82.1574    7.5073 C.ar    1  UNL1       -0.0114
     39 C          59.0762   81.4256    6.5711 C.3     1  UNL1        0.0319
     40 C          60.8896   83.1296    7.0221 C.ar    1  UNL1        0.0545
     41 CL         60.9733   83.5286    5.3090 Cl      1  UNL1       -0.0825
     42 C          61.7229   83.8137    7.9077 C.ar    1  UNL1        0.0223
     43 C          61.6959   83.5384    9.2784 C.ar    1  UNL1        0.0591
     44 CL         62.7520   84.5056   10.3073 Cl      1  UNL1       -0.0824
     45 C          62.1792   82.1474   11.8576 C.3     1  UNL1        0.1338
     46 N          62.1771   81.7327   13.2825 N.3     1  UNL1       -0.2659
     47 C          61.5809   82.7698   14.1521 C.3     1  UNL1        0.0898
     48 C          62.5662   83.9231   14.4007 C.3     1  UNL1        0.0897
     49 N          63.8770   83.4665   14.9285 N.3     1  UNL1       -0.2691
     50 C          64.9982   84.0611   14.1826 C.3     1  UNL1        0.0897
     51 C          64.0073   81.9971   15.0246 C.3     1  UNL1        0.0897
     52 C          63.5198   81.2856   13.7480 C.3     1  UNL1        0.0898
@<TRIPOS>BOND
     1    27    28    1
     2    28    25    1
     3    25    26    1
     4    25    19    1
     5    19    20   ar
     6    20    21   ar
     7    21    22   ar
     8    22    13    1
     9    13    14   ar
    10    14    15   ar
    11    15    16   ar
    12    16     7    1
    13     7     8    1
    14     8     9    1
    15     9    10    1
    16    10     1    1
    17     1     2   ar
    18     2     3   ar
    19     3     4   ar
    20     4    29    1
    21    29    30    1
    22    30    31    1
    23    31    32    1
    24    32    33    1
    25    33    34    1
    26    34    45    1
    27    45    46    1
    28    46    47    1
    29    47    48    1
    30    48    49    1
    31    49    50    1
    32    49    51    1
    33    51    52    1
    34    34    36    1
    35    36    37   ar
    36    37    38   ar
    37    38    39    1
    38    38    40   ar
    39    40    41    1
    40    40    42   ar
    41    42    43   ar
    42    43    44    1
    43    34    35    1
    44     4     5   ar
    45     5     6   ar
    46    10    11    1
    47    11    12    1
    48    16    17   ar
    49    17    18   ar
    50    22    23   ar
    51    23    24    2
    52    23    19   ar
    53    18    13   ar
    54    12     7    1
    55     6     1   ar
    56    35    31    1
    57    52    46    1
    58    43    36   ar
