@<TRIPOS>MOLECULE
*****
 50 55 0 0 0
SMALL
GASTEIGER

@<TRIPOS>ATOM
      1 O          60.7850   83.4253    7.0138 O.2     1  UNL1       -0.2701
      2 C          60.4160   83.7811    8.1661 C.2     1  UNL1        0.2483
      3 N          59.5355   82.9405    8.9333 N.am    1  UNL1       -0.2945
      4 H          59.3568   83.1788    9.9346 H       1  UNL1        0.1501
      5 C          60.9230   85.0527    8.7241 C.ar    1  UNL1        0.0808
      6 C          60.0771   85.8486    9.5134 C.ar    1  UNL1        0.0080
      7 C          60.5327   87.0572   10.0455 C.ar    1  UNL1        0.0148
      8 C          61.8480   87.4870    9.8106 C.ar    1  UNL1        0.0502
      9 C          62.6986   86.6874    9.0312 C.ar    1  UNL1        0.0443
     10 C          62.2459   85.4771    8.4965 C.ar    1  UNL1        0.1457
     11 F          63.1185   84.7024    7.8030 F       1  UNL1       -0.2040
     12 N          62.3131   88.7402   10.3473 N.pl3   1  UNL1       -0.3040
     13 C          63.0795   89.6762    9.5126 C.3     1  UNL1        0.1123
     14 C          64.4046   90.0195   10.2026 C.3     1  UNL1        0.1136
     15 N          64.2164   90.2602   11.6422 N.pl3   1  UNL1       -0.2897
     16 C          62.8555   90.3028   12.1989 C.3     1  UNL1        0.1136
     17 C          62.0796   89.0535   11.7667 C.3     1  UNL1        0.1123
     18 C          65.3714   90.5305   12.4588 C.ar    1  UNL1        0.1323
     19 C          65.2482   90.7663   13.8351 C.ar    1  UNL1        0.0410
     20 C          66.3891   91.0062   14.6059 C.ar    1  UNL1        0.0428
     21 BR         66.1485   91.3183   16.4850 Br      1  UNL1       -0.0489
     22 C          67.6631   91.0013   13.9984 C.ar    1  UNL1        0.0968
     23 C          67.7386   90.7382   12.6188 C.ar    1  UNL1        0.1046
     24 N          66.6103   90.5097   11.8979 N.ar    1  UNL1       -0.2292
     25 C          68.9165   91.2561   14.8065 C.3     1  UNL1        0.4205
     26 F          69.0296   90.3762   15.8695 F       1  UNL1       -0.1658
     27 F          70.0295   91.1039   13.9995 F       1  UNL1       -0.1658
     28 F          68.8907   92.5439   15.3100 F       1  UNL1       -0.1658
     29 C          58.9139   81.7161    8.4130 C.3     1  UNL1        0.1535
     30 C          59.9357   80.6069    8.3322 C.2     1  UNL1        0.2443
     31 O          60.1333   79.9981    7.2445 O.2     1  UNL1       -0.2730
     32 N          60.7328   80.2983    9.4863 N.am    1  UNL1       -0.2825
     33 H          60.8077   81.0245   10.2344 H       1  UNL1        0.1549
     34 C          61.4766   79.0789    9.6486 C.ar    1  UNL1        0.0535
     35 C          62.7315   78.9509    9.0378 C.ar    1  UNL1        0.0353
     36 C          63.4700   77.7783    9.2138 C.ar    1  UNL1        0.1002
     37 N          62.9806   76.7738    9.9876 N.ar    1  UNL1       -0.2422
     38 C          61.7760   76.8764   10.6089 C.ar    1  UNL1        0.1002
     39 C          61.0047   78.0315   10.4582 C.ar    1  UNL1        0.0353
     40 C          57.6716   81.3304    9.2441 C.3     1  UNL1        0.0569
     41 C          58.0081   81.2035   10.7017 C.ar    1  UNL1       -0.0017
     42 C          58.0989   82.2419   11.6242 C.ar    1  UNL1        0.0681
     43 N          58.3330   81.7531   12.8634 N.ar    1  UNL1       -0.3523
     44 C          58.3783   80.4157   12.7328 C.ar    1  UNL1        0.0563
     45 C          58.5736   79.4741   13.7422 C.ar    1  UNL1        0.0170
     46 C          58.5609   78.1136   13.3837 C.ar    1  UNL1        0.0015
     47 C          58.3514   77.7290   12.0405 C.ar    1  UNL1        0.0001
     48 C          58.1545   78.7014   11.0431 C.ar    1  UNL1        0.0012
     49 C          58.1785   80.0419   11.4284 C.ar    1  UNL1        0.0131
     50 H          58.4383   82.3052   13.7433 H       1  UNL1        0.1660
@<TRIPOS>BOND
     1     1     2    2
     2     2     3   am
     3     3    29    1
     4    29    40    1
     5    40    41    1
     6    41    42   ar
     7    42    43   ar
     8    43    44   ar
     9    44    45   ar
    10    45    46   ar
    11    46    47   ar
    12    47    48   ar
    13    48    49   ar
    14    29    30    1
    15    30    31    2
    16    30    32   am
    17    32    34    1
    18    34    35   ar
    19    35    36   ar
    20    36    37   ar
    21    37    38   ar
    22    38    39   ar
    23     2     5    1
    24     5     6   ar
    25     6     7   ar
    26     7     8   ar
    27     8    12    1
    28    12    13    1
    29    13    14    1
    30    14    15    1
    31    15    18    1
    32    18    19   ar
    33    19    20   ar
    34    20    21    1
    35    20    22   ar
    36    22    25    1
    37    25    26    1
    38    25    27    1
    39    25    28    1
    40    22    23   ar
    41    23    24   ar
    42    15    16    1
    43    16    17    1
    44     8     9   ar
    45     9    10   ar
    46    10    11    1
    47    49    41   ar
    48    39    34   ar
    49    10     5   ar
    50    49    44   ar
    51    17    12    1
    52    24    18   ar
    53     3     4    1
    54    43    50    1
    55    32    33    1
@<TRIPOS>MOLECULE
*****
 50 55 0 0 0
SMALL
GASTEIGER

@<TRIPOS>ATOM
      1 O          61.0477   83.4428    6.9064 O.2     1  UNL1       -0.2701
      2 C          60.5728   83.8178    8.0130 C.2     1  UNL1        0.2483
      3 N          59.5964   83.0070    8.6911 N.am    1  UNL1       -0.2945
      4 H          59.3230   83.2582    9.6675 H       1  UNL1        0.1501
      5 C          61.0542   85.0804    8.6126 C.ar    1  UNL1        0.0808
      6 C          60.1713   85.8690    9.3680 C.ar    1  UNL1        0.0080
      7 C          60.6025   87.0690    9.9384 C.ar    1  UNL1        0.0148
      8 C          61.9293   87.4974    9.7764 C.ar    1  UNL1        0.0502
      9 C          62.8163   86.7050    9.0310 C.ar    1  UNL1        0.0443
     10 C          62.3881   85.5032    8.4582 C.ar    1  UNL1        0.1457
     11 F          63.2928   84.7345    7.8001 F       1  UNL1       -0.2040
     12 N          62.3699   88.7420   10.3523 N.pl3   1  UNL1       -0.3040
     13 C          63.0973   89.7287    9.5415 C.3     1  UNL1        0.1123
     14 C          64.4241   90.0820   10.2232 C.3     1  UNL1        0.1136
     15 N          64.2534   90.2640   11.6735 N.pl3   1  UNL1       -0.2897
     16 C          62.9013   90.2491   12.2524 C.3     1  UNL1        0.1136
     17 C          62.1516   88.9961   11.7859 C.3     1  UNL1        0.1123
     18 C          65.4142   90.5350   12.4815 C.ar    1  UNL1        0.1323
     19 C          65.3002   90.7776   13.8575 C.ar    1  UNL1        0.0410
     20 C          66.4466   91.0180   14.6200 C.ar    1  UNL1        0.0428
     21 BR         66.2186   91.3395   16.4991 Br      1  UNL1       -0.0489
     22 C          67.7167   91.0070   14.0046 C.ar    1  UNL1        0.0968
     23 C          67.7829   90.7373   12.6258 C.ar    1  UNL1        0.1046
     24 N          66.6495   90.5084   11.9130 N.ar    1  UNL1       -0.2292
     25 C          68.9758   91.2622   14.8036 C.3     1  UNL1        0.4205
     26 F          68.9921   92.5375   15.3425 F       1  UNL1       -0.1658
     27 F          69.0601   90.3531   15.8426 F       1  UNL1       -0.1658
     28 F          70.0817   91.1230   13.9848 F       1  UNL1       -0.1658
     29 C          58.9985   81.7949    8.1169 C.3     1  UNL1        0.1535
     30 C          59.9763   80.6462    8.1914 C.2     1  UNL1        0.2443
     31 O          60.2212   79.9483    7.1689 O.2     1  UNL1       -0.2730
     32 N          60.6800   80.3989    9.4187 N.am    1  UNL1       -0.2825
     33 H          60.7344   81.1776   10.1139 H       1  UNL1        0.1549
     34 C          61.3596   79.1693    9.7236 C.ar    1  UNL1        0.0535
     35 C          60.7756   78.2631   10.6190 C.ar    1  UNL1        0.0353
     36 C          61.4190   77.0551   10.8986 C.ar    1  UNL1        0.1002
     37 N          62.5973   76.7537   10.2918 N.ar    1  UNL1       -0.2422
     38 C          63.1784   77.6032    9.4040 C.ar    1  UNL1        0.1002
     39 C          62.5688   78.8223    9.0970 C.ar    1  UNL1        0.0353
     40 C          57.6441   81.4765    8.7855 C.3     1  UNL1        0.0569
     41 C          57.7629   81.4679   10.2821 C.ar    1  UNL1       -0.0017
     42 C          58.0130   80.3600   11.0867 C.ar    1  UNL1        0.0681
     43 N          58.1435   80.7355   12.3795 N.ar    1  UNL1       -0.3523
     44 C          57.9905   82.0712   12.3957 C.ar    1  UNL1        0.0563
     45 C          58.0640   82.9169   13.5016 C.ar    1  UNL1        0.0170
     46 C          57.8953   84.2971   13.2862 C.ar    1  UNL1        0.0015
     47 C          57.6638   84.7956   11.9847 C.ar    1  UNL1        0.0001
     48 C          57.5971   83.9186   10.8868 C.ar    1  UNL1        0.0012
     49 C          57.7622   82.5554   11.1329 C.ar    1  UNL1        0.0131
     50 H          58.3413   80.1130   13.1941 H       1  UNL1        0.1660
@<TRIPOS>BOND
     1     1     2    2
     2     2     3   am
     3     3    29    1
     4    29    40    1
     5    40    41    1
     6    41    42   ar
     7    42    43   ar
     8    43    44   ar
     9    44    45   ar
    10    45    46   ar
    11    46    47   ar
    12    47    48   ar
    13    48    49   ar
    14    29    30    1
    15    30    31    2
    16    30    32   am
    17    32    34    1
    18    34    35   ar
    19    35    36   ar
    20    36    37   ar
    21    37    38   ar
    22    38    39   ar
    23     2     5    1
    24     5     6   ar
    25     6     7   ar
    26     7     8   ar
    27     8    12    1
    28    12    13    1
    29    13    14    1
    30    14    15    1
    31    15    18    1
    32    18    19   ar
    33    19    20   ar
    34    20    21    1
    35    20    22   ar
    36    22    25    1
    37    25    26    1
    38    25    27    1
    39    25    28    1
    40    22    23   ar
    41    23    24   ar
    42    15    16    1
    43    16    17    1
    44     8     9   ar
    45     9    10   ar
    46    10    11    1
    47    49    41   ar
    48    39    34   ar
    49    10     5   ar
    50    49    44   ar
    51    17    12    1
    52    24    18   ar
    53     3     4    1
    54    43    50    1
    55    32    33    1
@<TRIPOS>MOLECULE
*****
 50 55 0 0 0
SMALL
GASTEIGER

@<TRIPOS>ATOM
      1 O          60.5778   86.6862   13.5639 O.2     1  UNL1       -0.2701
      2 C          61.2519   86.3464   12.5536 C.2     1  UNL1        0.2483
      3 N          62.3914   85.4808   12.7043 N.am    1  UNL1       -0.2945
      4 H          62.8484   85.0952   11.8477 H       1  UNL1        0.1501
      5 C          60.8375   86.8242   11.2174 C.ar    1  UNL1        0.0808
      6 C          59.7987   86.1670   10.5384 C.ar    1  UNL1        0.0080
      7 C          59.3950   86.5971    9.2722 C.ar    1  UNL1        0.0148
      8 C          60.0127   87.7019    8.6656 C.ar    1  UNL1        0.0502
      9 C          61.0437   88.3671    9.3475 C.ar    1  UNL1        0.0443
     10 C          61.4508   87.9392   10.6152 C.ar    1  UNL1        0.1457
     11 F          62.4061   88.6485   11.2683 F       1  UNL1       -0.2040
     12 N          59.6061   88.1362    7.3538 N.pl3   1  UNL1       -0.3040
     13 C          59.7446   87.2467    6.1920 C.3     1  UNL1        0.1123
     14 C          60.5516   87.9500    5.0947 C.3     1  UNL1        0.1136
     15 N          60.1367   89.3530    4.9356 N.pl3   1  UNL1       -0.2897
     16 C          58.9687   89.8528    5.6771 C.3     1  UNL1        0.1136
     17 C          59.1138   89.5106    7.1642 C.3     1  UNL1        0.1123
     18 C          60.8389   90.1828    3.9910 C.ar    1  UNL1        0.1323
     19 C          60.1536   91.0948    3.1762 C.ar    1  UNL1        0.0410
     20 C          60.8639   91.9012    2.2827 C.ar    1  UNL1        0.0428
     21 BR         59.8632   93.1305    1.1993 Br      1  UNL1       -0.0489
     22 C          62.2699   91.8020    2.2094 C.ar    1  UNL1        0.0968
     23 C          62.9152   90.8885    3.0621 C.ar    1  UNL1        0.1046
     24 N          62.1955   90.1184    3.9189 N.ar    1  UNL1       -0.2292
     25 C          63.0665   92.6625    1.2534 C.3     1  UNL1        0.4205
     26 F          64.2238   92.0283    0.8347 F       1  UNL1       -0.1658
     27 F          62.3021   92.9480    0.1367 F       1  UNL1       -0.1658
     28 F          63.4211   93.8445    1.8778 F       1  UNL1       -0.1658
     29 C          62.9221   85.0454   14.0025 C.3     1  UNL1        0.1535
     30 C          63.4195   86.2357   14.7878 C.2     1  UNL1        0.2443
     31 O          63.5552   86.1634   16.0403 O.2     1  UNL1       -0.2730
     32 N          63.8056   87.4292   14.0884 N.am    1  UNL1       -0.2825
     33 H          64.0234   87.3473   13.0693 H       1  UNL1        0.1549
     34 C          63.9649   88.7135   14.7144 C.ar    1  UNL1        0.0535
     35 C          63.0554   89.1162   15.7018 C.ar    1  UNL1        0.0353
     36 C          63.2207   90.3519   16.3319 C.ar    1  UNL1        0.1002
     37 N          64.2686   91.1516   16.0003 N.ar    1  UNL1       -0.2422
     38 C          65.1782   90.7801   15.0611 C.ar    1  UNL1        0.1002
     39 C          65.0491   89.5528   14.4059 C.ar    1  UNL1        0.0353
     40 C          61.8789   84.2090   14.7739 C.3     1  UNL1        0.0569
     41 C          61.5303   82.9517   14.0312 C.ar    1  UNL1       -0.0017
     42 C          62.2690   81.7722   14.0071 C.ar    1  UNL1        0.0681
     43 N          61.6117   80.8180   13.3094 N.ar    1  UNL1       -0.3523
     44 C          60.4599   81.3810   12.9042 C.ar    1  UNL1        0.0563
     45 C          59.4385   80.7806   12.1694 C.ar    1  UNL1        0.0170
     46 C          58.3007   81.5532   11.8724 C.ar    1  UNL1        0.0015
     47 C          58.2086   82.8918   12.3150 C.ar    1  UNL1        0.0001
     48 C          59.2541   83.4707   13.0572 C.ar    1  UNL1        0.0012
     49 C          60.3716   82.6815   13.3306 C.ar    1  UNL1        0.0131
     50 H          61.9298   79.8382   13.1384 H       1  UNL1        0.1660
@<TRIPOS>BOND
     1     1     2    2
     2     2     3   am
     3     3    29    1
     4    29    40    1
     5    40    41    1
     6    41    42   ar
     7    42    43   ar
     8    43    44   ar
     9    44    45   ar
    10    45    46   ar
    11    46    47   ar
    12    47    48   ar
    13    48    49   ar
    14    29    30    1
    15    30    31    2
    16    30    32   am
    17    32    34    1
    18    34    35   ar
    19    35    36   ar
    20    36    37   ar
    21    37    38   ar
    22    38    39   ar
    23     2     5    1
    24     5     6   ar
    25     6     7   ar
    26     7     8   ar
    27     8    12    1
    28    12    13    1
    29    13    14    1
    30    14    15    1
    31    15    18    1
    32    18    19   ar
    33    19    20   ar
    34    20    21    1
    35    20    22   ar
    36    22    25    1
    37    25    26    1
    38    25    27    1
    39    25    28    1
    40    22    23   ar
    41    23    24   ar
    42    15    16    1
    43    16    17    1
    44     8     9   ar
    45     9    10   ar
    46    10    11    1
    47    49    41   ar
    48    39    34   ar
    49    10     5   ar
    50    49    44   ar
    51    17    12    1
    52    24    18   ar
    53     3     4    1
    54    43    50    1
    55    32    33    1
@<TRIPOS>MOLECULE
*****
 50 55 0 0 0
SMALL
GASTEIGER

@<TRIPOS>ATOM
      1 O          62.4410   85.9146   12.3127 O.2     1  UNL1       -0.2701
      2 C          62.0427   87.0959   12.1215 C.2     1  UNL1        0.2483
      3 N          62.1843   88.0820   13.1598 N.am    1  UNL1       -0.2945
      4 H          61.9837   89.0824   12.9357 H       1  UNL1        0.1501
      5 C          61.4595   87.4563   10.8117 C.ar    1  UNL1        0.0808
      6 C          62.1117   88.3972    9.9986 C.ar    1  UNL1        0.0080
      7 C          61.5754   88.7577    8.7601 C.ar    1  UNL1        0.0148
      8 C          60.3834   88.1737    8.3039 C.ar    1  UNL1        0.0502
      9 C          59.7358   87.2247    9.1103 C.ar    1  UNL1        0.0443
     10 C          60.2695   86.8616   10.3509 C.ar    1  UNL1        0.1457
     11 F          59.6481   85.8934   11.0711 F       1  UNL1       -0.2040
     12 N          59.8229   88.5563    7.0333 N.pl3   1  UNL1       -0.3040
     13 C          59.8661   87.6379    5.8866 C.3     1  UNL1        0.1123
     14 C          60.5251   88.3340    4.6903 C.3     1  UNL1        0.1136
     15 N          60.0471   89.7178    4.5413 N.pl3   1  UNL1       -0.2897
     16 C          58.9493   90.2019    5.3923 C.3     1  UNL1        0.1136
     17 C          59.2657   89.9082    6.8631 C.3     1  UNL1        0.1123
     18 C          60.6141   90.5414    3.5049 C.ar    1  UNL1        0.1323
     19 C          59.7981   91.2175    2.5871 C.ar    1  UNL1        0.0410
     20 C          60.3761   92.0256    1.6042 C.ar    1  UNL1        0.0428
     21 BR         59.2001   92.9251    0.3819 Br      1  UNL1       -0.0489
     22 C          61.7792   92.1664    1.5438 C.ar    1  UNL1        0.0968
     23 C          62.5554   91.4863    2.4994 C.ar    1  UNL1        0.1046
     24 N          61.9625   90.7077    3.4414 N.ar    1  UNL1       -0.2292
     25 C          62.4341   93.0352    0.4925 C.3     1  UNL1        0.4205
     26 F          63.4193   93.8427    1.0349 F       1  UNL1       -0.1658
     27 F          63.0149   92.2363   -0.4758 F       1  UNL1       -0.1658
     28 F          61.4828   93.8479   -0.0969 F       1  UNL1       -0.1658
     29 C          62.6614   87.7800   14.5154 C.3     1  UNL1        0.1535
     30 C          63.6829   88.8046   14.9484 C.2     1  UNL1        0.2443
     31 O          63.5329   89.4393   16.0288 O.2     1  UNL1       -0.2730
     32 N          64.8645   88.9997   14.1557 N.am    1  UNL1       -0.2825
     33 H          65.1356   88.2398   13.4911 H       1  UNL1        0.1549
     34 C          65.7245   90.1468   14.2610 C.ar    1  UNL1        0.0535
     35 C          66.6828   90.1979   15.2823 C.ar    1  UNL1        0.0353
     36 C          67.5386   91.2983   15.3733 C.ar    1  UNL1        0.1002
     37 N          67.4527   92.3059   14.4652 N.ar    1  UNL1       -0.2422
     38 C          66.5472   92.2756   13.4520 C.ar    1  UNL1        0.1002
     39 C          65.6716   91.1942   13.3253 C.ar    1  UNL1        0.0353
     40 C          61.4807   87.6533   15.5017 C.3     1  UNL1        0.0569
     41 C          60.6569   86.4320   15.2127 C.ar    1  UNL1       -0.0017
     42 C          60.9200   85.1347   15.6431 C.ar    1  UNL1        0.0681
     43 N          59.9203   84.3026   15.2720 N.ar    1  UNL1       -0.3523
     44 C          59.0236   85.0655   14.6227 C.ar    1  UNL1        0.0563
     45 C          57.8095   84.6586   14.0714 C.ar    1  UNL1        0.0170
     46 C          57.0080   85.6356   13.4527 C.ar    1  UNL1        0.0015
     47 C          57.4312   86.9826   13.4032 C.ar    1  UNL1        0.0001
     48 C          58.6606   87.3648   13.9704 C.ar    1  UNL1        0.0012
     49 C          59.4356   86.3727   14.5713 C.ar    1  UNL1        0.0131
     50 H          59.8539   83.2792   15.4683 H       1  UNL1        0.1660
@<TRIPOS>BOND
     1     1     2    2
     2     2     3   am
     3     3    29    1
     4    29    40    1
     5    40    41    1
     6    41    42   ar
     7    42    43   ar
     8    43    44   ar
     9    44    45   ar
    10    45    46   ar
    11    46    47   ar
    12    47    48   ar
    13    48    49   ar
    14    29    30    1
    15    30    31    2
    16    30    32   am
    17    32    34    1
    18    34    35   ar
    19    35    36   ar
    20    36    37   ar
    21    37    38   ar
    22    38    39   ar
    23     2     5    1
    24     5     6   ar
    25     6     7   ar
    26     7     8   ar
    27     8    12    1
    28    12    13    1
    29    13    14    1
    30    14    15    1
    31    15    18    1
    32    18    19   ar
    33    19    20   ar
    34    20    21    1
    35    20    22   ar
    36    22    25    1
    37    25    26    1
    38    25    27    1
    39    25    28    1
    40    22    23   ar
    41    23    24   ar
    42    15    16    1
    43    16    17    1
    44     8     9   ar
    45     9    10   ar
    46    10    11    1
    47    49    41   ar
    48    39    34   ar
    49    10     5   ar
    50    49    44   ar
    51    17    12    1
    52    24    18   ar
    53     3     4    1
    54    43    50    1
    55    32    33    1
@<TRIPOS>MOLECULE
*****
 50 55 0 0 0
SMALL
GASTEIGER

@<TRIPOS>ATOM
      1 O          60.6107   86.8025   13.3143 O.2     1  UNL1       -0.2701
      2 C          61.1589   86.3139   12.2889 C.2     1  UNL1        0.2483
      3 N          62.1451   85.2748   12.4239 N.am    1  UNL1       -0.2945
      4 H          62.4809   84.7839   11.5651 H       1  UNL1        0.1501
      5 C          60.7532   86.8017   10.9537 C.ar    1  UNL1        0.0808
      6 C          61.0549   88.1205   10.5772 C.ar    1  UNL1        0.0080
      7 C          60.6755   88.6048    9.3230 C.ar    1  UNL1        0.0148
      8 C          59.9992   87.7754    8.4149 C.ar    1  UNL1        0.0502
      9 C          59.7066   86.4534    8.7851 C.ar    1  UNL1        0.0443
     10 C          60.0845   85.9651   10.0400 C.ar    1  UNL1        0.1457
     11 F          59.8407   84.6628   10.3345 F       1  UNL1       -0.2040
     12 N          59.5953   88.2794    7.1274 N.pl3   1  UNL1       -0.3040
     13 C          59.6876   87.4350    5.9279 C.3     1  UNL1        0.1123
     14 C          60.5087   88.1535    4.8510 C.3     1  UNL1        0.1136
     15 N          60.1453   89.5763    4.7557 N.pl3   1  UNL1       -0.2897
     16 C          59.0051   90.0875    5.5317 C.3     1  UNL1        0.1136
     17 C          59.1531   89.6779    7.0013 C.3     1  UNL1        0.1123
     18 C          60.8681   90.4185    3.8379 C.ar    1  UNL1        0.1323
     19 C          60.2026   91.3531    3.0325 C.ar    1  UNL1        0.0410
     20 C          60.9325   92.1708    2.1655 C.ar    1  UNL1        0.0428
     21 BR         59.9583   93.4311    1.0936 Br      1  UNL1       -0.0489
     22 C          62.3385   92.0600    2.1096 C.ar    1  UNL1        0.0968
     23 C          62.9636   91.1234    2.9523 C.ar    1  UNL1        0.1046
     24 N          62.2249   90.3429    3.7832 N.ar    1  UNL1       -0.2292
     25 C          63.1562   92.9322    1.1824 C.3     1  UNL1        0.4205
     26 F          63.9286   93.8429    1.8828 F       1  UNL1       -0.1658
     27 F          64.0010   92.1418    0.4244 F       1  UNL1       -0.1658
     28 F          62.3124   93.6349    0.3415 F       1  UNL1       -0.1658
     29 C          62.6702   84.8076   13.7133 C.3     1  UNL1        0.1535
     30 C          63.1152   85.9827   14.5512 C.2     1  UNL1        0.2443
     31 O          62.9907   85.9558   15.8067 O.2     1  UNL1       -0.2730
     32 N          63.7479   87.1030   13.9132 N.am    1  UNL1       -0.2825
     33 H          64.1554   86.9552   12.9620 H       1  UNL1        0.1549
     34 C          63.9042   88.3949   14.5241 C.ar    1  UNL1        0.0535
     35 C          64.8953   89.2655   14.0508 C.ar    1  UNL1        0.0353
     36 C          65.0343   90.5321   14.6234 C.ar    1  UNL1        0.1002
     37 N          64.2009   90.9236   15.6232 N.ar    1  UNL1       -0.2422
     38 C          63.2177   90.1095   16.0901 C.ar    1  UNL1        0.1002
     39 C          63.0451   88.8342   15.5460 C.ar    1  UNL1        0.0353
     40 C          61.6439   83.9082   14.4351 C.3     1  UNL1        0.0569
     41 C          61.4141   82.6298   13.6823 C.ar    1  UNL1       -0.0017
     42 C          62.2637   81.5279   13.6425 C.ar    1  UNL1        0.0681
     43 N          61.6974   80.5207   12.9395 N.ar    1  UNL1       -0.3523
     44 C          60.4937   80.9728   12.5464 C.ar    1  UNL1        0.0563
     45 C          59.5304   80.2828   11.8118 C.ar    1  UNL1        0.0170
     46 C          58.3210   80.9439   11.5290 C.ar    1  UNL1        0.0015
     47 C          58.1024   82.2630   11.9850 C.ar    1  UNL1        0.0001
     48 C          59.0918   82.9340   12.7266 C.ar    1  UNL1        0.0012
     49 C          60.2824   82.2547   12.9859 C.ar    1  UNL1        0.0131
     50 H          62.1079   79.5781   12.7571 H       1  UNL1        0.1660
@<TRIPOS>BOND
     1     1     2    2
     2     2     3   am
     3     3    29    1
     4    29    40    1
     5    40    41    1
     6    41    42   ar
     7    42    43   ar
     8    43    44   ar
     9    44    45   ar
    10    45    46   ar
    11    46    47   ar
    12    47    48   ar
    13    48    49   ar
    14    29    30    1
    15    30    31    2
    16    30    32   am
    17    32    34    1
    18    34    35   ar
    19    35    36   ar
    20    36    37   ar
    21    37    38   ar
    22    38    39   ar
    23     2     5    1
    24     5     6   ar
    25     6     7   ar
    26     7     8   ar
    27     8    12    1
    28    12    13    1
    29    13    14    1
    30    14    15    1
    31    15    18    1
    32    18    19   ar
    33    19    20   ar
    34    20    21    1
    35    20    22   ar
    36    22    25    1
    37    25    26    1
    38    25    27    1
    39    25    28    1
    40    22    23   ar
    41    23    24   ar
    42    15    16    1
    43    16    17    1
    44     8     9   ar
    45     9    10   ar
    46    10    11    1
    47    49    41   ar
    48    39    34   ar
    49    10     5   ar
    50    49    44   ar
    51    17    12    1
    52    24    18   ar
    53     3     4    1
    54    43    50    1
    55    32    33    1
@<TRIPOS>MOLECULE
*****
 50 55 0 0 0
SMALL
GASTEIGER

@<TRIPOS>ATOM
      1 O          61.2016   84.0446    9.1713 O.2     1  UNL1       -0.2701
      2 C          60.4115   84.9251    9.6085 C.2     1  UNL1        0.2483
      3 N          59.8970   84.8313   10.9490 N.am    1  UNL1       -0.2945
      4 H          59.3628   85.6387   11.3416 H       1  UNL1        0.1501
      5 C          60.0484   86.0633    8.7377 C.ar    1  UNL1        0.0808
      6 C          60.8066   87.2441    8.7895 C.ar    1  UNL1        0.0080
      7 C          60.4779   88.3345    7.9806 C.ar    1  UNL1        0.0148
      8 C          59.3927   88.2606    7.0934 C.ar    1  UNL1        0.0502
      9 C          58.6404   87.0771    7.0321 C.ar    1  UNL1        0.0443
     10 C          58.9663   85.9836    7.8407 C.ar    1  UNL1        0.1457
     11 F          58.2546   84.8358    7.7048 F       1  UNL1       -0.2040
     12 N          59.0450   89.3901    6.2699 N.pl3   1  UNL1       -0.3040
     13 C          57.8870   89.3326    5.3667 C.3     1  UNL1        0.1123
     14 C          58.3255   89.6818    3.9398 C.3     1  UNL1        0.1136
     15 N          59.2481   90.8282    3.9246 N.pl3   1  UNL1       -0.2897
     16 C          59.5077   91.5672    5.1697 C.3     1  UNL1        0.1136
     17 C          59.9012   90.5877    6.2812 C.3     1  UNL1        0.1123
     18 C          59.8126   91.2497    2.6686 C.ar    1  UNL1        0.1323
     19 C          61.1968   91.4063    2.5111 C.ar    1  UNL1        0.0410
     20 C          61.7174   91.7974    1.2745 C.ar    1  UNL1        0.0428
     21 BR         63.6221   91.9897    1.1275 Br      1  UNL1       -0.0489
     22 C          60.8494   92.0248    0.1850 C.ar    1  UNL1        0.0968
     23 C          59.4704   91.8336    0.3852 C.ar    1  UNL1        0.1046
     24 N          58.9963   91.4538    1.6001 N.ar    1  UNL1       -0.2292
     25 C          61.3831   92.4474   -1.1661 C.3     1  UNL1        0.4205
     26 F          62.1148   91.4376   -1.7676 F       1  UNL1       -0.1658
     27 F          60.3300   92.7741   -2.0011 F       1  UNL1       -0.1658
     28 F          62.2056   93.5492   -1.0166 F       1  UNL1       -0.1658
     29 C          60.1320   83.6858   11.8373 C.3     1  UNL1        0.1535
     30 C          61.0395   84.0871   12.9759 C.2     1  UNL1        0.2443
     31 O          61.5074   83.2142   13.7580 O.2     1  UNL1       -0.2730
     32 N          61.4240   85.4634   13.1184 N.am    1  UNL1       -0.2825
     33 H          61.3267   86.0849   12.2836 H       1  UNL1        0.1549
     34 C          61.9854   86.0226   14.3179 C.ar    1  UNL1        0.0535
     35 C          63.0394   86.9413   14.2221 C.ar    1  UNL1        0.0353
     36 C          63.5711   87.5075   15.3831 C.ar    1  UNL1        0.1002
     37 N          63.0568   87.1813   16.5982 N.ar    1  UNL1       -0.2422
     38 C          62.0219   86.3088   16.7221 C.ar    1  UNL1        0.1002
     39 C          61.4616   85.7188   15.5863 C.ar    1  UNL1        0.0353
     40 C          58.7978   83.0758   12.3176 C.3     1  UNL1        0.0569
     41 C          58.3877   81.9152   11.4581 C.ar    1  UNL1       -0.0017
     42 C          58.0030   81.9697   10.1214 C.ar    1  UNL1        0.0681
     43 N          57.7881   80.7237    9.6411 N.ar    1  UNL1       -0.3523
     44 C          58.0457   79.8837   10.6588 C.ar    1  UNL1        0.0563
     45 C          57.9846   78.4910   10.6411 C.ar    1  UNL1        0.0170
     46 C          58.3210   77.8031   11.8215 C.ar    1  UNL1        0.0015
     47 C          58.7104   78.5143   12.9785 C.ar    1  UNL1        0.0001
     48 C          58.7654   79.9199   12.9664 C.ar    1  UNL1        0.0012
     49 C          58.4204   80.5737   11.7833 C.ar    1  UNL1        0.0131
     50 H          57.4986   80.4695    8.6706 H       1  UNL1        0.1660
@<TRIPOS>BOND
     1     1     2    2
     2     2     3   am
     3     3    29    1
     4    29    40    1
     5    40    41    1
     6    41    42   ar
     7    42    43   ar
     8    43    44   ar
     9    44    45   ar
    10    45    46   ar
    11    46    47   ar
    12    47    48   ar
    13    48    49   ar
    14    29    30    1
    15    30    31    2
    16    30    32   am
    17    32    34    1
    18    34    35   ar
    19    35    36   ar
    20    36    37   ar
    21    37    38   ar
    22    38    39   ar
    23     2     5    1
    24     5     6   ar
    25     6     7   ar
    26     7     8   ar
    27     8    12    1
    28    12    13    1
    29    13    14    1
    30    14    15    1
    31    15    18    1
    32    18    19   ar
    33    19    20   ar
    34    20    21    1
    35    20    22   ar
    36    22    25    1
    37    25    26    1
    38    25    27    1
    39    25    28    1
    40    22    23   ar
    41    23    24   ar
    42    15    16    1
    43    16    17    1
    44     8     9   ar
    45     9    10   ar
    46    10    11    1
    47    49    41   ar
    48    39    34   ar
    49    10     5   ar
    50    49    44   ar
    51    17    12    1
    52    24    18   ar
    53     3     4    1
    54    43    50    1
    55    32    33    1
@<TRIPOS>MOLECULE
*****
 50 55 0 0 0
SMALL
GASTEIGER

@<TRIPOS>ATOM
      1 O          62.3610   84.6983   11.0684 O.2     1  UNL1       -0.2701
      2 C          61.2160   85.2270   11.0751 C.2     1  UNL1        0.2483
      3 N          60.3160   84.9850   12.1714 N.am    1  UNL1       -0.2945
      4 H          59.4339   85.5415   12.2317 H       1  UNL1        0.1501
      5 C          60.8271   86.1170    9.9606 C.ar    1  UNL1        0.0808
      6 C          60.0911   85.5970    8.8836 C.ar    1  UNL1        0.0080
      7 C          59.7184   86.4180    7.8166 C.ar    1  UNL1        0.0148
      8 C          60.0623   87.7788    7.8122 C.ar    1  UNL1        0.0502
      9 C          60.7883   88.3030    8.8932 C.ar    1  UNL1        0.0443
     10 C          61.1635   87.4840    9.9629 C.ar    1  UNL1        0.1457
     11 F          61.8080   88.0430   11.0186 F       1  UNL1       -0.2040
     12 N          59.6905   88.6219    6.7051 N.pl3   1  UNL1       -0.3040
     13 C          59.1970   88.0383    5.4496 C.3     1  UNL1        0.1123
     14 C          60.0400   88.5483    4.2751 C.3     1  UNL1        0.1136
     15 N          60.3100   89.9903    4.3913 N.pl3   1  UNL1       -0.2897
     16 C          59.6569   90.7673    5.4560 C.3     1  UNL1        0.1136
     17 C          59.8748   90.0788    6.8080 C.3     1  UNL1        0.1123
     18 C          61.1471   90.6225    3.4048 C.ar    1  UNL1        0.1323
     19 C          60.6007   91.1901    2.2452 C.ar    1  UNL1        0.0410
     20 C          61.4359   91.8146    1.3149 C.ar    1  UNL1        0.0428
     21 BR         60.6211   92.5737   -0.2492 Br      1  UNL1       -0.0489
     22 C          62.8262   91.8805    1.5494 C.ar    1  UNL1        0.0968
     23 C          63.3254   91.3164    2.7371 C.ar    1  UNL1        0.1046
     24 N          62.4867   90.7157    3.6207 N.ar    1  UNL1       -0.2292
     25 C          63.7556   92.5512    0.5618 C.3     1  UNL1        0.4205
     26 F          63.3588   93.8479    0.2828 F       1  UNL1       -0.1658
     27 F          65.0361   92.5939    1.0829 F       1  UNL1       -0.1658
     28 F          63.7685   91.8370   -0.6225 F       1  UNL1       -0.1658
     29 C          60.5899   84.0402   13.2617 C.3     1  UNL1        0.1535
     30 C          60.3968   82.6211   12.7822 C.2     1  UNL1        0.2443
     31 O          61.3769   81.9536   12.3504 O.2     1  UNL1       -0.2730
     32 N          59.1005   82.0122   12.8886 N.am    1  UNL1       -0.2825
     33 H          58.4171   82.4358   13.5565 H       1  UNL1        0.1549
     34 C          58.7069   80.8266   12.1771 C.ar    1  UNL1        0.0535
     35 C          58.3200   80.9258   10.8338 C.ar    1  UNL1        0.0353
     36 C          57.9618   79.7734   10.1302 C.ar    1  UNL1        0.1002
     37 N          58.0049   78.5602   10.7416 N.ar    1  UNL1       -0.2422
     38 C          58.3948   78.4295   12.0371 C.ar    1  UNL1        0.1002
     39 C          58.7600   79.5568   12.7772 C.ar    1  UNL1        0.0353
     40 C          61.9884   84.2855   13.8676 C.3     1  UNL1        0.0569
     41 C          61.9728   85.4410   14.8259 C.ar    1  UNL1       -0.0017
     42 C          61.4554   85.4382   16.1182 C.ar    1  UNL1        0.0681
     43 N          61.6925   86.6241   16.7239 N.ar    1  UNL1       -0.3523
     44 C          62.3654   87.3699   15.8301 C.ar    1  UNL1        0.0563
     45 C          62.8504   88.6652   16.0047 C.ar    1  UNL1        0.0170
     46 C          63.5535   89.2535   14.9374 C.ar    1  UNL1        0.0015
     47 C          63.7574   88.5405   13.7349 C.ar    1  UNL1        0.0001
     48 C          63.2586   87.2333   13.5878 C.ar    1  UNL1        0.0012
     49 C          62.5606   86.6794   14.6612 C.ar    1  UNL1        0.0131
     50 H          61.4221   86.8946   17.6955 H       1  UNL1        0.1660
@<TRIPOS>BOND
     1     1     2    2
     2     2     3   am
     3     3    29    1
     4    29    40    1
     5    40    41    1
     6    41    42   ar
     7    42    43   ar
     8    43    44   ar
     9    44    45   ar
    10    45    46   ar
    11    46    47   ar
    12    47    48   ar
    13    48    49   ar
    14    29    30    1
    15    30    31    2
    16    30    32   am
    17    32    34    1
    18    34    35   ar
    19    35    36   ar
    20    36    37   ar
    21    37    38   ar
    22    38    39   ar
    23     2     5    1
    24     5     6   ar
    25     6     7   ar
    26     7     8   ar
    27     8    12    1
    28    12    13    1
    29    13    14    1
    30    14    15    1
    31    15    18    1
    32    18    19   ar
    33    19    20   ar
    34    20    21    1
    35    20    22   ar
    36    22    25    1
    37    25    26    1
    38    25    27    1
    39    25    28    1
    40    22    23   ar
    41    23    24   ar
    42    15    16    1
    43    16    17    1
    44     8     9   ar
    45     9    10   ar
    46    10    11    1
    47    49    41   ar
    48    39    34   ar
    49    10     5   ar
    50    49    44   ar
    51    17    12    1
    52    24    18   ar
    53     3     4    1
    54    43    50    1
    55    32    33    1
@<TRIPOS>MOLECULE
*****
 50 55 0 0 0
SMALL
GASTEIGER

@<TRIPOS>ATOM
      1 O          62.2953   84.5716   11.7125 O.2     1  UNL1       -0.2701
      2 C          62.0839   85.8148   11.7304 C.2     1  UNL1        0.2483
      3 N          62.4278   86.5884   12.8939 N.am    1  UNL1       -0.2945
      4 H          62.3807   87.6306   12.8383 H       1  UNL1        0.1501
      5 C          61.5086   86.4648   10.5337 C.ar    1  UNL1        0.0808
      6 C          60.6738   85.7270    9.6789 C.ar    1  UNL1        0.0080
      7 C          60.1245   86.3187    8.5390 C.ar    1  UNL1        0.0148
      8 C          60.3876   87.6644    8.2389 C.ar    1  UNL1        0.0502
      9 C          61.2127   88.4067    9.0982 C.ar    1  UNL1        0.0443
     10 C          61.7649   87.8176   10.2401 C.ar    1  UNL1        0.1457
     11 F          62.5041   88.5867   11.0793 F       1  UNL1       -0.2040
     12 N          59.8328   88.2703    7.0557 N.pl3   1  UNL1       -0.3040
     13 C          59.6412   87.4839    5.8289 C.3     1  UNL1        0.1123
     14 C          60.3448   88.1753    4.6555 C.3     1  UNL1        0.1136
     15 N          60.1185   89.6294    4.6722 N.pl3   1  UNL1       -0.2897
     16 C          59.1786   90.2062    5.6457 C.3     1  UNL1        0.1136
     17 C          59.5217   89.7092    7.0545 C.3     1  UNL1        0.1123
     18 C          60.7643   90.4450    3.6765 C.ar    1  UNL1        0.1323
     19 C          60.0178   91.1881    2.7513 C.ar    1  UNL1        0.0410
     20 C          60.6719   91.9864    1.8089 C.ar    1  UNL1        0.0428
     21 BR         59.5887   92.9802    0.5740 Br      1  UNL1       -0.0489
     22 C          62.0819   92.0497    1.7968 C.ar    1  UNL1        0.0968
     23 C          62.7871   91.3038    2.7584 C.ar    1  UNL1        0.1046
     24 N          62.1211   90.5369    3.6603 N.ar    1  UNL1       -0.2292
     25 C          62.8184   92.9059    0.7902 C.3     1  UNL1        0.4205
     26 F          63.3322   92.1490   -0.2490 F       1  UNL1       -0.1658
     27 F          61.9535   93.8434    0.2552 F       1  UNL1       -0.1658
     28 F          63.8678   93.5565    1.4133 F       1  UNL1       -0.1658
     29 C          62.9098   86.0041   14.1519 C.3     1  UNL1        0.1535
     30 C          63.5384   87.0720   15.0152 C.2     1  UNL1        0.2443
     31 O          63.6557   86.9003   16.2599 O.2     1  UNL1       -0.2730
     32 N          64.0675   88.2557   14.3976 N.am    1  UNL1       -0.2825
     33 H          64.2814   88.2171   13.3751 H       1  UNL1        0.1549
     34 C          64.3726   89.4673   15.1086 C.ar    1  UNL1        0.0535
     35 C          63.4393   89.9876   16.0154 C.ar    1  UNL1        0.0353
     36 C          63.7415   91.1502   16.7284 C.ar    1  UNL1        0.1002
     37 N          64.9421   91.7636   16.5554 N.ar    1  UNL1       -0.2422
     38 C          65.8754   91.2721   15.6982 C.ar    1  UNL1        0.1002
     39 C          65.6130   90.1123   14.9646 C.ar    1  UNL1        0.0353
     40 C          61.7817   85.2349   14.8722 C.3     1  UNL1        0.0569
     41 C          60.4729   85.9630   14.7695 C.ar    1  UNL1       -0.0017
     42 C          60.1994   87.2449   15.2380 C.ar    1  UNL1        0.0681
     43 N          58.9448   87.6152   14.8941 N.ar    1  UNL1       -0.3523
     44 C          58.4293   86.5838   14.2026 C.ar    1  UNL1        0.0563
     45 C          57.1653   86.5047   13.6197 C.ar    1  UNL1        0.0170
     46 C          56.8383   85.3312   12.9157 C.ar    1  UNL1        0.0015
     47 C          57.7727   84.2770   12.8078 C.ar    1  UNL1        0.0001
     48 C          59.0420   84.3857   13.4044 C.ar    1  UNL1        0.0012
     49 C          59.3347   85.5586   14.1006 C.ar    1  UNL1        0.0131
     50 H          58.4811   88.5259   15.1086 H       1  UNL1        0.1660
@<TRIPOS>BOND
     1     1     2    2
     2     2     3   am
     3     3    29    1
     4    29    40    1
     5    40    41    1
     6    41    42   ar
     7    42    43   ar
     8    43    44   ar
     9    44    45   ar
    10    45    46   ar
    11    46    47   ar
    12    47    48   ar
    13    48    49   ar
    14    29    30    1
    15    30    31    2
    16    30    32   am
    17    32    34    1
    18    34    35   ar
    19    35    36   ar
    20    36    37   ar
    21    37    38   ar
    22    38    39   ar
    23     2     5    1
    24     5     6   ar
    25     6     7   ar
    26     7     8   ar
    27     8    12    1
    28    12    13    1
    29    13    14    1
    30    14    15    1
    31    15    18    1
    32    18    19   ar
    33    19    20   ar
    34    20    21    1
    35    20    22   ar
    36    22    25    1
    37    25    26    1
    38    25    27    1
    39    25    28    1
    40    22    23   ar
    41    23    24   ar
    42    15    16    1
    43    16    17    1
    44     8     9   ar
    45     9    10   ar
    46    10    11    1
    47    49    41   ar
    48    39    34   ar
    49    10     5   ar
    50    49    44   ar
    51    17    12    1
    52    24    18   ar
    53     3     4    1
    54    43    50    1
    55    32    33    1
@<TRIPOS>MOLECULE
*****
 50 55 0 0 0
SMALL
GASTEIGER

@<TRIPOS>ATOM
      1 O          58.9624   81.4795    7.1975 O.2     1  UNL1       -0.2701
      2 C          59.6305   82.2479    7.9416 C.2     1  UNL1        0.2483
      3 N          60.4069   81.7071    9.0257 N.am    1  UNL1       -0.2945
      4 H          61.0639   82.3370    9.5384 H       1  UNL1        0.1501
      5 C          59.6271   83.7002    7.6656 C.ar    1  UNL1        0.0808
      6 C          58.4232   84.4182    7.7504 C.ar    1  UNL1        0.0080
      7 C          58.3951   85.7899    7.4875 C.ar    1  UNL1        0.0148
      8 C          59.5731   86.4736    7.1484 C.ar    1  UNL1        0.0502
      9 C          60.7794   85.7597    7.0740 C.ar    1  UNL1        0.0443
     10 C          60.8113   84.3864    7.3361 C.ar    1  UNL1        0.1457
     11 F          62.0077   83.7455    7.3171 F       1  UNL1       -0.2040
     12 N          59.5413   87.8851    6.8631 N.pl3   1  UNL1       -0.3040
     13 C          58.2840   88.5470    6.4873 C.3     1  UNL1        0.1123
     14 C          58.4656   89.2860    5.1565 C.3     1  UNL1        0.1136
     15 N          59.7492   90.0044    5.1095 N.pl3   1  UNL1       -0.2897
     16 C          60.5896   90.0679    6.3150 C.3     1  UNL1        0.1136
     17 C          60.7946   88.6574    6.8788 C.3     1  UNL1        0.1123
     18 C          60.1130   90.6995    3.9019 C.ar    1  UNL1        0.1323
     19 C          61.4534   90.8192    3.5091 C.ar    1  UNL1        0.0410
     20 C          61.7749   91.4823    2.3216 C.ar    1  UNL1        0.0428
     21 BR         63.6298   91.6069    1.8418 Br      1  UNL1       -0.0489
     22 C          60.7489   92.0218    1.5163 C.ar    1  UNL1        0.0968
     23 C          59.4179   91.8577    1.9404 C.ar    1  UNL1        0.1046
     24 N          59.1392   91.2086    3.1005 N.ar    1  UNL1       -0.2292
     25 C          61.0653   92.7436    0.2248 C.3     1  UNL1        0.4205
     26 F          61.9271   93.8077    0.4295 F       1  UNL1       -0.1658
     27 F          61.6633   91.8680   -0.6633 F       1  UNL1       -0.1658
     28 F          59.8975   93.2319   -0.3324 F       1  UNL1       -0.1658
     29 C          60.3846   80.2935    9.4225 C.3     1  UNL1        0.1535
     30 C          61.4314   80.0325   10.4794 C.2     1  UNL1        0.2443
     31 O          61.9339   78.8823   10.6107 O.2     1  UNL1       -0.2730
     32 N          61.9032   81.1220   11.2874 N.am    1  UNL1       -0.2825
     33 H          61.7492   82.0932   10.9329 H       1  UNL1        0.1549
     34 C          62.6217   80.9570   12.5216 C.ar    1  UNL1        0.0535
     35 C          63.9347   81.4362   12.6239 C.ar    1  UNL1        0.0353
     36 C          64.6281   81.3019   13.8290 C.ar    1  UNL1        0.1002
     37 N          64.0255   80.7244   14.9018 N.ar    1  UNL1       -0.2422
     38 C          62.7468   80.2680   14.8395 C.ar    1  UNL1        0.1002
     39 C          62.0181   80.3815   13.6529 C.ar    1  UNL1        0.0353
     40 C          58.9678   79.8643    9.8600 C.3     1  UNL1        0.0569
     41 C          58.6201   80.4243   11.2089 C.ar    1  UNL1       -0.0017
     42 C          58.7011   79.7578   12.4282 C.ar    1  UNL1        0.0681
     43 N          58.3955   80.5957   13.4451 N.ar    1  UNL1       -0.3523
     44 C          58.1349   81.7872   12.8792 C.ar    1  UNL1        0.0563
     45 C          57.7938   82.9738   13.5268 C.ar    1  UNL1        0.0170
     46 C          57.5859   84.1184   12.7355 C.ar    1  UNL1        0.0015
     47 C          57.7261   84.0531   11.3311 C.ar    1  UNL1        0.0001
     48 C          58.0737   82.8422   10.7050 C.ar    1  UNL1        0.0012
     49 C          58.2673   81.7235   11.5156 C.ar    1  UNL1        0.0131
     50 H          58.3836   80.3644   14.4632 H       1  UNL1        0.1660
@<TRIPOS>BOND
     1     1     2    2
     2     2     3   am
     3     3    29    1
     4    29    40    1
     5    40    41    1
     6    41    42   ar
     7    42    43   ar
     8    43    44   ar
     9    44    45   ar
    10    45    46   ar
    11    46    47   ar
    12    47    48   ar
    13    48    49   ar
    14    29    30    1
    15    30    31    2
    16    30    32   am
    17    32    34    1
    18    34    35   ar
    19    35    36   ar
    20    36    37   ar
    21    37    38   ar
    22    38    39   ar
    23     2     5    1
    24     5     6   ar
    25     6     7   ar
    26     7     8   ar
    27     8    12    1
    28    12    13    1
    29    13    14    1
    30    14    15    1
    31    15    18    1
    32    18    19   ar
    33    19    20   ar
    34    20    21    1
    35    20    22   ar
    36    22    25    1
    37    25    26    1
    38    25    27    1
    39    25    28    1
    40    22    23   ar
    41    23    24   ar
    42    15    16    1
    43    16    17    1
    44     8     9   ar
    45     9    10   ar
    46    10    11    1
    47    49    41   ar
    48    39    34   ar
    49    10     5   ar
    50    49    44   ar
    51    17    12    1
    52    24    18   ar
    53     3     4    1
    54    43    50    1
    55    32    33    1
