@<TRIPOS>MOLECULE
*****
 37 41 0 0 0
SMALL
GASTEIGER

@<TRIPOS>ATOM
      1 C          49.7558   10.3120  -19.5287 C.2     1  UNL1        0.2490
      2 O          49.4121    9.1259  -19.2706 O.2     1  UNL1       -0.2699
      3 N          49.5707   10.8296  -20.8594 N.am    1  UNL1       -0.2760
      4 C          49.6472    9.9175  -22.0064 C.3     1  UNL1        0.0954
      5 C          50.1928   10.6620  -23.2299 C.3     1  UNL1        0.0399
      6 C          49.4030   11.9753  -23.5715 C.3     1  UNL1        0.0645
      7 C          48.4136   12.3569  -22.4308 C.3     1  UNL1        0.0399
      8 C          49.0459   12.1918  -21.0445 C.3     1  UNL1        0.0954
      9 C          48.5867   11.7541  -24.8952 C.3     1  UNL1        0.0478
     10 C          48.1324   13.0620  -25.4748 C.ar    1  UNL1        0.0233
     11 C          48.8308   14.2157  -25.3232 C.ar    1  UNL1        0.1516
     12 N          48.2784   15.2049  -26.0427 N.ar    1  UNL1       -0.1650
     13 N          47.2284   14.6975  -26.6860 N.ar    1  UNL1       -0.2520
     14 C          47.1131   13.3759  -26.3519 C.ar    1  UNL1        0.1100
     15 C          50.0168   14.2737  -24.4830 C.2     1  UNL1        0.2650
     16 O          50.7199   15.3161  -24.4139 O.2     1  UNL1       -0.2684
     17 N          50.3644   13.0959  -23.7372 N.am    1  UNL1       -0.3023
     18 H          51.2071   13.1490  -23.1206 H       1  UNL1        0.1497
     19 C          49.5602   12.2162  -14.9574 C.ar    1  UNL1        0.2248
     20 N          50.1296   12.9833  -13.9852 N.ar    1  UNL1       -0.2101
     21 C          51.3222   13.6092  -14.1617 C.ar    1  UNL1        0.1021
     22 C          52.0103   13.4805  -15.3679 C.ar    1  UNL1        0.0209
     23 C          51.4604   12.7021  -16.3936 C.ar    1  UNL1        0.0060
     24 C          52.1333   12.5523  -17.6140 C.ar    1  UNL1        0.0003
     25 C          51.5781   11.7750  -18.6325 C.ar    1  UNL1        0.0045
     26 C          50.3369   11.1441  -18.4525 C.ar    1  UNL1        0.0537
     27 C          49.6677   11.2763  -17.2244 C.ar    1  UNL1        0.0092
     28 C          50.2176   12.0573  -16.1925 C.ar    1  UNL1        0.0534
     29 C          47.9646   11.0398  -13.4686 C.3     1  UNL1        0.2542
     30 O          48.3286   11.5903  -14.7288 O.3     1  UNL1       -0.4561
     31 C          46.3835   15.5179  -27.5920 C.3     1  UNL1        0.0867
     32 C          46.0084   14.7368  -28.8717 C.3     1  UNL1        0.0244
     33 C          45.1147   15.9703  -26.8474 C.3     1  UNL1        0.0244
     34 C          47.1593   16.7835  -28.0321 C.3     1  UNL1        0.0244
     35 C          46.1178   12.4108  -26.8516 C.2     1  UNL1        0.1903
     36 C          46.4325   11.5283  -28.0166 C.3     1  UNL1        0.0789
     37 O          45.0222   12.2666  -26.2492 O.2     1  UNL1       -0.2897
@<TRIPOS>BOND
     1    29    30    1
     2    30    19    1
     3    19    20   ar
     4    20    21   ar
     5    21    22   ar
     6    22    23   ar
     7    23    24   ar
     8    24    25   ar
     9    25    26   ar
    10    26     1    1
    11     1     2    2
    12     1     3   am
    13     3     4    1
    14     4     5    1
    15     5     6    1
    16     6     7    1
    17     7     8    1
    18     6     9    1
    19     9    10    1
    20    10    11   ar
    21    11    12   ar
    22    12    13   ar
    23    13    31    1
    24    31    32    1
    25    31    33    1
    26    31    34    1
    27    13    14   ar
    28    14    35    1
    29    35    36    1
    30    35    37    2
    31    11    15    1
    32    15    16    2
    33    15    17   am
    34    26    27   ar
    35    27    28   ar
    36    28    19   ar
    37    28    23   ar
    38     8     3    1
    39    14    10   ar
    40    17     6    1
    41    17    18    1
@<TRIPOS>MOLECULE
*****
 37 41 0 0 0
SMALL
GASTEIGER

@<TRIPOS>ATOM
      1 C          49.0992   11.3729  -26.1672 C.2     1  UNL1        0.2490
      2 O          47.9818   11.3897  -26.7526 O.2     1  UNL1       -0.2699
      3 N          49.2136   11.9270  -24.8431 N.am    1  UNL1       -0.2760
      4 C          48.3440   13.0412  -24.4487 C.3     1  UNL1        0.0954
      5 C          49.0716   13.9407  -23.4436 C.3     1  UNL1        0.0399
      6 C          49.6389   13.1661  -22.2012 C.3     1  UNL1        0.0645
      7 C          49.5616   11.6244  -22.4083 C.3     1  UNL1        0.0399
      8 C          49.9941   11.2133  -23.8200 C.3     1  UNL1        0.0954
      9 C          48.7985   13.5478  -20.9302 C.3     1  UNL1        0.0478
     10 C          49.5153   13.1561  -19.6709 C.ar    1  UNL1        0.0233
     11 C          50.8686   13.1256  -19.5741 C.ar    1  UNL1        0.1516
     12 N          51.2503   12.8700  -18.3130 N.ar    1  UNL1       -0.1650
     13 N          50.1483   12.7538  -17.5741 N.ar    1  UNL1       -0.2520
     14 C          49.0616   12.9236  -18.3876 C.ar    1  UNL1        0.1100
     15 C          51.7126   13.3642  -20.7345 C.2     1  UNL1        0.2650
     16 O          52.9659   13.4294  -20.6303 O.2     1  UNL1       -0.2684
     17 N          51.0662   13.5305  -22.0069 N.am    1  UNL1       -0.3023
     18 H          51.6785   13.6832  -22.8404 H       1  UNL1        0.1497
     19 C          51.0313    8.0801  -29.3270 C.ar    1  UNL1        0.2248
     20 N          52.1269    7.5623  -29.9511 N.ar    1  UNL1       -0.2101
     21 C          53.3783    8.0453  -29.7371 C.ar    1  UNL1        0.1021
     22 C          53.5796    9.1064  -28.8548 C.ar    1  UNL1        0.0209
     23 C          52.4811    9.6673  -28.1922 C.ar    1  UNL1        0.0060
     24 C          52.6547   10.7375  -27.3038 C.ar    1  UNL1        0.0003
     25 C          51.5544   11.2912  -26.6460 C.ar    1  UNL1        0.0045
     26 C          50.2648   10.7777  -26.8564 C.ar    1  UNL1        0.0537
     27 C          50.0837    9.7173  -27.7599 C.ar    1  UNL1        0.0092
     28 C          51.1849    9.1520  -28.4269 C.ar    1  UNL1        0.0534
     29 C          49.2301    7.4075  -30.8922 C.3     1  UNL1        0.2542
     30 O          49.7607    7.5486  -29.5798 O.3     1  UNL1       -0.4561
     31 C          50.1997   12.4801  -16.1146 C.3     1  UNL1        0.0867
     32 C          49.3790   13.5198  -15.3183 C.3     1  UNL1        0.0244
     33 C          49.6801   11.0583  -15.8362 C.3     1  UNL1        0.0244
     34 C          51.6627   12.5634  -15.6150 C.3     1  UNL1        0.0244
     35 C          47.6409   12.9122  -17.9958 C.2     1  UNL1        0.1903
     36 C          46.7527   11.7760  -18.3896 C.3     1  UNL1        0.0789
     37 O          47.1838   13.8228  -17.2569 O.2     1  UNL1       -0.2897
@<TRIPOS>BOND
     1    29    30    1
     2    30    19    1
     3    19    20   ar
     4    20    21   ar
     5    21    22   ar
     6    22    23   ar
     7    23    24   ar
     8    24    25   ar
     9    25    26   ar
    10    26     1    1
    11     1     2    2
    12     1     3   am
    13     3     4    1
    14     4     5    1
    15     5     6    1
    16     6     7    1
    17     7     8    1
    18     6     9    1
    19     9    10    1
    20    10    11   ar
    21    11    12   ar
    22    12    13   ar
    23    13    31    1
    24    31    32    1
    25    31    33    1
    26    31    34    1
    27    13    14   ar
    28    14    35    1
    29    35    36    1
    30    35    37    2
    31    11    15    1
    32    15    16    2
    33    15    17   am
    34    26    27   ar
    35    27    28   ar
    36    28    19   ar
    37    28    23   ar
    38     8     3    1
    39    14    10   ar
    40    17     6    1
    41    17    18    1
@<TRIPOS>MOLECULE
*****
 37 41 0 0 0
SMALL
GASTEIGER

@<TRIPOS>ATOM
      1 C          49.5759   12.2921  -24.5502 C.2     1  UNL1        0.2490
      2 O          50.6168   11.8612  -25.1181 O.2     1  UNL1       -0.2699
      3 N          49.3959   12.0713  -23.1389 N.am    1  UNL1       -0.2760
      4 C          49.9688   10.8721  -22.5166 C.3     1  UNL1        0.0954
      5 C          49.0905   10.4223  -21.3439 C.3     1  UNL1        0.0399
      6 C          48.8123   11.5566  -20.2944 C.3     1  UNL1        0.0645
      7 C          49.2736   12.9468  -20.8238 C.3     1  UNL1        0.0399
      8 C          48.8843   13.1595  -22.2909 C.3     1  UNL1        0.0954
      9 C          49.5948   11.2351  -18.9709 C.3     1  UNL1        0.0478
     10 C          49.0745   12.0514  -17.8238 C.ar    1  UNL1        0.0233
     11 C          47.7825   12.4575  -17.7364 C.ar    1  UNL1        0.1516
     12 N          47.5504   13.0575  -16.5585 N.ar    1  UNL1       -0.1650
     13 N          48.6842   13.0272  -15.8604 N.ar    1  UNL1       -0.2520
     14 C          49.6433   12.4135  -16.6187 C.ar    1  UNL1        0.1100
     15 C          46.8425   12.2180  -18.8203 C.2     1  UNL1        0.2650
     16 O          45.6226   12.5089  -18.7054 O.2     1  UNL1       -0.2684
     17 N          47.3523   11.6300  -20.0281 N.am    1  UNL1       -0.3023
     18 H          46.6761   11.4772  -20.8107 H       1  UNL1        0.1497
     19 C          48.1773   16.2708  -27.1530 C.ar    1  UNL1        0.2248
     20 N          47.2274   16.9083  -27.8941 N.ar    1  UNL1       -0.2101
     21 C          46.0183   16.3484  -28.1583 C.ar    1  UNL1        0.1021
     22 C          45.7103   15.0796  -27.6682 C.ar    1  UNL1        0.0209
     23 C          46.6577   14.3901  -26.9017 C.ar    1  UNL1        0.0060
     24 C          46.3758   13.1117  -26.4008 C.ar    1  UNL1        0.0003
     25 C          47.3253   12.4306  -25.6364 C.ar    1  UNL1        0.0045
     26 C          48.5671   13.0199  -25.3507 C.ar    1  UNL1        0.0537
     27 C          48.8611   14.2933  -25.8661 C.ar    1  UNL1        0.0092
     28 C          47.9118   14.9881  -26.6363 C.ar    1  UNL1        0.0534
     29 C          49.5587   18.2993  -26.8017 C.3     1  UNL1        0.2542
     30 O          49.4097   16.8885  -26.9071 O.3     1  UNL1       -0.4561
     31 C          48.7863   13.5975  -14.4922 C.3     1  UNL1        0.0867
     32 C          50.2247   14.0735  -14.1874 C.3     1  UNL1        0.0244
     33 C          47.7918   14.7625  -14.3418 C.3     1  UNL1        0.0244
     34 C          48.4234   12.5176  -13.4437 C.3     1  UNL1        0.0244
     35 C          51.0382   12.1291  -16.2375 C.2     1  UNL1        0.1903
     36 C          52.1705   12.8254  -16.9217 C.3     1  UNL1        0.0789
     37 O          51.2833   11.3552  -15.2757 O.2     1  UNL1       -0.2897
@<TRIPOS>BOND
     1    29    30    1
     2    30    19    1
     3    19    20   ar
     4    20    21   ar
     5    21    22   ar
     6    22    23   ar
     7    23    24   ar
     8    24    25   ar
     9    25    26   ar
    10    26     1    1
    11     1     2    2
    12     1     3   am
    13     3     4    1
    14     4     5    1
    15     5     6    1
    16     6     7    1
    17     7     8    1
    18     6     9    1
    19     9    10    1
    20    10    11   ar
    21    11    12   ar
    22    12    13   ar
    23    13    31    1
    24    31    32    1
    25    31    33    1
    26    31    34    1
    27    13    14   ar
    28    14    35    1
    29    35    36    1
    30    35    37    2
    31    11    15    1
    32    15    16    2
    33    15    17   am
    34    26    27   ar
    35    27    28   ar
    36    28    19   ar
    37    28    23   ar
    38     8     3    1
    39    14    10   ar
    40    17     6    1
    41    17    18    1
@<TRIPOS>MOLECULE
*****
 37 41 0 0 0
SMALL
GASTEIGER

@<TRIPOS>ATOM
      1 C          49.7508   11.8354  -24.4144 C.2     1  UNL1        0.2490
      2 O          50.7630   11.2654  -24.9064 O.2     1  UNL1       -0.2699
      3 N          49.4849   11.7145  -23.0045 N.am    1  UNL1       -0.2760
      4 C          49.8959   10.4983  -22.2937 C.3     1  UNL1        0.0954
      5 C          48.9224   10.2108  -21.1454 C.3     1  UNL1        0.0399
      6 C          48.7223   11.4254  -20.1707 C.3     1  UNL1        0.0645
      7 C          49.3550   12.7269  -20.7464 C.3     1  UNL1        0.0399
      8 C          49.0571   12.8968  -22.2402 C.3     1  UNL1        0.0954
      9 C          49.4053   11.0976  -18.7946 C.3     1  UNL1        0.0478
     10 C          48.9260   12.0276  -17.7184 C.ar    1  UNL1        0.0233
     11 C          47.6831   12.5726  -17.7173 C.ar    1  UNL1        0.1516
     12 N          47.4651   13.2591  -16.5847 N.ar    1  UNL1       -0.1650
     13 N          48.5565   13.1481  -15.8296 N.ar    1  UNL1       -0.2520
     14 C          49.4764   12.3945  -16.5062 C.ar    1  UNL1        0.1100
     15 C          46.7720   12.3736  -18.8336 C.2     1  UNL1        0.2650
     16 O          45.5871   12.7982  -18.7954 O.2     1  UNL1       -0.2684
     17 N          47.2686   11.6679  -19.9824 N.am    1  UNL1       -0.3023
     18 H          46.6154   11.5439  -20.7893 H       1  UNL1        0.1497
     19 C          46.4706   12.0831  -28.1211 C.ar    1  UNL1        0.2248
     20 N          45.6572   12.8365  -28.9141 N.ar    1  UNL1       -0.2101
     21 C          45.5586   14.1844  -28.7776 C.ar    1  UNL1        0.1021
     22 C          46.3025   14.8471  -27.8018 C.ar    1  UNL1        0.0209
     23 C          47.1512   14.1109  -26.9662 C.ar    1  UNL1        0.0060
     24 C          47.9065   14.7514  -25.9742 C.ar    1  UNL1        0.0003
     25 C          48.7513   14.0105  -25.1452 C.ar    1  UNL1        0.0045
     26 C          48.8638   12.6198  -25.3010 C.ar    1  UNL1        0.0537
     27 C          48.0948   11.9713  -26.2816 C.ar    1  UNL1        0.0092
     28 C          47.2416   12.7080  -27.1221 C.ar    1  UNL1        0.0534
     29 C          46.8711   10.0931  -29.5444 C.3     1  UNL1        0.2542
     30 O          46.5387   10.6959  -28.2995 O.3     1  UNL1       -0.4561
     31 C          48.6587   13.7803  -14.4890 C.3     1  UNL1        0.0867
     32 C          50.0997   14.2594  -14.2015 C.3     1  UNL1        0.0244
     33 C          47.6725   14.9583  -14.3960 C.3     1  UNL1        0.0244
     34 C          48.2845   12.7528  -13.3929 C.3     1  UNL1        0.0244
     35 C          50.8136   11.9858  -16.0410 C.2     1  UNL1        0.1903
     36 C          52.0390   12.6760  -16.5484 C.3     1  UNL1        0.0789
     37 O          50.9287   11.1039  -15.1506 O.2     1  UNL1       -0.2897
@<TRIPOS>BOND
     1    29    30    1
     2    30    19    1
     3    19    20   ar
     4    20    21   ar
     5    21    22   ar
     6    22    23   ar
     7    23    24   ar
     8    24    25   ar
     9    25    26   ar
    10    26     1    1
    11     1     2    2
    12     1     3   am
    13     3     4    1
    14     4     5    1
    15     5     6    1
    16     6     7    1
    17     7     8    1
    18     6     9    1
    19     9    10    1
    20    10    11   ar
    21    11    12   ar
    22    12    13   ar
    23    13    31    1
    24    31    32    1
    25    31    33    1
    26    31    34    1
    27    13    14   ar
    28    14    35    1
    29    35    36    1
    30    35    37    2
    31    11    15    1
    32    15    16    2
    33    15    17   am
    34    26    27   ar
    35    27    28   ar
    36    28    19   ar
    37    28    23   ar
    38     8     3    1
    39    14    10   ar
    40    17     6    1
    41    17    18    1
@<TRIPOS>MOLECULE
*****
 37 41 0 0 0
SMALL
GASTEIGER

@<TRIPOS>ATOM
      1 C          47.7743   11.3703  -17.9621 C.2     1  UNL1        0.2490
      2 O          46.7062   10.7123  -17.8288 O.2     1  UNL1       -0.2699
      3 N          48.1389   11.8736  -19.2609 N.am    1  UNL1       -0.2760
      4 C          47.7332   11.1345  -20.4620 C.3     1  UNL1        0.0954
      5 C          48.7768   11.3233  -21.5684 C.3     1  UNL1        0.0399
      6 C          49.0974   12.8282  -21.8813 C.3     1  UNL1        0.0645
      7 C          48.4767   13.7760  -20.8126 C.3     1  UNL1        0.0399
      8 C          48.6696   13.2400  -19.3898 C.3     1  UNL1        0.0954
      9 C          48.5057   13.1975  -23.2887 C.3     1  UNL1        0.0478
     10 C          49.1006   14.4746  -23.8067 C.ar    1  UNL1        0.0233
     11 C          50.3611   14.8751  -23.5026 C.ar    1  UNL1        0.1516
     12 N          50.6900   15.9781  -24.1931 N.ar    1  UNL1       -0.1650
     13 N          49.6539   16.2918  -24.9689 N.ar    1  UNL1       -0.2520
     14 C          48.6569   15.3812  -24.7490 C.ar    1  UNL1        0.1100
     15 C          51.1781   14.1359  -22.5528 C.2     1  UNL1        0.2650
     16 O          52.3787   14.4496  -22.3387 O.2     1  UNL1       -0.2684
     17 N          50.5697   13.0278  -21.8700 N.am    1  UNL1       -0.3023
     18 H          51.1556   12.5117  -21.1748 H       1  UNL1        0.1497
     19 C          51.9919   12.9941  -15.9284 C.ar    1  UNL1        0.2248
     20 N          52.7437   13.2118  -14.8125 N.ar    1  UNL1       -0.2101
     21 C          52.2977   12.9035  -13.5670 C.ar    1  UNL1        0.1021
     22 C          51.0319   12.3445  -13.3933 C.ar    1  UNL1        0.0209
     23 C          50.2271   12.1037  -14.5135 C.ar    1  UNL1        0.0060
     24 C          48.9490   11.5471  -14.3669 C.ar    1  UNL1        0.0003
     25 C          48.1525   11.3091  -15.4888 C.ar    1  UNL1        0.0045
     26 C          48.6240   11.6128  -16.7758 C.ar    1  UNL1        0.0537
     27 C          49.8969   12.1879  -16.9261 C.ar    1  UNL1        0.0092
     28 C          50.7073   12.4309  -15.8031 C.ar    1  UNL1        0.0534
     29 C          52.3639   12.4780  -18.3246 C.3     1  UNL1        0.2542
     30 O          52.4946   13.3285  -17.1918 O.3     1  UNL1       -0.4561
     31 C          49.6771   17.4616  -25.8847 C.3     1  UNL1        0.0867
     32 C          49.2051   17.0736  -27.3044 C.3     1  UNL1        0.0244
     33 C          48.7928   18.5840  -25.3127 C.3     1  UNL1        0.0244
     34 C          51.1218   18.0041  -26.0087 C.3     1  UNL1        0.0244
     35 C          47.3424   15.3170  -25.4122 C.2     1  UNL1        0.1903
     36 C          47.0641   14.2772  -26.4497 C.3     1  UNL1        0.0789
     37 O          46.4162   16.0890  -25.0513 O.2     1  UNL1       -0.2897
@<TRIPOS>BOND
     1    29    30    1
     2    30    19    1
     3    19    20   ar
     4    20    21   ar
     5    21    22   ar
     6    22    23   ar
     7    23    24   ar
     8    24    25   ar
     9    25    26   ar
    10    26     1    1
    11     1     2    2
    12     1     3   am
    13     3     4    1
    14     4     5    1
    15     5     6    1
    16     6     7    1
    17     7     8    1
    18     6     9    1
    19     9    10    1
    20    10    11   ar
    21    11    12   ar
    22    12    13   ar
    23    13    31    1
    24    31    32    1
    25    31    33    1
    26    31    34    1
    27    13    14   ar
    28    14    35    1
    29    35    36    1
    30    35    37    2
    31    11    15    1
    32    15    16    2
    33    15    17   am
    34    26    27   ar
    35    27    28   ar
    36    28    19   ar
    37    28    23   ar
    38     8     3    1
    39    14    10   ar
    40    17     6    1
    41    17    18    1
@<TRIPOS>MOLECULE
*****
 37 41 0 0 0
SMALL
GASTEIGER

@<TRIPOS>ATOM
      1 C          49.2900    8.9909  -28.8424 C.2     1  UNL1        0.2490
      2 O          48.1858    8.6981  -29.3778 O.2     1  UNL1       -0.2699
      3 N          49.3079    9.8077  -27.6568 N.am    1  UNL1       -0.2760
      4 C          48.2561   10.8107  -27.4547 C.3     1  UNL1        0.0954
      5 C          48.8158   12.0035  -26.6718 C.3     1  UNL1        0.0399
      6 C          49.5140   11.6004  -25.3245 C.3     1  UNL1        0.0645
      7 C          49.7097   10.0585  -25.2244 C.3     1  UNL1        0.0399
      8 C          50.2046    9.4567  -26.5442 C.3     1  UNL1        0.0954
      9 C          48.6224   12.0755  -24.1217 C.3     1  UNL1        0.0478
     10 C          49.4001   12.0710  -22.8378 C.ar    1  UNL1        0.0233
     11 C          50.7377   12.2945  -22.7876 C.ar    1  UNL1        0.1516
     12 N          51.1616   12.3637  -21.5159 N.ar    1  UNL1       -0.1650
     13 N          50.0993   12.2078  -20.7279 N.ar    1  UNL1       -0.2520
     14 C          48.9977   12.0227  -21.5178 C.ar    1  UNL1        0.1100
     15 C          51.5236   12.4403  -24.0029 C.2     1  UNL1        0.2650
     16 O          52.7458   12.7403  -23.9603 O.2     1  UNL1       -0.2684
     17 N          50.8549   12.2370  -25.2582 N.am    1  UNL1       -0.3023
     18 H          51.4286   12.3247  -26.1278 H       1  UNL1        0.1497
     19 C          51.6657    6.5181  -32.4204 C.ar    1  UNL1        0.2248
     20 N          52.8387    6.0721  -32.9526 N.ar    1  UNL1       -0.2101
     21 C          54.0403    6.3248  -32.3717 C.ar    1  UNL1        0.1021
     22 C          54.1072    7.0632  -31.1905 C.ar    1  UNL1        0.0209
     23 C          52.9256    7.5398  -30.6098 C.ar    1  UNL1        0.0060
     24 C          52.9647    8.2883  -29.4253 C.ar    1  UNL1        0.0003
     25 C          51.7821    8.7595  -28.8517 C.ar    1  UNL1        0.0045
     26 C          50.5408    8.4813  -29.4456 C.ar    1  UNL1        0.0537
     27 C          50.4981    7.7472  -30.6426 C.ar    1  UNL1        0.0092
     28 C          51.6830    7.2674  -31.2282 C.ar    1  UNL1        0.0534
     29 C          49.2264    6.0811  -32.3479 C.3     1  UNL1        0.2542
     30 O          50.4511    6.2324  -33.0558 O.3     1  UNL1       -0.4561
     31 C          50.2017   12.2420  -19.2461 C.3     1  UNL1        0.0867
     32 C          49.2623   13.3103  -18.6420 C.3     1  UNL1        0.0244
     33 C          49.8733   10.8519  -18.6726 C.3     1  UNL1        0.0244
     34 C          51.6471   12.6054  -18.8269 C.3     1  UNL1        0.0244
     35 C          47.6023   11.8441  -21.0786 C.2     1  UNL1        0.1903
     36 C          46.9881   10.4819  -21.0329 C.3     1  UNL1        0.0789
     37 O          46.9418   12.8309  -20.6616 O.2     1  UNL1       -0.2897
@<TRIPOS>BOND
     1    29    30    1
     2    30    19    1
     3    19    20   ar
     4    20    21   ar
     5    21    22   ar
     6    22    23   ar
     7    23    24   ar
     8    24    25   ar
     9    25    26   ar
    10    26     1    1
    11     1     2    2
    12     1     3   am
    13     3     4    1
    14     4     5    1
    15     5     6    1
    16     6     7    1
    17     7     8    1
    18     6     9    1
    19     9    10    1
    20    10    11   ar
    21    11    12   ar
    22    12    13   ar
    23    13    31    1
    24    31    32    1
    25    31    33    1
    26    31    34    1
    27    13    14   ar
    28    14    35    1
    29    35    36    1
    30    35    37    2
    31    11    15    1
    32    15    16    2
    33    15    17   am
    34    26    27   ar
    35    27    28   ar
    36    28    19   ar
    37    28    23   ar
    38     8     3    1
    39    14    10   ar
    40    17     6    1
    41    17    18    1
@<TRIPOS>MOLECULE
*****
 37 41 0 0 0
SMALL
GASTEIGER

@<TRIPOS>ATOM
      1 C          48.5831   11.3268  -19.0488 C.2     1  UNL1        0.2490
      2 O          47.8796   10.2796  -19.0391 O.2     1  UNL1       -0.2699
      3 N          48.8449   11.9928  -20.2982 N.am    1  UNL1       -0.2760
      4 C          48.9198   11.2058  -21.5344 C.3     1  UNL1        0.0954
      5 C          49.9042   11.8594  -22.5105 C.3     1  UNL1        0.0399
      6 C          49.5997   13.3738  -22.7920 C.3     1  UNL1        0.0645
      7 C          48.5264   13.9302  -21.8101 C.3     1  UNL1        0.0399
      8 C          48.7674   13.4604  -20.3713 C.3     1  UNL1        0.0954
      9 C          49.0668   13.5259  -24.2619 C.3     1  UNL1        0.0478
     10 C          49.1274   14.9561  -24.7133 C.ar    1  UNL1        0.0233
     11 C          50.0637   15.8299  -24.2642 C.ar    1  UNL1        0.1516
     12 N          49.9760   16.9992  -24.9173 N.ar    1  UNL1       -0.1650
     13 N          48.9960   16.8885  -25.8124 N.ar    1  UNL1       -0.2520
     14 C          48.4525   15.6374  -25.7069 C.ar    1  UNL1        0.1100
     15 C          51.0045   15.4555  -23.2200 C.2     1  UNL1        0.2650
     16 O          51.9330   16.2296  -22.8669 O.2     1  UNL1       -0.2684
     17 N          50.8431   14.1659  -22.6075 N.am    1  UNL1       -0.3023
     18 H          51.5105   13.9095  -21.8447 H       1  UNL1        0.1497
     19 C          48.1583   14.2196  -15.0473 C.ar    1  UNL1        0.2248
     20 N          48.6774   14.6708  -13.8704 N.ar    1  UNL1       -0.2101
     21 C          49.8737   14.2389  -13.3934 C.ar    1  UNL1        0.1021
     22 C          50.6181   13.3023  -14.1101 C.ar    1  UNL1        0.0209
     23 C          50.1216   12.8132  -15.3245 C.ar    1  UNL1        0.0060
     24 C          50.8473   11.8680  -16.0625 C.ar    1  UNL1        0.0003
     25 C          50.3461   11.3855  -17.2732 C.ar    1  UNL1        0.0045
     26 C          49.1176   11.8475  -17.7716 C.ar    1  UNL1        0.0537
     27 C          48.3782   12.7810  -17.0263 C.ar    1  UNL1        0.0092
     28 C          48.8741   13.2739  -15.8063 C.ar    1  UNL1        0.0534
     29 C          46.6365   16.0791  -15.6577 C.3     1  UNL1        0.2542
     30 O          46.9206   14.6943  -15.4984 O.3     1  UNL1       -0.4561
     31 C          48.6294   18.0014  -26.7259 C.3     1  UNL1        0.0867
     32 C          47.9388   17.4751  -28.0045 C.3     1  UNL1        0.0244
     33 C          47.7121   18.9942  -25.9898 C.3     1  UNL1        0.0244
     34 C          49.9042   18.7614  -27.1670 C.3     1  UNL1        0.0244
     35 C          47.3667   15.0626  -26.5208 C.2     1  UNL1        0.1903
     36 C          45.9365   15.3407  -26.1859 C.3     1  UNL1        0.0789
     37 O          47.6383   14.3970  -27.5539 O.2     1  UNL1       -0.2897
@<TRIPOS>BOND
     1    29    30    1
     2    30    19    1
     3    19    20   ar
     4    20    21   ar
     5    21    22   ar
     6    22    23   ar
     7    23    24   ar
     8    24    25   ar
     9    25    26   ar
    10    26     1    1
    11     1     2    2
    12     1     3   am
    13     3     4    1
    14     4     5    1
    15     5     6    1
    16     6     7    1
    17     7     8    1
    18     6     9    1
    19     9    10    1
    20    10    11   ar
    21    11    12   ar
    22    12    13   ar
    23    13    31    1
    24    31    32    1
    25    31    33    1
    26    31    34    1
    27    13    14   ar
    28    14    35    1
    29    35    36    1
    30    35    37    2
    31    11    15    1
    32    15    16    2
    33    15    17   am
    34    26    27   ar
    35    27    28   ar
    36    28    19   ar
    37    28    23   ar
    38     8     3    1
    39    14    10   ar
    40    17     6    1
    41    17    18    1
@<TRIPOS>MOLECULE
*****
 37 41 0 0 0
SMALL
GASTEIGER

@<TRIPOS>ATOM
      1 C          51.8967    9.9255  -28.4331 C.2     1  UNL1        0.2490
      2 O          52.8453   10.5595  -28.9714 O.2     1  UNL1       -0.2699
      3 N          51.6620   10.0671  -27.0196 N.am    1  UNL1       -0.2760
      4 C          52.7924   10.3352  -26.1231 C.3     1  UNL1        0.0954
      5 C          52.5306    9.7057  -24.7504 C.3     1  UNL1        0.0399
      6 C          51.1591   10.1299  -24.1146 C.3     1  UNL1        0.0645
      7 C          50.2639   10.8826  -25.1431 C.3     1  UNL1        0.0399
      8 C          50.2853   10.2114  -26.5208 C.3     1  UNL1        0.0954
      9 C          51.4311   11.0784  -22.8923 C.3     1  UNL1        0.0478
     10 C          50.2139   11.2014  -22.0226 C.ar    1  UNL1        0.0233
     11 C          49.3042   10.2038  -21.8854 C.ar    1  UNL1        0.1516
     12 N          48.3875   10.5194  -20.9571 N.ar    1  UNL1       -0.1650
     13 N          48.7059   11.7161  -20.4668 N.ar    1  UNL1       -0.2520
     14 C          49.8288   12.1622  -21.1085 C.ar    1  UNL1        0.1100
     15 C          49.3987    8.9843  -22.6726 C.2     1  UNL1        0.2650
     16 O          48.6127    8.0192  -22.4818 O.2     1  UNL1       -0.2684
     17 N          50.4268    8.9145  -23.6739 N.am    1  UNL1       -0.3023
     18 H          50.4784    8.0432  -24.2495 H       1  UNL1        0.1497
     19 C          51.2943    6.9497  -32.3500 C.ar    1  UNL1        0.2248
     20 N          50.4823    6.1469  -33.0944 N.ar    1  UNL1       -0.2101
     21 C          49.1811    5.9315  -32.7693 C.ar    1  UNL1        0.1021
     22 C          48.6299    6.5386  -31.6412 C.ar    1  UNL1        0.0209
     23 C          49.4293    7.3716  -30.8490 C.ar    1  UNL1        0.0060
     24 C          48.9018    7.9905  -29.7073 C.ar    1  UNL1        0.0003
     25 C          49.7050    8.8206  -28.9227 C.ar    1  UNL1        0.0045
     26 C          51.0444    9.0547  -29.2719 C.ar    1  UNL1        0.0537
     27 C          51.5825    8.4220  -30.4048 C.ar    1  UNL1        0.0092
     28 C          50.7822    7.5848  -31.2022 C.ar    1  UNL1        0.0534
     29 C          53.5956    6.0973  -32.7020 C.3     1  UNL1        0.2542
     30 O          52.6297    7.1414  -32.7251 O.3     1  UNL1       -0.4561
     31 C          47.9052   12.3731  -19.4016 C.3     1  UNL1        0.0867
     32 C          48.1329   13.9017  -19.3890 C.3     1  UNL1        0.0244
     33 C          46.4133   12.0539  -19.6046 C.3     1  UNL1        0.0244
     34 C          48.3284   11.8300  -18.0148 C.3     1  UNL1        0.0244
     35 C          50.5567   13.4205  -20.8663 C.2     1  UNL1        0.1903
     36 C          51.6763   13.4729  -19.8769 C.3     1  UNL1        0.0789
     37 O          50.2925   14.4430  -21.5509 O.2     1  UNL1       -0.2897
@<TRIPOS>BOND
     1    29    30    1
     2    30    19    1
     3    19    20   ar
     4    20    21   ar
     5    21    22   ar
     6    22    23   ar
     7    23    24   ar
     8    24    25   ar
     9    25    26   ar
    10    26     1    1
    11     1     2    2
    12     1     3   am
    13     3     4    1
    14     4     5    1
    15     5     6    1
    16     6     7    1
    17     7     8    1
    18     6     9    1
    19     9    10    1
    20    10    11   ar
    21    11    12   ar
    22    12    13   ar
    23    13    31    1
    24    31    32    1
    25    31    33    1
    26    31    34    1
    27    13    14   ar
    28    14    35    1
    29    35    36    1
    30    35    37    2
    31    11    15    1
    32    15    16    2
    33    15    17   am
    34    26    27   ar
    35    27    28   ar
    36    28    19   ar
    37    28    23   ar
    38     8     3    1
    39    14    10   ar
    40    17     6    1
    41    17    18    1
@<TRIPOS>MOLECULE
*****
 37 41 0 0 0
SMALL
GASTEIGER

@<TRIPOS>ATOM
      1 C          52.5674   10.7779  -28.4678 C.2     1  UNL1        0.2490
      2 O          53.2851   11.6824  -28.9760 O.2     1  UNL1       -0.2699
      3 N          52.2008   10.8615  -27.0779 N.am    1  UNL1       -0.2760
      4 C          53.1113   11.5121  -26.1286 C.3     1  UNL1        0.0954
      5 C          52.9794   10.8596  -24.7481 C.3     1  UNL1        0.0399
      6 C          51.5040   10.8116  -24.2129 C.3     1  UNL1        0.0645
      7 C          50.4832   11.1985  -25.3237 C.3     1  UNL1        0.0399
      8 C          50.8235   10.5452  -26.6677 C.3     1  UNL1        0.0954
      9 C          51.3577   11.8213  -23.0185 C.3     1  UNL1        0.0478
     10 C          50.1117   11.5462  -22.2281 C.ar    1  UNL1        0.0233
     11 C          49.5799   10.3041  -22.1021 C.ar    1  UNL1        0.1516
     12 N          48.5480   10.3125  -21.2439 N.ar    1  UNL1       -0.1650
     13 N          48.4136   11.5564  -20.7874 N.ar    1  UNL1       -0.2520
     14 C          49.3651   12.3405  -21.3803 C.ar    1  UNL1        0.1100
     15 C          50.1308    9.1712  -22.8295 C.2     1  UNL1        0.2650
     16 O          49.7006    8.0023  -22.6441 O.2     1  UNL1       -0.2684
     17 N          51.1905    9.4302  -23.7645 N.am    1  UNL1       -0.3023
     18 H          51.5701    8.6152  -24.2982 H       1  UNL1        0.1497
     19 C          48.9423    7.9694  -30.3471 C.ar    1  UNL1        0.2248
     20 N          48.5612    6.9331  -31.1463 N.ar    1  UNL1       -0.2101
     21 C          49.4574    6.1928  -31.8492 C.ar    1  UNL1        0.1021
     22 C          50.8199    6.4797  -31.7703 C.ar    1  UNL1        0.0209
     23 C          51.2543    7.5358  -30.9602 C.ar    1  UNL1        0.0060
     24 C          52.6175    7.8485  -30.8665 C.ar    1  UNL1        0.0003
     25 C          53.0431    8.9028  -30.0558 C.ar    1  UNL1        0.0045
     26 C          52.1155    9.6543  -29.3172 C.ar    1  UNL1        0.0537
     27 C          50.7466    9.3564  -29.4224 C.ar    1  UNL1        0.0092
     28 C          50.3074    8.2964  -30.2352 C.ar    1  UNL1        0.0534
     29 C          47.1330    9.6623  -30.2628 C.3     1  UNL1        0.2542
     30 O          47.9814    8.7041  -29.6416 O.3     1  UNL1       -0.4561
     31 C          47.3672   11.9281  -19.8003 C.3     1  UNL1        0.0867
     32 C          47.8751   13.0132  -18.8240 C.3     1  UNL1        0.0244
     33 C          46.1090   12.4173  -20.5397 C.3     1  UNL1        0.0244
     34 C          46.9774   10.6905  -18.9557 C.3     1  UNL1        0.0244
     35 C          49.6125   13.7748  -21.1498 C.2     1  UNL1        0.1903
     36 C          48.9486   14.8077  -22.0027 C.3     1  UNL1        0.0789
     37 O          50.3241   14.1435  -20.1793 O.2     1  UNL1       -0.2897
@<TRIPOS>BOND
     1    29    30    1
     2    30    19    1
     3    19    20   ar
     4    20    21   ar
     5    21    22   ar
     6    22    23   ar
     7    23    24   ar
     8    24    25   ar
     9    25    26   ar
    10    26     1    1
    11     1     2    2
    12     1     3   am
    13     3     4    1
    14     4     5    1
    15     5     6    1
    16     6     7    1
    17     7     8    1
    18     6     9    1
    19     9    10    1
    20    10    11   ar
    21    11    12   ar
    22    12    13   ar
    23    13    31    1
    24    31    32    1
    25    31    33    1
    26    31    34    1
    27    13    14   ar
    28    14    35    1
    29    35    36    1
    30    35    37    2
    31    11    15    1
    32    15    16    2
    33    15    17   am
    34    26    27   ar
    35    27    28   ar
    36    28    19   ar
    37    28    23   ar
    38     8     3    1
    39    14    10   ar
    40    17     6    1
    41    17    18    1
