@<TRIPOS>MOLECULE
*****
 44 49 0 0 0
SMALL
GASTEIGER

@<TRIPOS>ATOM
      1 C           5.5464   74.8744   24.9450 C.ar    1  UNL1        0.0702
      2 C           6.1986   74.0809   25.9018 C.ar    1  UNL1        0.0191
      3 C           5.9563   74.2852   27.2608 C.ar    1  UNL1        0.0356
      4 C           5.0601   75.2888   27.6606 C.ar    1  UNL1        0.1318
      5 N           4.4454   76.0506   26.7152 N.ar    1  UNL1       -0.2279
      6 C           4.6778   75.8800   25.3875 C.ar    1  UNL1        0.1149
      7 N           4.7245   75.4742   29.0467 N.pl3   1  UNL1       -0.2932
      8 C           3.9001   76.6032   29.4935 C.3     1  UNL1        0.0923
      9 C           4.7604   77.6345   30.2521 C.3     1  UNL1        0.0252
     10 C           6.1300   77.0592   30.6828 C.3     1  UNL1        0.0472
     11 C           5.9710   75.6102   31.1882 C.3     1  UNL1        0.0252
     12 C           5.4321   74.6921   30.0709 C.3     1  UNL1        0.0923
     13 C           6.8014   77.9582   31.7380 C.3     1  UNL1        0.2054
     14 O           7.9972   78.5441   31.2192 O.3     1  UNL1       -0.4755
     15 C           8.4027   78.5001   29.8734 C.ar    1  UNL1        0.1388
     16 C           7.7868   79.3712   28.9685 C.ar    1  UNL1        0.0369
     17 C           8.1544   79.3701   27.6216 C.ar    1  UNL1        0.0033
     18 C           9.1433   78.4973   27.1642 C.ar    1  UNL1        0.0066
     19 C           9.7799   77.6157   28.0528 C.ar    1  UNL1        0.0785
     20 C           9.3981   77.6165   29.4065 C.ar    1  UNL1        0.0433
     21 C          10.8360   76.6984   27.5697 C.2     1  UNL1        0.3381
     22 O          10.5626   75.4996   27.2904 O.2     1  UNL1       -0.2451
     23 O          12.1428   77.1509   27.4167 O.3     1  UNL1       -0.4771
     24 H          12.8740   76.5302   27.0907 H       1  UNL1        0.2954
     25 C           6.3924   75.6465   22.6798 C.2     1  UNL1        0.2839
     26 O           5.8742   75.8996   21.5603 O.2     1  UNL1       -0.2665
     27 N           5.7548   74.6889   23.5352 N.am    1  UNL1       -0.2766
     28 H           5.3341   73.8460   23.0825 H       1  UNL1        0.1553
     29 C           9.3269   74.3156   23.1838 C.3     1  UNL1        0.0345
     30 C           8.9138   75.7539   23.2728 C.ar    1  UNL1        0.0202
     31 C           7.6537   76.3261   23.0429 C.ar    1  UNL1        0.1946
     32 O           7.7342   77.6415   23.1445 O.2     1  UNL1       -0.4492
     33 C           8.9732   77.9508   23.4378 C.ar    1  UNL1        0.1452
     34 C           9.5090   79.2221   23.6077 C.ar    1  UNL1        0.0375
     35 C          10.8853   79.3285   23.8736 C.ar    1  UNL1        0.0031
     36 C          11.7003   78.1680   23.9842 C.ar    1  UNL1        0.0002
     37 C          11.1071   76.8912   23.8226 C.ar    1  UNL1        0.0028
     38 C           9.7423   76.8256   23.5406 C.ar    1  UNL1        0.0337
     39 C          13.1577   78.2919   24.2615 C.ar    1  UNL1        0.0000
     40 C          13.6627   79.4036   24.9650 C.ar    1  UNL1        0.0000
     41 C          15.0345   79.5307   25.2024 C.ar    1  UNL1        0.0000
     42 C          15.9188   78.5519   24.7459 C.ar    1  UNL1        0.0000
     43 C          15.4329   77.4411   24.0541 C.ar    1  UNL1        0.0000
     44 C          14.0621   77.3076   23.8144 C.ar    1  UNL1        0.0000
@<TRIPOS>BOND
     1    29    30    1
     2    30    31   ar
     3    31    25    1
     4    25    26    2
     5    25    27   am
     6    27     1    1
     7     1     2   ar
     8     2     3   ar
     9     3     4   ar
    10     4     7    1
    11     7     8    1
    12     8     9    1
    13     9    10    1
    14    10    13    1
    15    13    14    1
    16    14    15    1
    17    15    16   ar
    18    16    17   ar
    19    17    18   ar
    20    18    19   ar
    21    19    21    1
    22    21    22    2
    23    21    23    1
    24    19    20   ar
    25    10    11    1
    26    11    12    1
    27     4     5   ar
    28     5     6   ar
    29    31    32   ar
    30    32    33   ar
    31    33    34   ar
    32    34    35   ar
    33    35    36   ar
    34    36    39    1
    35    39    40   ar
    36    40    41   ar
    37    41    42   ar
    38    42    43   ar
    39    43    44   ar
    40    36    37   ar
    41    37    38   ar
    42    38    30   ar
    43     6     1   ar
    44    38    33   ar
    45    12     7    1
    46    44    39   ar
    47    20    15   ar
    48    27    28    1
    49    23    24    1
@<TRIPOS>MOLECULE
*****
 44 49 0 0 0
SMALL
GASTEIGER

@<TRIPOS>ATOM
      1 C          10.9024   77.7359   24.9387 C.ar    1  UNL1        0.0702
      2 C          10.9329   76.6966   25.8819 C.ar    1  UNL1        0.0191
      3 C          10.2058   76.8083   27.0678 C.ar    1  UNL1        0.0356
      4 C           9.4489   77.9655   27.3089 C.ar    1  UNL1        0.1318
      5 N           9.4407   78.9631   26.3832 N.ar    1  UNL1       -0.2279
      6 C          10.1531   78.8829   25.2291 C.ar    1  UNL1        0.1149
      7 N           8.6238   78.0812   28.4811 N.pl3   1  UNL1       -0.2932
      8 C           8.3808   76.9357   29.3659 C.3     1  UNL1        0.0923
      9 C           6.9321   76.4294   29.2100 C.3     1  UNL1        0.0252
     10 C           6.0216   77.4545   28.4940 C.3     1  UNL1        0.0472
     11 C           6.3304   78.8844   28.9843 C.3     1  UNL1        0.0252
     12 C           7.7871   79.2768   28.6589 C.3     1  UNL1        0.0923
     13 C           4.5345   77.0992   28.6799 C.3     1  UNL1        0.2054
     14 O           4.1099   76.1579   27.6920 O.3     1  UNL1       -0.4755
     15 C           4.1609   76.3643   26.3019 C.ar    1  UNL1        0.1388
     16 C           5.2256   75.8032   25.5889 C.ar    1  UNL1        0.0369
     17 C           5.3221   75.9757   24.2067 C.ar    1  UNL1        0.0033
     18 C           4.3535   76.7115   23.5215 C.ar    1  UNL1        0.0066
     19 C           3.2725   77.2816   24.2132 C.ar    1  UNL1        0.0785
     20 C           3.1868   77.1110   25.6067 C.ar    1  UNL1        0.0433
     21 C           2.2401   78.0522   23.4849 C.2     1  UNL1        0.3381
     22 O           1.0741   77.5914   23.3514 O.2     1  UNL1       -0.2451
     23 O           2.5457   79.2959   22.9410 O.3     1  UNL1       -0.4771
     24 H           1.8477   79.8297   22.4371 H       1  UNL1        0.2954
     25 C          11.4506   76.6159   22.7279 C.2     1  UNL1        0.2839
     26 O          12.4726   76.0951   22.2080 O.2     1  UNL1       -0.2665
     27 N          11.6238   77.6568   23.6984 N.am    1  UNL1       -0.2766
     28 H          12.3906   78.3468   23.5304 H       1  UNL1        0.1553
     29 C           8.9939   78.3882   21.5195 C.3     1  UNL1        0.0345
     30 C           9.0569   76.9129   21.7778 C.ar    1  UNL1        0.0202
     31 C          10.1193   76.1504   22.2856 C.ar    1  UNL1        0.1946
     32 O           9.7944   74.8692   22.2779 O.2     1  UNL1       -0.4492
     33 C           8.5777   74.7619   21.8037 C.ar    1  UNL1        0.1452
     34 C           7.8523   73.5948   21.5947 C.ar    1  UNL1        0.0375
     35 C           6.5711   73.7062   21.0270 C.ar    1  UNL1        0.0031
     36 C           6.0270   74.9777   20.6946 C.ar    1  UNL1        0.0002
     37 C           6.7950   76.1424   20.9432 C.ar    1  UNL1        0.0028
     38 C           8.0697   75.9914   21.4897 C.ar    1  UNL1        0.0337
     39 C           4.6710   75.0844   20.0895 C.ar    1  UNL1        0.0000
     40 C           4.4897   75.7090   18.8394 C.ar    1  UNL1        0.0000
     41 C           3.2123   75.8307   18.2846 C.ar    1  UNL1        0.0000
     42 C           2.1016   75.3292   18.9652 C.ar    1  UNL1        0.0000
     43 C           2.2660   74.7010   20.2009 C.ar    1  UNL1        0.0000
     44 C           3.5408   74.5753   20.7606 C.ar    1  UNL1        0.0000
@<TRIPOS>BOND
     1    29    30    1
     2    30    31   ar
     3    31    25    1
     4    25    26    2
     5    25    27   am
     6    27     1    1
     7     1     2   ar
     8     2     3   ar
     9     3     4   ar
    10     4     7    1
    11     7     8    1
    12     8     9    1
    13     9    10    1
    14    10    13    1
    15    13    14    1
    16    14    15    1
    17    15    16   ar
    18    16    17   ar
    19    17    18   ar
    20    18    19   ar
    21    19    21    1
    22    21    22    2
    23    21    23    1
    24    19    20   ar
    25    10    11    1
    26    11    12    1
    27     4     5   ar
    28     5     6   ar
    29    31    32   ar
    30    32    33   ar
    31    33    34   ar
    32    34    35   ar
    33    35    36   ar
    34    36    39    1
    35    39    40   ar
    36    40    41   ar
    37    41    42   ar
    38    42    43   ar
    39    43    44   ar
    40    36    37   ar
    41    37    38   ar
    42    38    30   ar
    43     6     1   ar
    44    38    33   ar
    45    12     7    1
    46    44    39   ar
    47    20    15   ar
    48    27    28    1
    49    23    24    1
@<TRIPOS>MOLECULE
*****
 44 49 0 0 0
SMALL
GASTEIGER

@<TRIPOS>ATOM
      1 C          11.7014   76.4318   23.9751 C.ar    1  UNL1        0.0702
      2 C          12.0388   77.5206   24.7943 C.ar    1  UNL1        0.0191
      3 C          11.6306   77.5435   26.1285 C.ar    1  UNL1        0.0356
      4 C          10.8804   76.4735   26.6410 C.ar    1  UNL1        0.1318
      5 N          10.5588   75.4324   25.8258 N.ar    1  UNL1       -0.2279
      6 C          10.9320   75.3961   24.5199 C.ar    1  UNL1        0.1149
      7 N          10.5119   76.4244   28.0303 N.pl3   1  UNL1       -0.2932
      8 C          10.2830   75.1493   28.7201 C.3     1  UNL1        0.0923
      9 C           8.7797   74.9483   29.0008 C.3     1  UNL1        0.0252
     10 C           7.9708   76.2585   28.8546 C.3     1  UNL1        0.0472
     11 C           8.7540   77.4451   29.4537 C.3     1  UNL1        0.0252
     12 C          10.0883   77.6582   28.7081 C.3     1  UNL1        0.0923
     13 C           6.5744   76.1212   29.4899 C.3     1  UNL1        0.2054
     14 O           5.7165   75.3304   28.6646 O.3     1  UNL1       -0.4755
     15 C           5.3761   75.6263   27.3327 C.ar    1  UNL1        0.1388
     16 C           6.1735   75.0958   26.3130 C.ar    1  UNL1        0.0369
     17 C           5.8778   75.3565   24.9736 C.ar    1  UNL1        0.0033
     18 C           4.7798   76.1511   24.6387 C.ar    1  UNL1        0.0066
     19 C           3.9611   76.6922   25.6431 C.ar    1  UNL1        0.0785
     20 C           4.2704   76.4324   26.9903 C.ar    1  UNL1        0.0433
     21 C           2.7908   77.5254   25.2872 C.2     1  UNL1        0.3381
     22 O           2.9010   78.7784   25.2001 O.2     1  UNL1       -0.2451
     23 O           1.5556   76.9331   25.0429 O.3     1  UNL1       -0.4771
     24 H           0.7473   77.4944   24.8028 H       1  UNL1        0.2954
     25 C          11.2607   75.9536   21.5215 C.2     1  UNL1        0.2839
     26 O          11.7100   75.1493   20.6630 O.2     1  UNL1       -0.2665
     27 N          12.1132   76.3599   22.6002 N.am    1  UNL1       -0.2766
     28 H          13.1218   76.5227   22.3796 H       1  UNL1        0.1553
     29 C           8.4607   74.5405   22.4159 C.3     1  UNL1        0.0345
     30 C           8.6783   75.8543   21.7275 C.ar    1  UNL1        0.0202
     31 C           9.8845   76.4665   21.3553 C.ar    1  UNL1        0.1946
     32 O           9.6413   77.6624   20.8477 O.2     1  UNL1       -0.4492
     33 C           8.3451   77.8531   20.8610 C.ar    1  UNL1        0.1452
     34 C           7.6534   78.9853   20.4465 C.ar    1  UNL1        0.0375
     35 C           6.2555   78.9962   20.5943 C.ar    1  UNL1        0.0031
     36 C           5.5688   77.8737   21.1345 C.ar    1  UNL1        0.0002
     37 C           6.3134   76.7332   21.5259 C.ar    1  UNL1        0.0028
     38 C           7.7006   76.7662   21.3823 C.ar    1  UNL1        0.0337
     39 C           4.0886   77.8972   21.2910 C.ar    1  UNL1        0.0000
     40 C           3.4203   79.0932   21.6209 C.ar    1  UNL1        0.0000
     41 C           2.0330   79.1079   21.7923 C.ar    1  UNL1        0.0000
     42 C           1.2945   77.9340   21.6340 C.ar    1  UNL1        0.0000
     43 C           1.9412   76.7430   21.2998 C.ar    1  UNL1        0.0000
     44 C           3.3282   76.7219   21.1260 C.ar    1  UNL1        0.0000
@<TRIPOS>BOND
     1    29    30    1
     2    30    31   ar
     3    31    25    1
     4    25    26    2
     5    25    27   am
     6    27     1    1
     7     1     2   ar
     8     2     3   ar
     9     3     4   ar
    10     4     7    1
    11     7     8    1
    12     8     9    1
    13     9    10    1
    14    10    13    1
    15    13    14    1
    16    14    15    1
    17    15    16   ar
    18    16    17   ar
    19    17    18   ar
    20    18    19   ar
    21    19    21    1
    22    21    22    2
    23    21    23    1
    24    19    20   ar
    25    10    11    1
    26    11    12    1
    27     4     5   ar
    28     5     6   ar
    29    31    32   ar
    30    32    33   ar
    31    33    34   ar
    32    34    35   ar
    33    35    36   ar
    34    36    39    1
    35    39    40   ar
    36    40    41   ar
    37    41    42   ar
    38    42    43   ar
    39    43    44   ar
    40    36    37   ar
    41    37    38   ar
    42    38    30   ar
    43     6     1   ar
    44    38    33   ar
    45    12     7    1
    46    44    39   ar
    47    20    15   ar
    48    27    28    1
    49    23    24    1
@<TRIPOS>MOLECULE
*****
 44 49 0 0 0
SMALL
GASTEIGER

@<TRIPOS>ATOM
      1 C           5.8848   74.6980   23.9901 C.ar    1  UNL1        0.0702
      2 C           6.5035   74.0106   25.0461 C.ar    1  UNL1        0.0191
      3 C           6.2477   74.3829   26.3665 C.ar    1  UNL1        0.0356
      4 C           5.3718   75.4481   26.6277 C.ar    1  UNL1        0.1318
      5 N           4.7896   76.1045   25.5874 N.ar    1  UNL1       -0.2279
      6 C           5.0360   75.7697   24.2939 C.ar    1  UNL1        0.1149
      7 N           5.0218   75.8071   27.9756 N.pl3   1  UNL1       -0.2932
      8 C           4.5029   77.1396   28.3061 C.3     1  UNL1        0.0923
      9 C           5.5628   77.9586   29.0708 C.3     1  UNL1        0.0252
     10 C           6.7052   77.0756   29.6253 C.3     1  UNL1        0.0472
     11 C           6.1404   75.7556   30.1902 C.3     1  UNL1        0.0252
     12 C           5.4395   74.9376   29.0850 C.3     1  UNL1        0.0923
     13 C           7.5320   77.8364   30.6789 C.3     1  UNL1        0.2054
     14 O           8.9226   77.8076   30.3508 O.3     1  UNL1       -0.4755
     15 C           9.4458   77.7204   29.0484 C.ar    1  UNL1        0.1388
     16 C           9.9224   76.4808   28.6090 C.ar    1  UNL1        0.0369
     17 C          10.4493   76.3391   27.3238 C.ar    1  UNL1        0.0033
     18 C          10.5050   77.4366   26.4627 C.ar    1  UNL1        0.0066
     19 C          10.0295   78.6909   26.8780 C.ar    1  UNL1        0.0785
     20 C           9.5082   78.8279   28.1771 C.ar    1  UNL1        0.0433
     21 C          10.0787   79.8515   25.9610 C.2     1  UNL1        0.3381
     22 O           9.9678   79.6874   24.7158 O.2     1  UNL1       -0.2451
     23 O          10.2460   81.1377   26.4647 O.3     1  UNL1       -0.4771
     24 H          10.2852   81.9385   25.8456 H       1  UNL1        0.2954
     25 C           7.0264   75.0112   21.7448 C.2     1  UNL1        0.2839
     26 O           6.6561   75.2933   20.5746 O.2     1  UNL1       -0.2665
     27 N           6.1080   74.3390   22.6166 N.am    1  UNL1       -0.2766
     28 H           5.4975   73.6028   22.1951 H       1  UNL1        0.1553
     29 C           8.3825   77.9697   21.9562 C.3     1  UNL1        0.0345
     30 C           8.9935   76.6285   22.2301 C.ar    1  UNL1        0.0202
     31 C           8.4046   75.3577   22.1511 C.ar    1  UNL1        0.1946
     32 O           9.2644   74.4399   22.5579 O.2     1  UNL1       -0.4492
     33 C          10.3795   75.0451   22.8851 C.ar    1  UNL1        0.1452
     34 C          11.5380   74.4666   23.3904 C.ar    1  UNL1        0.0375
     35 C          12.6093   75.3144   23.7216 C.ar    1  UNL1        0.0031
     36 C          12.5160   76.7203   23.5270 C.ar    1  UNL1        0.0002
     37 C          11.3223   77.2642   22.9910 C.ar    1  UNL1        0.0028
     38 C          10.2734   76.3942   22.6923 C.ar    1  UNL1        0.0337
     39 C          13.6547   77.6098   23.8854 C.ar    1  UNL1        0.0000
     40 C          13.5039   78.6088   24.8677 C.ar    1  UNL1        0.0000
     41 C          14.5668   79.4596   25.1849 C.ar    1  UNL1        0.0000
     42 C          15.7926   79.3239   24.5311 C.ar    1  UNL1        0.0000
     43 C          15.9599   78.3341   23.5612 C.ar    1  UNL1        0.0000
     44 C          14.9011   77.4795   23.2402 C.ar    1  UNL1        0.0000
@<TRIPOS>BOND
     1    29    30    1
     2    30    31   ar
     3    31    25    1
     4    25    26    2
     5    25    27   am
     6    27     1    1
     7     1     2   ar
     8     2     3   ar
     9     3     4   ar
    10     4     7    1
    11     7     8    1
    12     8     9    1
    13     9    10    1
    14    10    13    1
    15    13    14    1
    16    14    15    1
    17    15    16   ar
    18    16    17   ar
    19    17    18   ar
    20    18    19   ar
    21    19    21    1
    22    21    22    2
    23    21    23    1
    24    19    20   ar
    25    10    11    1
    26    11    12    1
    27     4     5   ar
    28     5     6   ar
    29    31    32   ar
    30    32    33   ar
    31    33    34   ar
    32    34    35   ar
    33    35    36   ar
    34    36    39    1
    35    39    40   ar
    36    40    41   ar
    37    41    42   ar
    38    42    43   ar
    39    43    44   ar
    40    36    37   ar
    41    37    38   ar
    42    38    30   ar
    43     6     1   ar
    44    38    33   ar
    45    12     7    1
    46    44    39   ar
    47    20    15   ar
    48    27    28    1
    49    23    24    1
@<TRIPOS>MOLECULE
*****
 44 49 0 0 0
SMALL
GASTEIGER

@<TRIPOS>ATOM
      1 C          10.6855   77.4970   24.6205 C.ar    1  UNL1        0.0702
      2 C           9.6277   78.4152   24.7112 C.ar    1  UNL1        0.0191
      3 C           8.9500   78.5827   25.9196 C.ar    1  UNL1        0.0356
      4 C           9.3326   77.8258   27.0380 C.ar    1  UNL1        0.1318
      5 N          10.3562   76.9362   26.9240 N.ar    1  UNL1       -0.2279
      6 C          11.0197   76.7453   25.7539 C.ar    1  UNL1        0.1149
      7 N           8.7116   78.0295   28.3191 N.pl3   1  UNL1       -0.2932
      8 C           8.6782   76.9700   29.3342 C.3     1  UNL1        0.0923
      9 C           7.2511   76.4025   29.4772 C.3     1  UNL1        0.0252
     10 C           6.1832   77.3203   28.8374 C.3     1  UNL1        0.0472
     11 C           6.4982   78.8014   29.1334 C.3     1  UNL1        0.0252
     12 C           7.8580   79.2081   28.5274 C.3     1  UNL1        0.0923
     13 C           4.7681   76.9357   29.3085 C.3     1  UNL1        0.2054
     14 O           3.9374   76.5959   28.1962 O.3     1  UNL1       -0.4755
     15 C           4.3853   76.4206   26.8748 C.ar    1  UNL1        0.1388
     16 C           3.7736   77.1701   25.8644 C.ar    1  UNL1        0.0369
     17 C           4.1823   77.0361   24.5361 C.ar    1  UNL1        0.0033
     18 C           5.2089   76.1504   24.2033 C.ar    1  UNL1        0.0066
     19 C           5.8421   75.3894   25.1992 C.ar    1  UNL1        0.0785
     20 C           5.4189   75.5233   26.5337 C.ar    1  UNL1        0.0433
     21 C           6.9377   74.4587   24.8473 C.2     1  UNL1        0.3381
     22 O           6.6908   73.2500   24.5870 O.2     1  UNL1       -0.2451
     23 O           8.2531   74.9096   24.7982 O.3     1  UNL1       -0.4771
     24 H           9.0109   74.2801   24.5625 H       1  UNL1        0.2954
     25 C          11.1690   76.2458   22.4656 C.2     1  UNL1        0.2839
     26 O          12.1477   75.6127   21.9887 O.2     1  UNL1       -0.2665
     27 N          11.4201   77.3032   23.4006 N.am    1  UNL1       -0.2766
     28 H          12.2511   77.9121   23.2248 H       1  UNL1        0.1553
     29 C           8.8549   78.2184   21.2864 C.3     1  UNL1        0.0345
     30 C           8.8077   76.7377   21.5153 C.ar    1  UNL1        0.0202
     31 C           9.8089   75.8888   22.0106 C.ar    1  UNL1        0.1946
     32 O           9.3902   74.6356   21.9764 O.2     1  UNL1       -0.4492
     33 C           8.1708   74.6279   21.4971 C.ar    1  UNL1        0.1452
     34 C           7.3621   73.5219   21.2629 C.ar    1  UNL1        0.0375
     35 C           6.0950   73.7390   20.6942 C.ar    1  UNL1        0.0031
     36 C           5.6476   75.0535   20.3857 C.ar    1  UNL1        0.0002
     37 C           6.4985   76.1531   20.6596 C.ar    1  UNL1        0.0028
     38 C           7.7564   75.8975   21.2063 C.ar    1  UNL1        0.0337
     39 C           4.3057   75.2721   19.7794 C.ar    1  UNL1        0.0000
     40 C           4.1616   76.0584   18.6189 C.ar    1  UNL1        0.0000
     41 C           2.8977   76.2832   18.0655 C.ar    1  UNL1        0.0000
     42 C           1.7635   75.7256   18.6580 C.ar    1  UNL1        0.0000
     43 C           1.8909   74.9381   19.8035 C.ar    1  UNL1        0.0000
     44 C           3.1521   74.7086   20.3612 C.ar    1  UNL1        0.0000
@<TRIPOS>BOND
     1    29    30    1
     2    30    31   ar
     3    31    25    1
     4    25    26    2
     5    25    27   am
     6    27     1    1
     7     1     2   ar
     8     2     3   ar
     9     3     4   ar
    10     4     7    1
    11     7     8    1
    12     8     9    1
    13     9    10    1
    14    10    13    1
    15    13    14    1
    16    14    15    1
    17    15    16   ar
    18    16    17   ar
    19    17    18   ar
    20    18    19   ar
    21    19    21    1
    22    21    22    2
    23    21    23    1
    24    19    20   ar
    25    10    11    1
    26    11    12    1
    27     4     5   ar
    28     5     6   ar
    29    31    32   ar
    30    32    33   ar
    31    33    34   ar
    32    34    35   ar
    33    35    36   ar
    34    36    39    1
    35    39    40   ar
    36    40    41   ar
    37    41    42   ar
    38    42    43   ar
    39    43    44   ar
    40    36    37   ar
    41    37    38   ar
    42    38    30   ar
    43     6     1   ar
    44    38    33   ar
    45    12     7    1
    46    44    39   ar
    47    20    15   ar
    48    27    28    1
    49    23    24    1
@<TRIPOS>MOLECULE
*****
 44 49 0 0 0
SMALL
GASTEIGER

@<TRIPOS>ATOM
      1 C          11.3426   76.6794   24.1930 C.ar    1  UNL1        0.0702
      2 C          11.5476   77.7599   25.0653 C.ar    1  UNL1        0.0191
      3 C          11.1430   77.6682   26.3977 C.ar    1  UNL1        0.0356
      4 C          10.5293   76.4915   26.8550 C.ar    1  UNL1        0.1318
      5 N          10.3342   75.4600   25.9890 N.ar    1  UNL1       -0.2279
      6 C          10.7058   75.5328   24.6842 C.ar    1  UNL1        0.1149
      7 N          10.1730   76.3304   28.2390 N.pl3   1  UNL1       -0.2932
      8 C          10.3709   75.0565   28.9403 C.3     1  UNL1        0.0923
      9 C           9.0163   74.3660   29.2004 C.3     1  UNL1        0.0252
     10 C           7.8188   75.3293   29.0263 C.3     1  UNL1        0.0472
     11 C           8.1492   76.7132   29.6231 C.3     1  UNL1        0.0252
     12 C           9.3490   77.3557   28.8955 C.3     1  UNL1        0.0923
     13 C           6.5372   74.7368   29.6418 C.3     1  UNL1        0.2054
     14 O           5.7126   74.1513   28.6321 O.3     1  UNL1       -0.4755
     15 C           5.6400   74.5822   27.2954 C.ar    1  UNL1        0.1388
     16 C           6.6197   74.1353   26.4026 C.ar    1  UNL1        0.0369
     17 C           6.5923   74.5309   25.0638 C.ar    1  UNL1        0.0033
     18 C           5.5832   75.3784   24.6026 C.ar    1  UNL1        0.0066
     19 C           4.5856   75.8380   25.4776 C.ar    1  UNL1        0.0785
     20 C           4.6249   75.4421   26.8266 C.ar    1  UNL1        0.0433
     21 C           3.5099   76.7275   24.9857 C.2     1  UNL1        0.3381
     22 O           3.7863   77.8612   24.5082 O.2     1  UNL1       -0.2451
     23 O           2.1807   76.3201   25.0436 O.3     1  UNL1       -0.4771
     24 H           1.4365   76.9228   24.7135 H       1  UNL1        0.2954
     25 C          11.2306   75.8785   21.7870 C.2     1  UNL1        0.2839
     26 O          12.0304   75.3426   20.9752 O.2     1  UNL1       -0.2665
     27 N          11.7566   76.7250   22.8176 N.am    1  UNL1       -0.2766
     28 H          12.5573   77.3475   22.5653 H       1  UNL1        0.1553
     29 C           8.8724   78.0581   21.2174 C.3     1  UNL1        0.0345
     30 C           8.7655   76.5722   21.3837 C.ar    1  UNL1        0.0202
     31 C           9.7830   75.6346   21.6158 C.ar    1  UNL1        0.1946
     32 O           9.2756   74.4141   21.6145 O.2     1  UNL1       -0.4492
     33 C           7.9858   74.5109   21.4054 C.ar    1  UNL1        0.1452
     34 C           7.0670   73.4733   21.2985 C.ar    1  UNL1        0.0375
     35 C           5.7285   73.8024   21.0226 C.ar    1  UNL1        0.0031
     36 C           5.3242   75.1582   20.8763 C.ar    1  UNL1        0.0002
     37 C           6.2920   76.1845   21.0127 C.ar    1  UNL1        0.0028
     38 C           7.6140   75.8190   21.2673 C.ar    1  UNL1        0.0337
     39 C           3.9050   75.4957   20.5795 C.ar    1  UNL1        0.0000
     40 C           3.2557   74.9449   19.4567 C.ar    1  UNL1        0.0000
     41 C           1.9307   75.2827   19.1656 C.ar    1  UNL1        0.0000
     42 C           1.2358   76.1693   19.9899 C.ar    1  UNL1        0.0000
     43 C           1.8630   76.7173   21.1101 C.ar    1  UNL1        0.0000
     44 C           3.1874   76.3827   21.4073 C.ar    1  UNL1        0.0000
@<TRIPOS>BOND
     1    29    30    1
     2    30    31   ar
     3    31    25    1
     4    25    26    2
     5    25    27   am
     6    27     1    1
     7     1     2   ar
     8     2     3   ar
     9     3     4   ar
    10     4     7    1
    11     7     8    1
    12     8     9    1
    13     9    10    1
    14    10    13    1
    15    13    14    1
    16    14    15    1
    17    15    16   ar
    18    16    17   ar
    19    17    18   ar
    20    18    19   ar
    21    19    21    1
    22    21    22    2
    23    21    23    1
    24    19    20   ar
    25    10    11    1
    26    11    12    1
    27     4     5   ar
    28     5     6   ar
    29    31    32   ar
    30    32    33   ar
    31    33    34   ar
    32    34    35   ar
    33    35    36   ar
    34    36    39    1
    35    39    40   ar
    36    40    41   ar
    37    41    42   ar
    38    42    43   ar
    39    43    44   ar
    40    36    37   ar
    41    37    38   ar
    42    38    30   ar
    43     6     1   ar
    44    38    33   ar
    45    12     7    1
    46    44    39   ar
    47    20    15   ar
    48    27    28    1
    49    23    24    1
@<TRIPOS>MOLECULE
*****
 44 49 0 0 0
SMALL
GASTEIGER

@<TRIPOS>ATOM
      1 C           5.5624   77.2022   27.0135 C.ar    1  UNL1        0.0702
      2 C           6.4622   76.9916   25.9569 C.ar    1  UNL1        0.0191
      3 C           5.9830   76.7699   24.6652 C.ar    1  UNL1        0.0356
      4 C           4.5987   76.7569   24.4336 C.ar    1  UNL1        0.1318
      5 N           3.7454   76.9559   25.4749 N.ar    1  UNL1       -0.2279
      6 C           4.1889   77.1581   26.7431 C.ar    1  UNL1        0.1149
      7 N           4.0705   76.6124   23.1037 N.pl3   1  UNL1       -0.2932
      8 C           4.5043   75.5251   22.2184 C.3     1  UNL1        0.0923
      9 C           5.3979   76.0728   21.0867 C.3     1  UNL1        0.0252
     10 C           5.2904   77.6088   20.9396 C.3     1  UNL1        0.0472
     11 C           3.8260   78.0650   21.1067 C.3     1  UNL1        0.0252
     12 C           3.2952   77.7125   22.5122 C.3     1  UNL1        0.0923
     13 C           5.8821   78.0795   19.5977 C.3     1  UNL1        0.2054
     14 O           7.0107   78.9299   19.8109 O.3     1  UNL1       -0.4755
     15 C           7.9918   78.7408   20.8004 C.ar    1  UNL1        0.1388
     16 C           8.1312   79.7206   21.7891 C.ar    1  UNL1        0.0369
     17 C           9.0879   79.5803   22.7962 C.ar    1  UNL1        0.0033
     18 C           9.9164   78.4570   22.8262 C.ar    1  UNL1        0.0066
     19 C           9.7941   77.4571   21.8478 C.ar    1  UNL1        0.0785
     20 C           8.8340   77.6097   20.8315 C.ar    1  UNL1        0.0433
     21 C          10.6652   76.2613   21.8863 C.2     1  UNL1        0.3381
     22 O          11.0782   75.8065   22.9874 O.2     1  UNL1       -0.2451
     23 O          11.0361   75.6246   20.7060 O.3     1  UNL1       -0.4771
     24 H          11.6353   74.8080   20.7209 H       1  UNL1        0.2954
     25 C           7.3557   77.2385   28.8094 C.2     1  UNL1        0.2839
     26 O           7.5400   76.6620   29.9138 O.2     1  UNL1       -0.2665
     27 N           6.0121   77.4488   28.3559 N.am    1  UNL1       -0.2766
     28 H           5.2983   77.7086   29.0738 H       1  UNL1        0.1553
     29 C           9.9909   75.5255   27.9387 C.3     1  UNL1        0.0345
     30 C           9.6763   76.9692   27.6856 C.ar    1  UNL1        0.0202
     31 C           8.5362   77.7010   28.0498 C.ar    1  UNL1        0.1946
     32 O           8.6155   78.9262   27.5601 O.2     1  UNL1       -0.4492
     33 C           9.7478   79.0306   26.9091 C.ar    1  UNL1        0.1452
     34 C          10.2239   80.1361   26.2140 C.ar    1  UNL1        0.0375
     35 C          11.4522   80.0145   25.5413 C.ar    1  UNL1        0.0031
     36 C          12.1939   78.8017   25.5873 C.ar    1  UNL1        0.0002
     37 C          11.6789   77.7064   26.3246 C.ar    1  UNL1        0.0028
     38 C          10.4478   77.8578   26.9632 C.ar    1  UNL1        0.0337
     39 C          13.4916   78.6818   24.8676 C.ar    1  UNL1        0.0000
     40 C          14.4567   79.7051   24.9522 C.ar    1  UNL1        0.0000
     41 C          15.6642   79.6021   24.2554 C.ar    1  UNL1        0.0000
     42 C          15.9267   78.4787   23.4695 C.ar    1  UNL1        0.0000
     43 C          14.9837   77.4533   23.3818 C.ar    1  UNL1        0.0000
     44 C          13.7747   77.5497   24.0770 C.ar    1  UNL1        0.0000
@<TRIPOS>BOND
     1    29    30    1
     2    30    31   ar
     3    31    25    1
     4    25    26    2
     5    25    27   am
     6    27     1    1
     7     1     2   ar
     8     2     3   ar
     9     3     4   ar
    10     4     7    1
    11     7     8    1
    12     8     9    1
    13     9    10    1
    14    10    13    1
    15    13    14    1
    16    14    15    1
    17    15    16   ar
    18    16    17   ar
    19    17    18   ar
    20    18    19   ar
    21    19    21    1
    22    21    22    2
    23    21    23    1
    24    19    20   ar
    25    10    11    1
    26    11    12    1
    27     4     5   ar
    28     5     6   ar
    29    31    32   ar
    30    32    33   ar
    31    33    34   ar
    32    34    35   ar
    33    35    36   ar
    34    36    39    1
    35    39    40   ar
    36    40    41   ar
    37    41    42   ar
    38    42    43   ar
    39    43    44   ar
    40    36    37   ar
    41    37    38   ar
    42    38    30   ar
    43     6     1   ar
    44    38    33   ar
    45    12     7    1
    46    44    39   ar
    47    20    15   ar
    48    27    28    1
    49    23    24    1
@<TRIPOS>MOLECULE
*****
 44 49 0 0 0
SMALL
GASTEIGER

@<TRIPOS>ATOM
      1 C           5.8379   74.9453   24.2429 C.ar    1  UNL1        0.0702
      2 C           5.1634   75.7249   25.1957 C.ar    1  UNL1        0.0191
      3 C           5.1345   75.3241   26.5321 C.ar    1  UNL1        0.0356
      4 C           5.7812   74.1379   26.9127 C.ar    1  UNL1        0.1318
      5 N           6.4223   73.3946   25.9700 N.ar    1  UNL1       -0.2279
      6 C           6.4502   73.7572   24.6610 C.ar    1  UNL1        0.1149
      7 N           5.8415   73.7358   28.2922 N.pl3   1  UNL1       -0.2932
      8 C           4.6245   73.5139   29.0819 C.3     1  UNL1        0.0923
      9 C           4.4338   74.6463   30.1118 C.3     1  UNL1        0.0252
     10 C           5.7208   75.4785   30.3203 C.3     1  UNL1        0.0472
     11 C           6.9588   74.5582   30.3497 C.3     1  UNL1        0.0252
     12 C           7.1224   73.8103   29.0098 C.3     1  UNL1        0.0923
     13 C           5.6232   76.3400   31.5933 C.3     1  UNL1        0.2054
     14 O           5.6958   77.7307   31.2721 O.3     1  UNL1       -0.4755
     15 C           6.6095   78.3073   30.3720 C.ar    1  UNL1        0.1388
     16 C           6.3521   78.1889   29.0021 C.ar    1  UNL1        0.0369
     17 C           7.2258   78.7457   28.0660 C.ar    1  UNL1        0.0033
     18 C           8.3675   79.4281   28.4901 C.ar    1  UNL1        0.0066
     19 C           8.6467   79.5645   29.8596 C.ar    1  UNL1        0.0785
     20 C           7.7666   78.9935   30.7963 C.ar    1  UNL1        0.0433
     21 C           9.8513   80.2976   30.3089 C.2     1  UNL1        0.3381
     22 O          10.8837   79.6702   30.6697 O.2     1  UNL1       -0.2451
     23 O           9.8572   81.6887   30.3357 O.3     1  UNL1       -0.4771
     24 H          10.6749   82.2001   30.6454 H       1  UNL1        0.2954
     25 C           6.4764   76.5551   22.3872 C.2     1  UNL1        0.2839
     26 O           5.8576   77.2143   21.5105 O.2     1  UNL1       -0.2665
     27 N           5.9054   75.3278   22.8593 N.am    1  UNL1       -0.2766
     28 H           5.4262   74.7200   22.1570 H       1  UNL1        0.1553
     29 C           9.4190   75.1913   22.0440 C.3     1  UNL1        0.0345
     30 C           9.0451   76.4722   22.7271 C.ar    1  UNL1        0.0202
     31 C           7.7802   77.0638   22.8624 C.ar    1  UNL1        0.1946
     32 O           7.8963   78.2364   23.4612 O.2     1  UNL1       -0.4492
     33 C           9.1638   78.4311   23.7302 C.ar    1  UNL1        0.1452
     34 C           9.7387   79.5454   24.3300 C.ar    1  UNL1        0.0375
     35 C          11.1361   79.5667   24.4813 C.ar    1  UNL1        0.0031
     36 C          11.9349   78.4716   24.0503 C.ar    1  UNL1        0.0002
     37 C          11.3035   77.3478   23.4615 C.ar    1  UNL1        0.0028
     38 C           9.9168   77.3704   23.3102 C.ar    1  UNL1        0.0337
     39 C          13.4144   78.5061   24.2110 C.ar    1  UNL1        0.0000
     40 C          14.0399   79.5817   24.8726 C.ar    1  UNL1        0.0000
     41 C          15.4313   79.6248   25.0003 C.ar    1  UNL1        0.0000
     42 C          16.2159   78.5970   24.4747 C.ar    1  UNL1        0.0000
     43 C          15.6105   77.5210   23.8233 C.ar    1  UNL1        0.0000
     44 C          14.2195   77.4714   23.6932 C.ar    1  UNL1        0.0000
@<TRIPOS>BOND
     1    29    30    1
     2    30    31   ar
     3    31    25    1
     4    25    26    2
     5    25    27   am
     6    27     1    1
     7     1     2   ar
     8     2     3   ar
     9     3     4   ar
    10     4     7    1
    11     7     8    1
    12     8     9    1
    13     9    10    1
    14    10    13    1
    15    13    14    1
    16    14    15    1
    17    15    16   ar
    18    16    17   ar
    19    17    18   ar
    20    18    19   ar
    21    19    21    1
    22    21    22    2
    23    21    23    1
    24    19    20   ar
    25    10    11    1
    26    11    12    1
    27     4     5   ar
    28     5     6   ar
    29    31    32   ar
    30    32    33   ar
    31    33    34   ar
    32    34    35   ar
    33    35    36   ar
    34    36    39    1
    35    39    40   ar
    36    40    41   ar
    37    41    42   ar
    38    42    43   ar
    39    43    44   ar
    40    36    37   ar
    41    37    38   ar
    42    38    30   ar
    43     6     1   ar
    44    38    33   ar
    45    12     7    1
    46    44    39   ar
    47    20    15   ar
    48    27    28    1
    49    23    24    1
@<TRIPOS>MOLECULE
*****
 44 49 0 0 0
SMALL
GASTEIGER

@<TRIPOS>ATOM
      1 C           9.9118   76.3668   21.9173 C.ar    1  UNL1        0.0702
      2 C           9.0680   75.2536   22.0557 C.ar    1  UNL1        0.0191
      3 C           7.7454   75.3208   21.6155 C.ar    1  UNL1        0.0356
      4 C           7.2680   76.5076   21.0377 C.ar    1  UNL1        0.1318
      5 N           8.1025   77.5763   20.9209 N.ar    1  UNL1       -0.2279
      6 C           9.3888   77.5388   21.3566 C.ar    1  UNL1        0.1149
      7 N           5.9367   76.5872   20.4996 N.pl3   1  UNL1       -0.2932
      8 C           5.3327   77.8728   20.1301 C.3     1  UNL1        0.0923
      9 C           4.2322   78.2631   21.1379 C.3     1  UNL1        0.0252
     10 C           3.7836   77.0705   22.0146 C.3     1  UNL1        0.0472
     11 C           3.6850   75.7853   21.1666 C.3     1  UNL1        0.0252
     12 C           5.0584   75.4104   20.5711 C.3     1  UNL1        0.0923
     13 C           2.4570   77.3796   22.7336 C.3     1  UNL1        0.2054
     14 O           2.3396   76.6134   23.9342 O.3     1  UNL1       -0.4755
     15 C           3.2997   76.5642   24.9606 C.ar    1  UNL1        0.1388
     16 C           3.1153   77.3849   26.0783 C.ar    1  UNL1        0.0369
     17 C           4.0373   77.3725   27.1267 C.ar    1  UNL1        0.0033
     18 C           5.1549   76.5378   27.0690 C.ar    1  UNL1        0.0066
     19 C           5.3611   75.7013   25.9601 C.ar    1  UNL1        0.0785
     20 C           4.4326   75.7258   24.9040 C.ar    1  UNL1        0.0433
     21 C           6.5402   74.8085   25.9045 C.2     1  UNL1        0.3381
     22 O           7.3988   74.9398   24.9906 O.2     1  UNL1       -0.2451
     23 O           6.7143   73.8150   26.8629 O.3     1  UNL1       -0.4771
     24 H           7.5155   73.1959   26.8317 H       1  UNL1        0.2954
     25 C          11.7624   76.9075   23.5683 C.2     1  UNL1        0.2839
     26 O          12.8210   77.5894   23.5472 O.2     1  UNL1       -0.2665
     27 N          11.2840   76.3370   22.3432 N.am    1  UNL1       -0.2766
     28 H          11.9971   75.9596   21.6788 H       1  UNL1        0.1553
     29 C           9.2522   78.5740   24.8167 C.3     1  UNL1        0.0345
     30 C          10.0111   77.4247   25.4085 C.ar    1  UNL1        0.0202
     31 C          11.0824   76.7007   24.8642 C.ar    1  UNL1        0.1946
     32 O          11.4090   75.7082   25.6737 O.2     1  UNL1       -0.4492
     33 C          10.6162   75.7567   26.7157 C.ar    1  UNL1        0.1452
     34 C          10.5905   74.8861   27.7991 C.ar    1  UNL1        0.0375
     35 C           9.6180   75.0962   28.7921 C.ar    1  UNL1        0.0031
     36 C           8.7005   76.1791   28.6993 C.ar    1  UNL1        0.0002
     37 C           8.7762   77.0531   27.5864 C.ar    1  UNL1        0.0028
     38 C           9.7417   76.8020   26.6111 C.ar    1  UNL1        0.0337
     39 C           7.6714   76.3900   29.7542 C.ar    1  UNL1        0.0000
     40 C           6.8222   75.3372   30.1495 C.ar    1  UNL1        0.0000
     41 C           5.8397   75.5440   31.1222 C.ar    1  UNL1        0.0000
     42 C           5.6932   76.7992   31.7151 C.ar    1  UNL1        0.0000
     43 C           6.5319   77.8500   31.3396 C.ar    1  UNL1        0.0000
     44 C           7.5170   77.6493   30.3682 C.ar    1  UNL1        0.0000
@<TRIPOS>BOND
     1    29    30    1
     2    30    31   ar
     3    31    25    1
     4    25    26    2
     5    25    27   am
     6    27     1    1
     7     1     2   ar
     8     2     3   ar
     9     3     4   ar
    10     4     7    1
    11     7     8    1
    12     8     9    1
    13     9    10    1
    14    10    13    1
    15    13    14    1
    16    14    15    1
    17    15    16   ar
    18    16    17   ar
    19    17    18   ar
    20    18    19   ar
    21    19    21    1
    22    21    22    2
    23    21    23    1
    24    19    20   ar
    25    10    11    1
    26    11    12    1
    27     4     5   ar
    28     5     6   ar
    29    31    32   ar
    30    32    33   ar
    31    33    34   ar
    32    34    35   ar
    33    35    36   ar
    34    36    39    1
    35    39    40   ar
    36    40    41   ar
    37    41    42   ar
    38    42    43   ar
    39    43    44   ar
    40    36    37   ar
    41    37    38   ar
    42    38    30   ar
    43     6     1   ar
    44    38    33   ar
    45    12     7    1
    46    44    39   ar
    47    20    15   ar
    48    27    28    1
    49    23    24    1
