@<TRIPOS>MOLECULE
*****
 47 52 0 0 0
SMALL
GASTEIGER

@<TRIPOS>ATOM
      1 C          11.7602   80.9981   25.1548 C.ar    1  UNL1        0.0702
      2 C          13.1546   80.9051   25.0289 C.ar    1  UNL1        0.0191
      3 C          13.9005   82.0251   24.6581 C.ar    1  UNL1        0.0356
      4 C          13.2483   83.2471   24.4233 C.ar    1  UNL1        0.1318
      5 N          11.8978   83.3188   24.5842 N.ar    1  UNL1       -0.2279
      6 C          11.1519   82.2416   24.9455 C.ar    1  UNL1        0.1149
      7 N          13.9836   84.4277   24.0423 N.pl3   1  UNL1       -0.2932
      8 C          14.6955   84.4464   22.7585 C.3     1  UNL1        0.0923
      9 C          16.0246   85.1949   22.8919 C.3     1  UNL1        0.0252
     10 C          15.8421   86.6051   23.5002 C.3     1  UNL1        0.0471
     11 C          15.1159   86.4681   24.8793 C.3     1  UNL1        0.0235
     12 C          13.7806   85.7027   24.7448 C.3     1  UNL1        0.0922
     13 C          14.9874   87.7551   25.7647 C.3     1  UNL1        0.0018
     14 C          16.2801   88.5767   25.9330 C.3     1  UNL1        0.0001
     15 C          14.3265   87.4817   27.1240 C.3     1  UNL1        0.0001
     16 C          15.1667   87.5867   22.5132 C.3     1  UNL1        0.2054
     17 O          15.4712   87.2409   21.1582 O.3     1  UNL1       -0.4755
     18 C          14.6376   86.5536   20.2588 C.ar    1  UNL1        0.1388
     19 C          13.2660   86.8247   20.3086 C.ar    1  UNL1        0.0369
     20 C          12.3835   86.1888   19.4347 C.ar    1  UNL1        0.0033
     21 C          12.8615   85.2652   18.5041 C.ar    1  UNL1        0.0066
     22 C          14.2322   84.9599   18.4462 C.ar    1  UNL1        0.0785
     23 C          15.1153   85.6019   19.3341 C.ar    1  UNL1        0.0433
     24 C          14.7420   83.9736   17.4671 C.2     1  UNL1        0.3381
     25 O          15.9501   83.6132   17.4936 O.2     1  UNL1       -0.2451
     26 O          13.8910   83.4316   16.5072 O.3     1  UNL1       -0.4771
     27 H          14.2299   82.7549   15.8337 H       1  UNL1        0.2954
     28 C           9.8702   79.3407   24.7890 C.2     1  UNL1        0.2839
     29 O           9.6088   79.8038   23.6467 O.2     1  UNL1       -0.2665
     30 N          10.9586   79.8768   25.5619 N.am    1  UNL1       -0.2766
     31 H          11.1551   79.4702   26.5022 H       1  UNL1        0.1553
     32 C           8.1080   79.2585   27.5042 C.3     1  UNL1        0.0345
     33 C           8.3033   78.1820   26.4798 C.ar    1  UNL1        0.0202
     34 C           9.0506   78.2266   25.2962 C.ar    1  UNL1        0.1946
     35 O           8.9147   77.0915   24.6332 O.2     1  UNL1       -0.4492
     36 C           8.1384   76.3044   25.3372 C.ar    1  UNL1        0.1452
     37 C           7.7329   75.0125   25.0206 C.ar    1  UNL1        0.0375
     38 C           6.8889   74.3453   25.9256 C.ar    1  UNL1        0.0031
     39 C           6.4643   74.9758   27.1268 C.ar    1  UNL1        0.0002
     40 C           6.9001   76.2926   27.4102 C.ar    1  UNL1        0.0028
     41 C           7.7382   76.9228   26.4903 C.ar    1  UNL1        0.0337
     42 C           5.5728   74.2615   28.0755 C.ar    1  UNL1        0.0000
     43 C           5.2366   72.9108   27.8629 C.ar    1  UNL1        0.0000
     44 C           4.3971   72.2405   28.7579 C.ar    1  UNL1        0.0000
     45 C           3.8855   72.9079   29.8730 C.ar    1  UNL1        0.0000
     46 C           4.2121   74.2474   30.0954 C.ar    1  UNL1        0.0000
     47 C           5.0504   74.9230   29.2032 C.ar    1  UNL1        0.0000
@<TRIPOS>BOND
     1    32    33    1
     2    33    34   ar
     3    34    28    1
     4    28    29    2
     5    28    30   am
     6    30     1    1
     7     1     2   ar
     8     2     3   ar
     9     3     4   ar
    10     4     7    1
    11     7     8    1
    12     8     9    1
    13     9    10    1
    14    10    16    1
    15    16    17    1
    16    17    18    1
    17    18    19   ar
    18    19    20   ar
    19    20    21   ar
    20    21    22   ar
    21    22    24    1
    22    24    25    2
    23    24    26    1
    24    22    23   ar
    25    10    11    1
    26    11    13    1
    27    13    14    1
    28    13    15    1
    29    11    12    1
    30     4     5   ar
    31     5     6   ar
    32    34    35   ar
    33    35    36   ar
    34    36    37   ar
    35    37    38   ar
    36    38    39   ar
    37    39    42    1
    38    42    43   ar
    39    43    44   ar
    40    44    45   ar
    41    45    46   ar
    42    46    47   ar
    43    39    40   ar
    44    40    41   ar
    45    41    33   ar
    46     6     1   ar
    47    41    36   ar
    48    12     7    1
    49    47    42   ar
    50    23    18   ar
    51    30    31    1
    52    26    27    1
@<TRIPOS>MOLECULE
*****
 47 52 0 0 0
SMALL
GASTEIGER

@<TRIPOS>ATOM
      1 C          10.4719   80.9136   24.7790 C.ar    1  UNL1        0.0702
      2 C          10.2224   80.6556   26.1355 C.ar    1  UNL1        0.0191
      3 C           9.5066   79.5180   26.5118 C.ar    1  UNL1        0.0356
      4 C           9.0482   78.6283   25.5259 C.ar    1  UNL1        0.1318
      5 N           9.3319   78.8846   24.2187 N.ar    1  UNL1       -0.2279
      6 C          10.0280   79.9853   23.8297 C.ar    1  UNL1        0.1149
      7 N           8.3086   77.4403   25.8742 N.pl3   1  UNL1       -0.2932
      8 C           9.0053   76.1488   25.9191 C.3     1  UNL1        0.0923
      9 C           8.1017   75.0321   25.3886 C.3     1  UNL1        0.0252
     10 C           6.7301   75.0020   26.1028 C.3     1  UNL1        0.0471
     11 C           6.0567   76.4069   25.9584 C.3     1  UNL1        0.0235
     12 C           6.9743   77.5335   26.4835 C.3     1  UNL1        0.0922
     13 C           4.5754   76.5572   26.4483 C.3     1  UNL1        0.0018
     14 C           3.5573   76.9682   25.3672 C.3     1  UNL1        0.0001
     15 C           4.4455   77.4454   27.6946 C.3     1  UNL1        0.0001
     16 C           6.8378   74.4876   27.5580 C.3     1  UNL1        0.2054
     17 O           7.8289   75.2182   28.2875 O.3     1  UNL1       -0.4755
     18 C           7.6019   76.1156   29.3454 C.ar    1  UNL1        0.1388
     19 C           6.5429   75.8376   30.2163 C.ar    1  UNL1        0.0369
     20 C           6.2707   76.6786   31.2958 C.ar    1  UNL1        0.0033
     21 C           7.0504   77.8154   31.5134 C.ar    1  UNL1        0.0066
     22 C           8.1080   78.1286   30.6422 C.ar    1  UNL1        0.0785
     23 C           8.3732   77.2780   29.5529 C.ar    1  UNL1        0.0433
     24 C           8.9314   79.3387   30.8638 C.2     1  UNL1        0.3381
     25 O           9.6142   79.4625   31.9166 O.2     1  UNL1       -0.2451
     26 O           8.9619   80.3525   29.9095 O.3     1  UNL1       -0.4771
     27 H           9.5233   81.1838   30.0511 H       1  UNL1        0.2954
     28 C          12.5614   82.3579   24.8026 C.2     1  UNL1        0.2839
     29 O          13.1712   81.5631   25.5668 O.2     1  UNL1       -0.2665
     30 N          11.2290   82.0577   24.3509 N.am    1  UNL1       -0.2766
     31 H          10.7505   82.7318   23.7146 H       1  UNL1        0.1553
     32 C          15.4537   82.5869   23.3649 C.3     1  UNL1        0.0345
     33 C          14.5154   83.6851   23.7646 C.ar    1  UNL1        0.0202
     34 C          13.2561   83.5825   24.3690 C.ar    1  UNL1        0.1946
     35 O          12.7179   84.7825   24.4979 O.2     1  UNL1       -0.4492
     36 C          13.5729   85.6596   24.0315 C.ar    1  UNL1        0.1452
     37 C          13.4219   87.0408   23.9748 C.ar    1  UNL1        0.0375
     38 C          14.4726   87.7976   23.4271 C.ar    1  UNL1        0.0031
     39 C          15.6520   87.1663   22.9462 C.ar    1  UNL1        0.0002
     40 C          15.7644   85.7571   23.0222 C.ar    1  UNL1        0.0028
     41 C          14.7030   85.0391   23.5734 C.ar    1  UNL1        0.0337
     42 C          16.7554   87.9756   22.3698 C.ar    1  UNL1        0.0000
     43 C          17.9351   88.2035   23.1039 C.ar    1  UNL1        0.0000
     44 C          18.9727   88.9658   22.5586 C.ar    1  UNL1        0.0000
     45 C          18.8462   89.5073   21.2775 C.ar    1  UNL1        0.0000
     46 C          17.6814   89.2879   20.5389 C.ar    1  UNL1        0.0000
     47 C          16.6402   88.5271   21.0795 C.ar    1  UNL1        0.0000
@<TRIPOS>BOND
     1    32    33    1
     2    33    34   ar
     3    34    28    1
     4    28    29    2
     5    28    30   am
     6    30     1    1
     7     1     2   ar
     8     2     3   ar
     9     3     4   ar
    10     4     7    1
    11     7     8    1
    12     8     9    1
    13     9    10    1
    14    10    16    1
    15    16    17    1
    16    17    18    1
    17    18    19   ar
    18    19    20   ar
    19    20    21   ar
    20    21    22   ar
    21    22    24    1
    22    24    25    2
    23    24    26    1
    24    22    23   ar
    25    10    11    1
    26    11    13    1
    27    13    14    1
    28    13    15    1
    29    11    12    1
    30     4     5   ar
    31     5     6   ar
    32    34    35   ar
    33    35    36   ar
    34    36    37   ar
    35    37    38   ar
    36    38    39   ar
    37    39    42    1
    38    42    43   ar
    39    43    44   ar
    40    44    45   ar
    41    45    46   ar
    42    46    47   ar
    43    39    40   ar
    44    40    41   ar
    45    41    33   ar
    46     6     1   ar
    47    41    36   ar
    48    12     7    1
    49    47    42   ar
    50    23    18   ar
    51    30    31    1
    52    26    27    1
@<TRIPOS>MOLECULE
*****
 47 52 0 0 0
SMALL
GASTEIGER

@<TRIPOS>ATOM
      1 C          11.8497   81.3112   25.7225 C.ar    1  UNL1        0.0702
      2 C          12.8806   81.9826   26.3974 C.ar    1  UNL1        0.0191
      3 C          13.5743   83.0160   25.7658 C.ar    1  UNL1        0.0356
      4 C          13.2265   83.3869   24.4562 C.ar    1  UNL1        0.1318
      5 N          12.2005   82.7414   23.8353 N.ar    1  UNL1       -0.2279
      6 C          11.5109   81.7333   24.4314 C.ar    1  UNL1        0.1149
      7 N          13.9164   84.4517   23.7708 N.pl3   1  UNL1       -0.2932
      8 C          14.3053   84.2680   22.3672 C.3     1  UNL1        0.0923
      9 C          15.6684   84.9118   22.0985 C.3     1  UNL1        0.0252
     10 C          15.7143   86.3911   22.5477 C.3     1  UNL1        0.0471
     11 C          15.3274   86.4693   24.0617 C.3     1  UNL1        0.0235
     12 C          13.9571   85.8092   24.3329 C.3     1  UNL1        0.0922
     13 C          15.4841   87.8527   24.7818 C.3     1  UNL1        0.0018
     14 C          16.9316   88.3546   24.9472 C.3     1  UNL1        0.0001
     15 C          14.7202   87.9236   26.1125 C.3     1  UNL1        0.0001
     16 C          14.8814   87.3108   21.6234 C.3     1  UNL1        0.2054
     17 O          14.1939   86.5479   20.6265 O.3     1  UNL1       -0.4755
     18 C          14.2179   86.7648   19.2378 C.ar    1  UNL1        0.1388
     19 C          13.8410   88.0289   18.7718 C.ar    1  UNL1        0.0369
     20 C          13.8558   88.3169   17.4066 C.ar    1  UNL1        0.0033
     21 C          14.2402   87.3394   16.4877 C.ar    1  UNL1        0.0066
     22 C          14.6046   86.0553   16.9276 C.ar    1  UNL1        0.0785
     23 C          14.5825   85.7711   18.3058 C.ar    1  UNL1        0.0433
     24 C          15.0036   85.0126   15.9555 C.2     1  UNL1        0.3381
     25 O          14.3192   84.8139   14.9152 O.2     1  UNL1       -0.2451
     26 O          16.1415   84.2414   16.1793 O.3     1  UNL1       -0.4771
     27 H          16.4237   83.5265   15.5194 H       1  UNL1        0.2954
     28 C          11.2789   78.8611   26.0748 C.2     1  UNL1        0.2839
     29 O          12.1973   78.4773   25.3023 O.2     1  UNL1       -0.2665
     30 N          11.0921   80.2614   26.3464 N.am    1  UNL1       -0.2766
     31 H          10.3268   80.5497   26.9941 H       1  UNL1        0.1553
     32 C           8.1339   78.3092   25.5377 C.3     1  UNL1        0.0345
     33 C           9.0591   77.6132   26.4893 C.ar    1  UNL1        0.0202
     34 C          10.4240   77.8409   26.7059 C.ar    1  UNL1        0.1946
     35 O          10.8936   76.9702   27.5821 O.2     1  UNL1       -0.4492
     36 C           9.8993   76.2061   27.9633 C.ar    1  UNL1        0.1452
     37 C           9.9391   75.1596   28.8781 C.ar    1  UNL1        0.0375
     38 C           8.7447   74.4652   29.1387 C.ar    1  UNL1        0.0031
     39 C           7.5350   74.8244   28.4844 C.ar    1  UNL1        0.0002
     40 C           7.5389   75.8960   27.5592 C.ar    1  UNL1        0.0028
     41 C           8.7417   76.5632   27.3271 C.ar    1  UNL1        0.0337
     42 C           6.2795   74.0839   28.7674 C.ar    1  UNL1        0.0000
     43 C           5.8748   73.0186   27.9405 C.ar    1  UNL1        0.0000
     44 C           4.6922   72.3228   28.2095 C.ar    1  UNL1        0.0000
     45 C           3.9021   72.6802   29.3042 C.ar    1  UNL1        0.0000
     46 C           4.2929   73.7346   30.1325 C.ar    1  UNL1        0.0000
     47 C           5.4742   74.4344   29.8678 C.ar    1  UNL1        0.0000
@<TRIPOS>BOND
     1    32    33    1
     2    33    34   ar
     3    34    28    1
     4    28    29    2
     5    28    30   am
     6    30     1    1
     7     1     2   ar
     8     2     3   ar
     9     3     4   ar
    10     4     7    1
    11     7     8    1
    12     8     9    1
    13     9    10    1
    14    10    16    1
    15    16    17    1
    16    17    18    1
    17    18    19   ar
    18    19    20   ar
    19    20    21   ar
    20    21    22   ar
    21    22    24    1
    22    24    25    2
    23    24    26    1
    24    22    23   ar
    25    10    11    1
    26    11    13    1
    27    13    14    1
    28    13    15    1
    29    11    12    1
    30     4     5   ar
    31     5     6   ar
    32    34    35   ar
    33    35    36   ar
    34    36    37   ar
    35    37    38   ar
    36    38    39   ar
    37    39    42    1
    38    42    43   ar
    39    43    44   ar
    40    44    45   ar
    41    45    46   ar
    42    46    47   ar
    43    39    40   ar
    44    40    41   ar
    45    41    33   ar
    46     6     1   ar
    47    41    36   ar
    48    12     7    1
    49    47    42   ar
    50    23    18   ar
    51    30    31    1
    52    26    27    1
@<TRIPOS>MOLECULE
*****
 47 52 0 0 0
SMALL
GASTEIGER

@<TRIPOS>ATOM
      1 C          10.6206   81.2113   24.6334 C.ar    1  UNL1        0.0702
      2 C          10.2845   80.8863   25.9564 C.ar    1  UNL1        0.0191
      3 C           9.5023   79.7617   26.2241 C.ar    1  UNL1        0.0356
      4 C           9.0641   78.9521   25.1629 C.ar    1  UNL1        0.1318
      5 N           9.4315   79.2711   23.8908 N.ar    1  UNL1       -0.2279
      6 C          10.1931   80.3604   23.6072 C.ar    1  UNL1        0.1149
      7 N           8.2577   77.7799   25.3983 N.pl3   1  UNL1       -0.2932
      8 C           7.8128   77.4776   26.7643 C.3     1  UNL1        0.0923
      9 C           7.8368   75.9672   27.0153 C.3     1  UNL1        0.0252
     10 C           7.0505   75.1837   25.9383 C.3     1  UNL1        0.0471
     11 C           7.6302   75.5441   24.5304 C.3     1  UNL1        0.0235
     12 C           7.6159   77.0691   24.2834 C.3     1  UNL1        0.0922
     13 C           7.1080   74.7280   23.2983 C.3     1  UNL1        0.0018
     14 C           7.8540   73.4108   23.0103 C.3     1  UNL1        0.0001
     15 C           6.9828   75.5804   22.0267 C.3     1  UNL1        0.0001
     16 C           5.5212   75.3768   26.0720 C.3     1  UNL1        0.2054
     17 O           4.9257   75.6460   24.7988 O.3     1  UNL1       -0.4755
     18 C           3.9553   76.6226   24.5148 C.ar    1  UNL1        0.1388
     19 C           3.0112   76.9073   25.5072 C.ar    1  UNL1        0.0369
     20 C           2.0291   77.8759   25.2973 C.ar    1  UNL1        0.0033
     21 C           1.9732   78.5672   24.0863 C.ar    1  UNL1        0.0066
     22 C           2.8973   78.2867   23.0652 C.ar    1  UNL1        0.0785
     23 C           3.8820   77.3051   23.2828 C.ar    1  UNL1        0.0433
     24 C           2.8355   79.0109   21.7756 C.2     1  UNL1        0.3381
     25 O           3.8873   79.2308   21.1156 O.2     1  UNL1       -0.2451
     26 O           1.6135   79.4551   21.2766 O.3     1  UNL1       -0.4771
     27 H           1.5605   79.9502   20.3944 H       1  UNL1        0.2954
     28 C          12.8640   82.4008   24.5597 C.2     1  UNL1        0.2839
     29 O          13.4757   81.3964   25.0119 O.2     1  UNL1       -0.2665
     30 N          11.4472   82.3436   24.3169 N.am    1  UNL1       -0.2766
     31 H          10.9681   83.1889   23.9373 H       1  UNL1        0.1553
     32 C          15.5492   82.6508   22.7676 C.3     1  UNL1        0.0345
     33 C          14.8120   83.7256   23.5075 C.ar    1  UNL1        0.0202
     34 C          13.6397   83.6183   24.2663 C.ar    1  UNL1        0.1946
     35 O          13.2731   84.8109   24.7020 O.2     1  UNL1       -0.4492
     36 C          14.1599   85.6818   24.2862 C.ar    1  UNL1        0.1452
     37 C          14.1720   87.0529   24.5173 C.ar    1  UNL1        0.0375
     38 C          15.2261   87.8052   23.9698 C.ar    1  UNL1        0.0031
     39 C          16.2467   87.1795   23.2033 C.ar    1  UNL1        0.0002
     40 C          16.1957   85.7806   22.9915 C.ar    1  UNL1        0.0028
     41 C          15.1363   85.0665   23.5512 C.ar    1  UNL1        0.0337
     42 C          17.3553   87.9839   22.6299 C.ar    1  UNL1        0.0000
     43 C          18.5004   88.2734   23.3964 C.ar    1  UNL1        0.0000
     44 C          19.5430   89.0309   22.8539 C.ar    1  UNL1        0.0000
     45 C          19.4559   89.5063   21.5436 C.ar    1  UNL1        0.0000
     46 C          18.3257   89.2254   20.7728 C.ar    1  UNL1        0.0000
     47 C          17.2797   88.4690   21.3104 C.ar    1  UNL1        0.0000
@<TRIPOS>BOND
     1    32    33    1
     2    33    34   ar
     3    34    28    1
     4    28    29    2
     5    28    30   am
     6    30     1    1
     7     1     2   ar
     8     2     3   ar
     9     3     4   ar
    10     4     7    1
    11     7     8    1
    12     8     9    1
    13     9    10    1
    14    10    16    1
    15    16    17    1
    16    17    18    1
    17    18    19   ar
    18    19    20   ar
    19    20    21   ar
    20    21    22   ar
    21    22    24    1
    22    24    25    2
    23    24    26    1
    24    22    23   ar
    25    10    11    1
    26    11    13    1
    27    13    14    1
    28    13    15    1
    29    11    12    1
    30     4     5   ar
    31     5     6   ar
    32    34    35   ar
    33    35    36   ar
    34    36    37   ar
    35    37    38   ar
    36    38    39   ar
    37    39    42    1
    38    42    43   ar
    39    43    44   ar
    40    44    45   ar
    41    45    46   ar
    42    46    47   ar
    43    39    40   ar
    44    40    41   ar
    45    41    33   ar
    46     6     1   ar
    47    41    36   ar
    48    12     7    1
    49    47    42   ar
    50    23    18   ar
    51    30    31    1
    52    26    27    1
@<TRIPOS>MOLECULE
*****
 47 52 0 0 0
SMALL
GASTEIGER

@<TRIPOS>ATOM
      1 C          10.3739   79.8997   23.6693 C.ar    1  UNL1        0.0702
      2 C           9.4903   79.7859   22.5852 C.ar    1  UNL1        0.0191
      3 C           8.8707   78.5654   22.3119 C.ar    1  UNL1        0.0356
      4 C           9.1282   77.4563   23.1348 C.ar    1  UNL1        0.1318
      5 N           9.9644   77.6017   24.2000 N.ar    1  UNL1       -0.2279
      6 C          10.5776   78.7806   24.4854 C.ar    1  UNL1        0.1149
      7 N           8.5051   76.1794   22.8880 N.pl3   1  UNL1       -0.2932
      8 C           7.0628   76.0287   23.1168 C.3     1  UNL1        0.0923
      9 C           6.7532   74.6487   23.7038 C.3     1  UNL1        0.0252
     10 C           7.3509   73.5044   22.8521 C.3     1  UNL1        0.0471
     11 C           8.8912   73.7373   22.7065 C.3     1  UNL1        0.0235
     12 C           9.2022   75.1344   22.1249 C.3     1  UNL1        0.0922
     13 C           9.7383   72.6019   22.0354 C.3     1  UNL1        0.0018
     14 C           9.3425   71.1632   22.4200 C.3     1  UNL1        0.0001
     15 C          11.2516   72.8168   22.1863 C.3     1  UNL1        0.0001
     16 C           6.6000   73.3166   21.5124 C.3     1  UNL1        0.2054
     17 O           5.2064   73.6065   21.6614 O.3     1  UNL1       -0.4755
     18 C           4.4517   74.5167   20.9012 C.ar    1  UNL1        0.1388
     19 C           4.5646   74.4493   19.5083 C.ar    1  UNL1        0.0369
     20 C           3.8326   75.3132   18.6931 C.ar    1  UNL1        0.0033
     21 C           2.9833   76.2633   19.2620 C.ar    1  UNL1        0.0066
     22 C           2.8662   76.3653   20.6589 C.ar    1  UNL1        0.0785
     23 C           3.6114   75.4936   21.4745 C.ar    1  UNL1        0.0433
     24 C           1.9738   77.3781   21.2666 C.2     1  UNL1        0.3381
     25 O           2.2344   78.6070   21.1569 O.2     1  UNL1       -0.2451
     26 O           0.8350   76.9834   21.9643 O.3     1  UNL1       -0.4771
     27 H           0.2172   77.6687   22.3825 H       1  UNL1        0.2954
     28 C          12.3872   81.2652   24.4006 C.2     1  UNL1        0.2839
     29 O          13.1412   80.2558   24.4066 O.2     1  UNL1       -0.2665
     30 N          11.0102   81.1446   24.0021 N.am    1  UNL1       -0.2766
     31 H          10.4107   81.9983   24.0019 H       1  UNL1        0.1553
     32 C          13.1510   82.2835   27.3779 C.3     1  UNL1        0.0345
     33 C          13.2712   83.0166   26.0763 C.ar    1  UNL1        0.0202
     34 C          12.9582   82.5669   24.7873 C.ar    1  UNL1        0.1946
     35 O          13.2698   83.4932   23.8978 O.2     1  UNL1       -0.4492
     36 C          13.7452   84.5292   24.5447 C.ar    1  UNL1        0.1452
     37 C          14.1919   85.7309   24.0061 C.ar    1  UNL1        0.0375
     38 C          14.6686   86.7140   24.8909 C.ar    1  UNL1        0.0031
     39 C          14.6924   86.4827   26.2933 C.ar    1  UNL1        0.0002
     40 C          14.2289   85.2445   26.7998 C.ar    1  UNL1        0.0028
     41 C          13.7615   84.2937   25.8925 C.ar    1  UNL1        0.0337
     42 C          15.1980   87.5282   27.2185 C.ar    1  UNL1        0.0000
     43 C          14.6331   87.6852   28.4986 C.ar    1  UNL1        0.0000
     44 C          15.1113   88.6705   29.3679 C.ar    1  UNL1        0.0000
     45 C          16.1566   89.5076   28.9716 C.ar    1  UNL1        0.0000
     46 C          16.7259   89.3615   27.7047 C.ar    1  UNL1        0.0000
     47 C          16.2511   88.3786   26.8310 C.ar    1  UNL1        0.0000
@<TRIPOS>BOND
     1    32    33    1
     2    33    34   ar
     3    34    28    1
     4    28    29    2
     5    28    30   am
     6    30     1    1
     7     1     2   ar
     8     2     3   ar
     9     3     4   ar
    10     4     7    1
    11     7     8    1
    12     8     9    1
    13     9    10    1
    14    10    16    1
    15    16    17    1
    16    17    18    1
    17    18    19   ar
    18    19    20   ar
    19    20    21   ar
    20    21    22   ar
    21    22    24    1
    22    24    25    2
    23    24    26    1
    24    22    23   ar
    25    10    11    1
    26    11    13    1
    27    13    14    1
    28    13    15    1
    29    11    12    1
    30     4     5   ar
    31     5     6   ar
    32    34    35   ar
    33    35    36   ar
    34    36    37   ar
    35    37    38   ar
    36    38    39   ar
    37    39    42    1
    38    42    43   ar
    39    43    44   ar
    40    44    45   ar
    41    45    46   ar
    42    46    47   ar
    43    39    40   ar
    44    40    41   ar
    45    41    33   ar
    46     6     1   ar
    47    41    36   ar
    48    12     7    1
    49    47    42   ar
    50    23    18   ar
    51    30    31    1
    52    26    27    1
@<TRIPOS>MOLECULE
*****
 47 52 0 0 0
SMALL
GASTEIGER

@<TRIPOS>ATOM
      1 C          11.7870   81.0692   25.1253 C.ar    1  UNL1        0.0702
      2 C          13.1890   81.0118   25.1224 C.ar    1  UNL1        0.0191
      3 C          13.9347   82.1272   24.7378 C.ar    1  UNL1        0.0356
      4 C          13.2738   83.3095   24.3652 C.ar    1  UNL1        0.1318
      5 N          11.9131   83.3495   24.4081 N.ar    1  UNL1       -0.2279
      6 C          11.1671   82.2761   24.7802 C.ar    1  UNL1        0.1149
      7 N          14.0084   84.4843   23.9653 N.pl3   1  UNL1       -0.2932
      8 C          14.6914   84.4956   22.6659 C.3     1  UNL1        0.0923
      9 C          16.0283   85.2354   22.7679 C.3     1  UNL1        0.0252
     10 C          15.8689   86.6480   23.3772 C.3     1  UNL1        0.0471
     11 C          15.1729   86.5186   24.7725 C.3     1  UNL1        0.0235
     12 C          13.8298   85.7621   24.6695 C.3     1  UNL1        0.0922
     13 C          15.0730   87.8082   25.6578 C.3     1  UNL1        0.0018
     14 C          16.4046   88.5377   25.9205 C.3     1  UNL1        0.0001
     15 C          14.3034   87.5763   26.9666 C.3     1  UNL1        0.0001
     16 C          15.1782   87.6322   22.4034 C.3     1  UNL1        0.2054
     17 O          14.3692   86.9303   21.4541 O.3     1  UNL1       -0.4755
     18 C          13.5317   87.5004   20.4798 C.ar    1  UNL1        0.1388
     19 C          12.1985   87.7402   20.8298 C.ar    1  UNL1        0.0369
     20 C          11.3162   88.3173   19.9158 C.ar    1  UNL1        0.0033
     21 C          11.7548   88.6545   18.6346 C.ar    1  UNL1        0.0066
     22 C          13.0838   88.4063   18.2507 C.ar    1  UNL1        0.0785
     23 C          13.9663   87.8195   19.1766 C.ar    1  UNL1        0.0433
     24 C          13.5505   88.7536   16.8894 C.2     1  UNL1        0.3381
     25 O          12.7658   88.6738   15.9056 O.2     1  UNL1       -0.2451
     26 O          14.8617   89.1745   16.6820 O.3     1  UNL1       -0.4771
     27 H          15.1903   89.4159   15.7546 H       1  UNL1        0.2954
     28 C           9.9111   79.3957   24.7602 C.2     1  UNL1        0.2839
     29 O           9.6691   79.8331   23.6037 O.2     1  UNL1       -0.2665
     30 N          10.9827   79.9532   25.5415 N.am    1  UNL1       -0.2766
     31 H          11.1633   79.5677   26.4938 H       1  UNL1        0.1553
     32 C           8.2114   79.3131   27.5150 C.3     1  UNL1        0.0345
     33 C           8.3667   78.2439   26.4763 C.ar    1  UNL1        0.0202
     34 C           9.0869   78.2889   25.2760 C.ar    1  UNL1        0.1946
     35 O           8.9186   77.1625   24.6058 O.2     1  UNL1       -0.4492
     36 C           8.1471   76.3801   25.3203 C.ar    1  UNL1        0.1452
     37 C           7.7151   75.0975   25.0012 C.ar    1  UNL1        0.0375
     38 C           6.8824   74.4341   25.9194 C.ar    1  UNL1        0.0031
     39 C           6.4954   75.0591   27.1361 C.ar    1  UNL1        0.0002
     40 C           6.9573   76.3665   27.4215 C.ar    1  UNL1        0.0028
     41 C           7.7832   76.9931   26.4882 C.ar    1  UNL1        0.0337
     42 C           5.6156   74.3488   28.0986 C.ar    1  UNL1        0.0000
     43 C           5.0898   75.0212   29.2184 C.ar    1  UNL1        0.0000
     44 C           4.2614   74.3500   30.1231 C.ar    1  UNL1        0.0000
     45 C           3.9478   73.0042   29.9210 C.ar    1  UNL1        0.0000
     46 C           4.4624   72.3263   28.8136 C.ar    1  UNL1        0.0000
     47 C           5.2920   72.9922   27.9062 C.ar    1  UNL1        0.0000
@<TRIPOS>BOND
     1    32    33    1
     2    33    34   ar
     3    34    28    1
     4    28    29    2
     5    28    30   am
     6    30     1    1
     7     1     2   ar
     8     2     3   ar
     9     3     4   ar
    10     4     7    1
    11     7     8    1
    12     8     9    1
    13     9    10    1
    14    10    16    1
    15    16    17    1
    16    17    18    1
    17    18    19   ar
    18    19    20   ar
    19    20    21   ar
    20    21    22   ar
    21    22    24    1
    22    24    25    2
    23    24    26    1
    24    22    23   ar
    25    10    11    1
    26    11    13    1
    27    13    14    1
    28    13    15    1
    29    11    12    1
    30     4     5   ar
    31     5     6   ar
    32    34    35   ar
    33    35    36   ar
    34    36    37   ar
    35    37    38   ar
    36    38    39   ar
    37    39    42    1
    38    42    43   ar
    39    43    44   ar
    40    44    45   ar
    41    45    46   ar
    42    46    47   ar
    43    39    40   ar
    44    40    41   ar
    45    41    33   ar
    46     6     1   ar
    47    41    36   ar
    48    12     7    1
    49    47    42   ar
    50    23    18   ar
    51    30    31    1
    52    26    27    1
@<TRIPOS>MOLECULE
*****
 47 52 0 0 0
SMALL
GASTEIGER

@<TRIPOS>ATOM
      1 C          10.5339   81.2767   25.0306 C.ar    1  UNL1        0.0702
      2 C          10.4643   80.8398   26.3622 C.ar    1  UNL1        0.0191
      3 C           9.7038   79.7167   26.6919 C.ar    1  UNL1        0.0356
      4 C           9.0190   79.0210   25.6817 C.ar    1  UNL1        0.1318
      5 N           9.1294   79.4463   24.3926 N.ar    1  UNL1       -0.2279
      6 C           9.8649   80.5362   24.0487 C.ar    1  UNL1        0.1149
      7 N           8.2260   77.8542   25.9810 N.pl3   1  UNL1       -0.2932
      8 C           7.4016   77.2565   24.9235 C.3     1  UNL1        0.0923
      9 C           6.0732   76.7549   25.4967 C.3     1  UNL1        0.0252
     10 C           6.2776   75.8129   26.7062 C.3     1  UNL1        0.0471
     11 C           7.1275   76.5593   27.7872 C.3     1  UNL1        0.0235
     12 C           8.4623   77.0747   27.2045 C.3     1  UNL1        0.0922
     13 C           7.3058   75.8633   29.1803 C.3     1  UNL1        0.0018
     14 C           6.8530   76.6911   30.3986 C.3     1  UNL1        0.0001
     15 C           8.7193   75.3002   29.3904 C.3     1  UNL1        0.0001
     16 C           6.8394   74.4336   26.2870 C.3     1  UNL1        0.2054
     17 O           6.1823   73.9487   25.1117 O.3     1  UNL1       -0.4755
     18 C           6.7597   73.7583   23.8443 C.ar    1  UNL1        0.1388
     19 C           5.9182   73.8363   22.7293 C.ar    1  UNL1        0.0369
     20 C           6.4280   73.6718   21.4410 C.ar    1  UNL1        0.0033
     21 C           7.7871   73.4178   21.2515 C.ar    1  UNL1        0.0066
     22 C           8.6509   73.3149   22.3554 C.ar    1  UNL1        0.0785
     23 C           8.1283   73.4774   23.6519 C.ar    1  UNL1        0.0433
     24 C          10.0915   73.0360   22.1593 C.2     1  UNL1        0.3381
     25 O          10.5688   71.9062   22.4519 O.2     1  UNL1       -0.2451
     26 O          10.9344   74.0191   21.6471 O.3     1  UNL1       -0.4771
     27 H          11.9213   73.8377   21.5078 H       1  UNL1        0.2954
     28 C          12.7665   82.4237   24.6398 C.2     1  UNL1        0.2839
     29 O          13.4158   81.3799   24.9161 O.2     1  UNL1       -0.2665
     30 N          11.3280   82.4107   24.6446 N.am    1  UNL1       -0.2766
     31 H          10.8169   83.2884   24.4068 H       1  UNL1        0.1553
     32 C          15.5570   82.6285   23.0101 C.3     1  UNL1        0.0345
     33 C          14.7339   83.7318   23.6028 C.ar    1  UNL1        0.0202
     34 C          13.5171   83.6423   24.2906 C.ar    1  UNL1        0.1946
     35 O          13.0801   84.8518   24.5945 O.2     1  UNL1       -0.4492
     36 C          13.9620   85.7193   24.1616 C.ar    1  UNL1        0.1452
     37 C          13.9102   87.1046   24.2708 C.ar    1  UNL1        0.0375
     38 C          14.9720   87.8495   23.7283 C.ar    1  UNL1        0.0031
     39 C          16.0637   87.2026   23.0878 C.ar    1  UNL1        0.0002
     40 C          16.0765   85.7898   22.9977 C.ar    1  UNL1        0.0028
     41 C          15.0072   85.0836   23.5487 C.ar    1  UNL1        0.0337
     42 C          17.1799   87.9995   22.5185 C.ar    1  UNL1        0.0000
     43 C          18.2997   88.3277   23.3064 C.ar    1  UNL1        0.0000
     44 C          19.3495   89.0780   22.7677 C.ar    1  UNL1        0.0000
     45 C          19.2948   89.5076   21.4400 C.ar    1  UNL1        0.0000
     46 C          18.1899   89.1880   20.6479 C.ar    1  UNL1        0.0000
     47 C          17.1369   88.4387   21.1815 C.ar    1  UNL1        0.0000
@<TRIPOS>BOND
     1    32    33    1
     2    33    34   ar
     3    34    28    1
     4    28    29    2
     5    28    30   am
     6    30     1    1
     7     1     2   ar
     8     2     3   ar
     9     3     4   ar
    10     4     7    1
    11     7     8    1
    12     8     9    1
    13     9    10    1
    14    10    16    1
    15    16    17    1
    16    17    18    1
    17    18    19   ar
    18    19    20   ar
    19    20    21   ar
    20    21    22   ar
    21    22    24    1
    22    24    25    2
    23    24    26    1
    24    22    23   ar
    25    10    11    1
    26    11    13    1
    27    13    14    1
    28    13    15    1
    29    11    12    1
    30     4     5   ar
    31     5     6   ar
    32    34    35   ar
    33    35    36   ar
    34    36    37   ar
    35    37    38   ar
    36    38    39   ar
    37    39    42    1
    38    42    43   ar
    39    43    44   ar
    40    44    45   ar
    41    45    46   ar
    42    46    47   ar
    43    39    40   ar
    44    40    41   ar
    45    41    33   ar
    46     6     1   ar
    47    41    36   ar
    48    12     7    1
    49    47    42   ar
    50    23    18   ar
    51    30    31    1
    52    26    27    1
@<TRIPOS>MOLECULE
*****
 47 52 0 0 0
SMALL
GASTEIGER

@<TRIPOS>ATOM
      1 C          10.8954   79.8850   24.1469 C.ar    1  UNL1        0.0702
      2 C           9.8789   79.6878   23.2001 C.ar    1  UNL1        0.0191
      3 C           9.0018   78.6096   23.3286 C.ar    1  UNL1        0.0356
      4 C           9.1360   77.7312   24.4167 C.ar    1  UNL1        0.1318
      5 N          10.1104   77.9637   25.3395 N.ar    1  UNL1       -0.2279
      6 C          10.9745   79.0075   25.2349 C.ar    1  UNL1        0.1149
      7 N           8.2477   76.6080   24.5869 N.pl3   1  UNL1       -0.2932
      8 C           8.8110   75.2556   24.6811 C.3     1  UNL1        0.0923
      9 C           7.9106   74.2471   23.9620 C.3     1  UNL1        0.0252
     10 C           6.4439   74.3241   24.4470 C.3     1  UNL1        0.0471
     11 C           5.9297   75.7904   24.2637 C.3     1  UNL1        0.0235
     12 C           6.8456   76.8076   24.9802 C.3     1  UNL1        0.0922
     13 C           4.4076   76.0645   24.5186 C.3     1  UNL1        0.0018
     14 C           3.5790   76.4204   23.2692 C.3     1  UNL1        0.0001
     15 C           4.1637   77.0757   25.6488 C.3     1  UNL1        0.0001
     16 C           6.2679   73.7553   25.8751 C.3     1  UNL1        0.2054
     17 O           5.9097   74.7892   26.7977 O.3     1  UNL1       -0.4755
     18 C           6.2882   74.8779   28.1485 C.ar    1  UNL1        0.1388
     19 C           7.2670   73.9901   28.6079 C.ar    1  UNL1        0.0369
     20 C           7.6999   74.0330   29.9336 C.ar    1  UNL1        0.0033
     21 C           7.1518   74.9603   30.8208 C.ar    1  UNL1        0.0066
     22 C           6.1529   75.8504   30.3904 C.ar    1  UNL1        0.0785
     23 C           5.7182   75.7978   29.0530 C.ar    1  UNL1        0.0433
     24 C           5.5619   76.8291   31.3307 C.2     1  UNL1        0.3381
     25 O           4.3487   77.1580   31.2313 O.2     1  UNL1       -0.2451
     26 O           6.3404   77.3953   32.3372 O.3     1  UNL1       -0.4771
     27 H           5.9450   78.0648   32.9866 H       1  UNL1        0.2954
     28 C          11.7390   82.1512   24.9253 C.2     1  UNL1        0.2839
     29 O          10.9010   82.2041   25.8647 O.2     1  UNL1       -0.2665
     30 N          11.8010   80.9982   24.0673 N.am    1  UNL1       -0.2766
     31 H          12.5084   80.9799   23.3009 H       1  UNL1        0.1553
     32 C          13.9719   83.2283   27.0082 C.3     1  UNL1        0.0345
     33 C          13.6157   83.7645   25.6548 C.ar    1  UNL1        0.0202
     34 C          12.6626   83.2850   24.7474 C.ar    1  UNL1        0.1946
     35 O          12.6997   83.9973   23.6350 O.2     1  UNL1       -0.4492
     36 C          13.6096   84.9288   23.7833 C.ar    1  UNL1        0.1452
     37 C          13.9788   85.9048   22.8641 C.ar    1  UNL1        0.0375
     38 C          14.9896   86.8098   23.2327 C.ar    1  UNL1        0.0031
     39 C          15.6136   86.7262   24.5072 C.ar    1  UNL1        0.0002
     40 C          15.2080   85.7164   25.4129 C.ar    1  UNL1        0.0028
     41 C          14.2011   84.8376   25.0137 C.ar    1  UNL1        0.0337
     42 C          16.6801   87.6875   24.8858 C.ar    1  UNL1        0.0000
     43 C          16.5920   88.4181   26.0862 C.ar    1  UNL1        0.0000
     44 C          17.5979   89.3225   26.4405 C.ar    1  UNL1        0.0000
     45 C          18.7009   89.5072   25.6039 C.ar    1  UNL1        0.0000
     46 C          18.8003   88.7879   24.4109 C.ar    1  UNL1        0.0000
     47 C          17.7970   87.8829   24.0512 C.ar    1  UNL1        0.0000
@<TRIPOS>BOND
     1    32    33    1
     2    33    34   ar
     3    34    28    1
     4    28    29    2
     5    28    30   am
     6    30     1    1
     7     1     2   ar
     8     2     3   ar
     9     3     4   ar
    10     4     7    1
    11     7     8    1
    12     8     9    1
    13     9    10    1
    14    10    16    1
    15    16    17    1
    16    17    18    1
    17    18    19   ar
    18    19    20   ar
    19    20    21   ar
    20    21    22   ar
    21    22    24    1
    22    24    25    2
    23    24    26    1
    24    22    23   ar
    25    10    11    1
    26    11    13    1
    27    13    14    1
    28    13    15    1
    29    11    12    1
    30     4     5   ar
    31     5     6   ar
    32    34    35   ar
    33    35    36   ar
    34    36    37   ar
    35    37    38   ar
    36    38    39   ar
    37    39    42    1
    38    42    43   ar
    39    43    44   ar
    40    44    45   ar
    41    45    46   ar
    42    46    47   ar
    43    39    40   ar
    44    40    41   ar
    45    41    33   ar
    46     6     1   ar
    47    41    36   ar
    48    12     7    1
    49    47    42   ar
    50    23    18   ar
    51    30    31    1
    52    26    27    1
@<TRIPOS>MOLECULE
*****
 47 52 0 0 0
SMALL
GASTEIGER

@<TRIPOS>ATOM
      1 C          10.8934   79.8643   24.0671 C.ar    1  UNL1        0.0702
      2 C           9.9237   79.6599   23.0737 C.ar    1  UNL1        0.0191
      3 C           9.0499   78.5749   23.1607 C.ar    1  UNL1        0.0356
      4 C           9.1399   77.6968   24.2535 C.ar    1  UNL1        0.1318
      5 N          10.0682   77.9361   25.2210 N.ar    1  UNL1       -0.2279
      6 C          10.9282   78.9866   25.1573 C.ar    1  UNL1        0.1149
      7 N           8.2532   76.5667   24.3816 N.pl3   1  UNL1       -0.2932
      8 C           8.8159   75.2108   24.3921 C.3     1  UNL1        0.0923
      9 C           7.8993   74.2428   23.6387 C.3     1  UNL1        0.0252
     10 C           6.4429   74.2948   24.1570 C.3     1  UNL1        0.0471
     11 C           5.9277   75.7691   24.0626 C.3     1  UNL1        0.0235
     12 C           6.8597   76.7460   24.8135 C.3     1  UNL1        0.0922
     13 C           4.4116   76.0303   24.3628 C.3     1  UNL1        0.0018
     14 C           3.5493   76.4096   23.1434 C.3     1  UNL1        0.0001
     15 C           4.1928   77.0151   25.5210 C.3     1  UNL1        0.0001
     16 C           6.2949   73.6507   25.5559 C.3     1  UNL1        0.2054
     17 O           6.2608   74.6507   26.5792 O.3     1  UNL1       -0.4755
     18 C           6.6298   74.4878   27.9258 C.ar    1  UNL1        0.1388
     19 C           5.6252   74.6041   28.8926 C.ar    1  UNL1        0.0369
     20 C           5.9191   74.4396   30.2466 C.ar    1  UNL1        0.0033
     21 C           7.2258   74.1648   30.6523 C.ar    1  UNL1        0.0066
     22 C           8.2574   74.0623   29.7033 C.ar    1  UNL1        0.0785
     23 C           7.9538   74.2342   28.3400 C.ar    1  UNL1        0.0433
     24 C           9.6465   73.7805   30.1303 C.2     1  UNL1        0.3381
     25 O          10.6195   74.3121   29.5298 O.2     1  UNL1       -0.2451
     26 O           9.8928   72.9262   31.2022 O.3     1  UNL1       -0.4771
     27 H          10.8397   72.7281   31.5031 H       1  UNL1        0.2954
     28 C          11.6627   82.1511   24.8617 C.2     1  UNL1        0.2839
     29 O          10.7617   82.2120   25.7403 O.2     1  UNL1       -0.2665
     30 N          11.7930   80.9844   24.0302 N.am    1  UNL1       -0.2766
     31 H          12.5516   80.9598   23.3146 H       1  UNL1        0.1553
     32 C          13.8450   83.1909   27.0160 C.3     1  UNL1        0.0345
     33 C          13.5180   83.7535   25.6659 C.ar    1  UNL1        0.0202
     34 C          12.5870   83.2904   24.7277 C.ar    1  UNL1        0.1946
     35 O          12.6473   84.0251   23.6310 O.2     1  UNL1       -0.4492
     36 C          13.5511   84.9555   23.8187 C.ar    1  UNL1        0.1452
     37 C          13.9384   85.9508   22.9280 C.ar    1  UNL1        0.0375
     38 C          14.9381   86.8504   23.3377 C.ar    1  UNL1        0.0031
     39 C          15.5333   86.7424   24.6240 C.ar    1  UNL1        0.0002
     40 C          15.1101   85.7136   25.4997 C.ar    1  UNL1        0.0028
     41 C          14.1149   84.8407   25.0601 C.ar    1  UNL1        0.0337
     42 C          16.5884   87.6982   25.0461 C.ar    1  UNL1        0.0000
     43 C          16.4810   88.3892   26.2682 C.ar    1  UNL1        0.0000
     44 C          17.4761   89.2885   26.6633 C.ar    1  UNL1        0.0000
     45 C          18.5874   89.5076   25.8464 C.ar    1  UNL1        0.0000
     46 C          18.7060   88.8279   24.6321 C.ar    1  UNL1        0.0000
     47 C          17.7136   87.9281   24.2316 C.ar    1  UNL1        0.0000
@<TRIPOS>BOND
     1    32    33    1
     2    33    34   ar
     3    34    28    1
     4    28    29    2
     5    28    30   am
     6    30     1    1
     7     1     2   ar
     8     2     3   ar
     9     3     4   ar
    10     4     7    1
    11     7     8    1
    12     8     9    1
    13     9    10    1
    14    10    16    1
    15    16    17    1
    16    17    18    1
    17    18    19   ar
    18    19    20   ar
    19    20    21   ar
    20    21    22   ar
    21    22    24    1
    22    24    25    2
    23    24    26    1
    24    22    23   ar
    25    10    11    1
    26    11    13    1
    27    13    14    1
    28    13    15    1
    29    11    12    1
    30     4     5   ar
    31     5     6   ar
    32    34    35   ar
    33    35    36   ar
    34    36    37   ar
    35    37    38   ar
    36    38    39   ar
    37    39    42    1
    38    42    43   ar
    39    43    44   ar
    40    44    45   ar
    41    45    46   ar
    42    46    47   ar
    43    39    40   ar
    44    40    41   ar
    45    41    33   ar
    46     6     1   ar
    47    41    36   ar
    48    12     7    1
    49    47    42   ar
    50    23    18   ar
    51    30    31    1
    52    26    27    1
