@<TRIPOS>MOLECULE
*****
 28 30 0 0 0
SMALL
GASTEIGER

@<TRIPOS>ATOM
      1 C         -17.5336    2.0297  -12.5081 C.ar    1  UNL1        0.1719
      2 C         -18.1277    0.8544  -13.0080 C.ar    1  UNL1        0.0397
      3 C         -19.5101    0.6729  -12.9299 C.ar    1  UNL1       -0.0009
      4 C         -20.3254    1.6660  -12.3705 C.ar    1  UNL1       -0.0176
      5 C         -19.7409    2.8557  -11.9106 C.ar    1  UNL1        0.0356
      6 C         -18.3527    3.0381  -11.9806 C.ar    1  UNL1        0.1674
      7 O         -17.7756    4.2164  -11.5099 O.3     1  UNL1       -0.5029
      8 H         -18.3375    4.9624  -11.1167 H       1  UNL1        0.2923
      9 O         -16.1424    2.2322  -12.5047 O.3     1  UNL1       -0.4720
     10 C         -15.1579    1.2952  -12.9524 C.3     1  UNL1        0.2118
     11 C         -14.0555    1.9859  -13.7673 C.3     1  UNL1        0.0931
     12 C         -14.3406    0.9999  -17.9280 C.ar    1  UNL1       -0.0030
     13 C         -14.7646    0.0698  -16.9696 C.ar    1  UNL1       -0.0015
     14 C         -14.6446    0.3628  -15.6108 C.ar    1  UNL1        0.0145
     15 C         -14.0965    1.5922  -15.2162 C.ar    1  UNL1        0.0627
     16 N         -13.6699    2.4726  -16.1629 N.ar    1  UNL1       -0.2484
     17 C         -13.7667    2.2030  -17.4920 C.ar    1  UNL1        0.0941
     18 C         -14.3490   -0.8062  -19.6460 C.3     1  UNL1        0.0051
     19 C         -14.4586    0.6940  -19.3961 C.3     1  UNL1        0.0279
     20 C         -21.8173    1.4632  -12.2887 C.3     1  UNL1        0.0469
     21 C         -22.5256    2.6433  -11.6042 C.3     1  UNL1        0.1369
     22 S         -24.0087    3.1144  -12.5895 S.3     1  UNL1       -0.0482
     23 C         -25.0713    2.6073  -11.2476 C.2     1  UNL1        0.2792
     24 O         -26.3246    2.5727  -11.3534 O.2     1  UNL1       -0.2625
     25 N         -24.4115    2.2308  -10.0577 N.am    1  UNL1       -0.2460
     26 C         -23.0085    2.2871  -10.2269 C.2     1  UNL1        0.2392
     27 O         -22.2230    2.0733   -9.2659 O.2     1  UNL1       -0.2737
     28 H         -24.8930    1.9559   -9.1726 H       1  UNL1        0.1583
@<TRIPOS>BOND
     1    18    19    1
     2    19    12    1
     3    12    13   ar
     4    13    14   ar
     5    14    15   ar
     6    15    11    1
     7    11    10    1
     8    10     9    1
     9     9     1    1
    10     1     2   ar
    11     2     3   ar
    12     3     4   ar
    13     4    20    1
    14    20    21    1
    15    21    22    1
    16    22    23    1
    17    23    24    2
    18    23    25   am
    19    25    26   am
    20    26    27    2
    21     4     5   ar
    22     5     6   ar
    23     6     7    1
    24    15    16   ar
    25    16    17   ar
    26    17    12   ar
    27     6     1   ar
    28    26    21    1
    29    25    28    1
    30     7     8    1
@<TRIPOS>MOLECULE
*****
 28 30 0 0 0
SMALL
GASTEIGER

@<TRIPOS>ATOM
      1 C         -14.4500    1.4154  -14.2670 C.ar    1  UNL1        0.1719
      2 C         -13.6512    2.3789  -14.9135 C.ar    1  UNL1        0.0397
      3 C         -13.3118    2.2276  -16.2596 C.ar    1  UNL1       -0.0009
      4 C         -13.7775    1.1252  -16.9889 C.ar    1  UNL1       -0.0176
      5 C         -14.6082    0.1864  -16.3588 C.ar    1  UNL1        0.0356
      6 C         -14.9448    0.3311  -15.0057 C.ar    1  UNL1        0.1674
      7 O         -15.7595   -0.6116  -14.3808 O.3     1  UNL1       -0.5029
      8 H         -16.1285   -1.4104  -14.8835 H       1  UNL1        0.2923
      9 O         -14.7658    1.4886  -12.8990 O.3     1  UNL1       -0.4720
     10 C         -15.9273    2.1089  -12.3389 C.3     1  UNL1        0.2118
     11 C         -16.7965    1.0938  -11.5836 C.3     1  UNL1        0.0931
     12 C         -21.0149    1.7773  -11.9042 C.ar    1  UNL1       -0.0030
     13 C         -20.4242    0.7538  -12.6574 C.ar    1  UNL1       -0.0015
     14 C         -19.0467    0.5430  -12.5902 C.ar    1  UNL1        0.0145
     15 C         -18.2628    1.3634  -11.7655 C.ar    1  UNL1        0.0627
     16 N         -18.8532    2.3664  -11.0592 N.ar    1  UNL1       -0.2484
     17 C         -20.1918    2.5971  -11.1185 C.ar    1  UNL1        0.0941
     18 C         -23.0704    2.2619  -10.5799 C.3     1  UNL1        0.0051
     19 C         -22.4981    2.0192  -11.9722 C.3     1  UNL1        0.0279
     20 C         -13.4065    0.9677  -18.4419 C.3     1  UNL1        0.0469
     21 C         -14.5749    0.4283  -19.2827 C.3     1  UNL1        0.1369
     22 S         -14.8423    1.5357  -20.7299 S.3     1  UNL1       -0.0482
     23 C         -14.3576    0.2208  -21.8359 C.2     1  UNL1        0.2792
     24 O         -14.2114    0.3972  -23.0731 O.2     1  UNL1       -0.2625
     25 N         -14.1324   -1.0335  -21.2285 N.am    1  UNL1       -0.2460
     26 C         -14.2906   -0.9432  -19.8259 C.2     1  UNL1        0.2392
     27 O         -14.2193   -1.9636  -19.0910 O.2     1  UNL1       -0.2737
     28 H         -13.8900   -1.9086  -21.7444 H       1  UNL1        0.1583
@<TRIPOS>BOND
     1    18    19    1
     2    19    12    1
     3    12    13   ar
     4    13    14   ar
     5    14    15   ar
     6    15    11    1
     7    11    10    1
     8    10     9    1
     9     9     1    1
    10     1     2   ar
    11     2     3   ar
    12     3     4   ar
    13     4    20    1
    14    20    21    1
    15    21    22    1
    16    22    23    1
    17    23    24    2
    18    23    25   am
    19    25    26   am
    20    26    27    2
    21     4     5   ar
    22     5     6   ar
    23     6     7    1
    24    15    16   ar
    25    16    17   ar
    26    17    12   ar
    27     6     1   ar
    28    26    21    1
    29    25    28    1
    30     7     8    1
@<TRIPOS>MOLECULE
*****
 28 30 0 0 0
SMALL
GASTEIGER

@<TRIPOS>ATOM
      1 C         -25.4227  -13.1641  -14.3491 C.ar    1  UNL1        0.1719
      2 C         -25.1380  -13.3385  -12.9806 C.ar    1  UNL1        0.0397
      3 C         -24.8487  -12.2366  -12.1729 C.ar    1  UNL1       -0.0009
      4 C         -24.8569  -10.9421  -12.7096 C.ar    1  UNL1       -0.0176
      5 C         -25.1820  -10.7618  -14.0625 C.ar    1  UNL1        0.0356
      6 C         -25.4655  -11.8662  -14.8780 C.ar    1  UNL1        0.1674
      7 O         -25.7747  -11.6827  -16.2247 O.3     1  UNL1       -0.5029
      8 H         -25.8078  -10.7592  -16.6405 H       1  UNL1        0.2923
      9 O         -25.6567  -14.2450  -15.2172 O.3     1  UNL1       -0.4720
     10 C         -24.6886  -14.8545  -16.0767 C.3     1  UNL1        0.2118
     11 C         -23.2768  -14.7709  -15.4800 C.3     1  UNL1        0.0931
     12 C         -21.6736  -10.8268  -15.9695 C.ar    1  UNL1       -0.0030
     13 C         -22.2501  -11.4769  -17.0689 C.ar    1  UNL1       -0.0015
     14 C         -22.7438  -12.7747  -16.9330 C.ar    1  UNL1        0.0145
     15 C         -22.6563  -13.4193  -15.6903 C.ar    1  UNL1        0.0627
     16 N         -22.0724  -12.7786  -14.6406 N.ar    1  UNL1       -0.2484
     17 C         -21.5744  -11.5185  -14.7535 C.ar    1  UNL1        0.0941
     18 C         -22.2597   -8.4350  -16.3556 C.3     1  UNL1        0.0051
     19 C         -21.1319   -9.4299  -16.1039 C.3     1  UNL1        0.0279
     20 C         -24.5430   -9.7569  -11.8319 C.3     1  UNL1        0.0469
     21 C         -23.9202  -10.1780  -10.4911 C.3     1  UNL1        0.1369
     22 S         -22.2757   -9.3695  -10.3060 S.3     1  UNL1       -0.0482
     23 C         -22.8886   -8.4210   -8.9233 C.2     1  UNL1        0.2792
     24 O         -22.2134   -7.5124   -8.3741 O.2     1  UNL1       -0.2625
     25 N         -24.1929   -8.7466   -8.4922 N.am    1  UNL1       -0.2460
     26 C         -24.7571   -9.7439   -9.3214 C.2     1  UNL1        0.2392
     27 O         -25.8837  -10.2468   -9.0685 O.2     1  UNL1       -0.2737
     28 H         -24.6719   -8.3159   -7.6702 H       1  UNL1        0.1583
@<TRIPOS>BOND
     1    18    19    1
     2    19    12    1
     3    12    13   ar
     4    13    14   ar
     5    14    15   ar
     6    15    11    1
     7    11    10    1
     8    10     9    1
     9     9     1    1
    10     1     2   ar
    11     2     3   ar
    12     3     4   ar
    13     4    20    1
    14    20    21    1
    15    21    22    1
    16    22    23    1
    17    23    24    2
    18    23    25   am
    19    25    26   am
    20    26    27    2
    21     4     5   ar
    22     5     6   ar
    23     6     7    1
    24    15    16   ar
    25    16    17   ar
    26    17    12   ar
    27     6     1   ar
    28    26    21    1
    29    25    28    1
    30     7     8    1
@<TRIPOS>MOLECULE
*****
 28 30 0 0 0
SMALL
GASTEIGER

@<TRIPOS>ATOM
      1 C         -21.5892  -11.5297  -14.5410 C.ar    1  UNL1        0.1719
      2 C         -21.8356  -10.1655  -14.2912 C.ar    1  UNL1        0.0397
      3 C         -21.8896   -9.6853  -12.9810 C.ar    1  UNL1       -0.0009
      4 C         -21.6803  -10.5511  -11.8991 C.ar    1  UNL1       -0.0176
      5 C         -21.3925  -11.9018  -12.1463 C.ar    1  UNL1        0.0356
      6 C         -21.3450  -12.3889  -13.4600 C.ar    1  UNL1        0.1674
      7 O         -21.0719  -13.7346  -13.6998 O.3     1  UNL1       -0.5029
      8 H         -20.8974  -14.3839  -12.9415 H       1  UNL1        0.2923
      9 O         -21.5887  -12.0739  -15.8373 O.3     1  UNL1       -0.4720
     10 C         -21.9214  -11.3740  -17.0402 C.3     1  UNL1        0.2118
     11 C         -23.2108  -11.9202  -17.6690 C.3     1  UNL1        0.0931
     12 C         -25.7350  -13.4656  -14.5697 C.ar    1  UNL1       -0.0030
     13 C         -25.0040  -14.3543  -15.3692 C.ar    1  UNL1       -0.0015
     14 C         -24.2059  -13.8675  -16.4049 C.ar    1  UNL1        0.0145
     15 C         -24.1443  -12.4855  -16.6370 C.ar    1  UNL1        0.0627
     16 N         -24.8797  -11.6408  -15.8631 N.ar    1  UNL1       -0.2484
     17 C         -25.6728  -12.0940  -14.8561 C.ar    1  UNL1        0.0941
     18 C         -25.8305  -14.0157  -12.1403 C.3     1  UNL1        0.0051
     19 C         -26.6042  -13.9776  -13.4538 C.3     1  UNL1        0.0279
     20 C         -21.7407  -10.0261  -10.4869 C.3     1  UNL1        0.0469
     21 C         -22.9730   -9.1380  -10.2514 C.3     1  UNL1        0.1369
     22 S         -24.4862  -10.0503  -10.7713 S.3     1  UNL1       -0.0482
     23 C         -25.0572  -10.0832   -9.0803 C.2     1  UNL1        0.2792
     24 O         -26.0796  -10.7244   -8.7241 O.2     1  UNL1       -0.2625
     25 N         -24.2757   -9.3523   -8.1595 N.am    1  UNL1       -0.2460
     26 C         -23.1467   -8.7906   -8.8002 C.2     1  UNL1        0.2392
     27 O         -22.3563   -8.0267   -8.1853 O.2     1  UNL1       -0.2737
     28 H         -24.5036   -9.2363   -7.1470 H       1  UNL1        0.1583
@<TRIPOS>BOND
     1    18    19    1
     2    19    12    1
     3    12    13   ar
     4    13    14   ar
     5    14    15   ar
     6    15    11    1
     7    11    10    1
     8    10     9    1
     9     9     1    1
    10     1     2   ar
    11     2     3   ar
    12     3     4   ar
    13     4    20    1
    14    20    21    1
    15    21    22    1
    16    22    23    1
    17    23    24    2
    18    23    25   am
    19    25    26   am
    20    26    27    2
    21     4     5   ar
    22     5     6   ar
    23     6     7    1
    24    15    16   ar
    25    16    17   ar
    26    17    12   ar
    27     6     1   ar
    28    26    21    1
    29    25    28    1
    30     7     8    1
@<TRIPOS>MOLECULE
*****
 28 30 0 0 0
SMALL
GASTEIGER

@<TRIPOS>ATOM
      1 C         -25.0151  -12.2167  -13.7626 C.ar    1  UNL1        0.1719
      2 C         -24.3452  -12.2787  -12.5250 C.ar    1  UNL1        0.0397
      3 C         -23.9753  -11.1066  -11.8621 C.ar    1  UNL1       -0.0009
      4 C         -24.2828   -9.8542  -12.4107 C.ar    1  UNL1       -0.0176
      5 C         -24.9875   -9.7896  -13.6221 C.ar    1  UNL1        0.0356
      6 C         -25.3538  -10.9641  -14.2941 C.ar    1  UNL1        0.1674
      7 O         -26.0420  -10.8943  -15.5042 O.3     1  UNL1       -0.5029
      8 H         -26.2964  -10.0057  -15.9195 H       1  UNL1        0.2923
      9 O         -25.3515  -13.3658  -14.4996 O.3     1  UNL1       -0.4720
     10 C         -24.5461  -14.5408  -14.6341 C.3     1  UNL1        0.2118
     11 C         -23.6540  -14.4699  -15.8813 C.3     1  UNL1        0.0931
     12 C         -21.9333  -10.5545  -16.1531 C.ar    1  UNL1       -0.0030
     13 C         -22.8465  -10.9743  -17.1295 C.ar    1  UNL1       -0.0015
     14 C         -23.3874  -12.2592  -17.0736 C.ar    1  UNL1        0.0145
     15 C         -23.0083  -13.1226  -16.0352 C.ar    1  UNL1        0.0627
     16 N         -22.1026  -12.7030  -15.1094 N.ar    1  UNL1       -0.2484
     17 C         -21.5542  -11.4596  -15.1511 C.ar    1  UNL1        0.0941
     18 C         -22.4328   -8.1162  -16.2914 C.3     1  UNL1        0.0051
     19 C         -21.3379   -9.1740  -16.2051 C.3     1  UNL1        0.0279
     20 C         -23.8797   -8.5927  -11.6899 C.3     1  UNL1        0.0469
     21 C         -22.8548   -8.8638  -10.5768 C.3     1  UNL1        0.1369
     22 S         -21.4704   -7.6576  -10.7204 S.3     1  UNL1       -0.0482
     23 C         -21.9304   -6.9310   -9.1560 C.2     1  UNL1        0.2792
     24 O         -21.3856   -5.8890   -8.7080 O.2     1  UNL1       -0.2625
     25 N         -22.9610   -7.5950   -8.4561 N.am    1  UNL1       -0.2460
     26 C         -23.4504   -8.6878   -9.2089 C.2     1  UNL1        0.2392
     27 O         -24.3158   -9.4728   -8.7387 O.2     1  UNL1       -0.2737
     28 H         -23.3087   -7.3216   -7.5100 H       1  UNL1        0.1583
@<TRIPOS>BOND
     1    18    19    1
     2    19    12    1
     3    12    13   ar
     4    13    14   ar
     5    14    15   ar
     6    15    11    1
     7    11    10    1
     8    10     9    1
     9     9     1    1
    10     1     2   ar
    11     2     3   ar
    12     3     4   ar
    13     4    20    1
    14    20    21    1
    15    21    22    1
    16    22    23    1
    17    23    24    2
    18    23    25   am
    19    25    26   am
    20    26    27    2
    21     4     5   ar
    22     5     6   ar
    23     6     7    1
    24    15    16   ar
    25    16    17   ar
    26    17    12   ar
    27     6     1   ar
    28    26    21    1
    29    25    28    1
    30     7     8    1
@<TRIPOS>MOLECULE
*****
 28 30 0 0 0
SMALL
GASTEIGER

@<TRIPOS>ATOM
      1 C         -23.5183  -12.8550  -13.4374 C.ar    1  UNL1        0.1719
      2 C         -24.3690  -11.9569  -12.7636 C.ar    1  UNL1        0.0397
      3 C         -23.8397  -10.8621  -12.0770 C.ar    1  UNL1       -0.0009
      4 C         -22.4572  -10.6327  -12.0659 C.ar    1  UNL1       -0.0176
      5 C         -21.6114  -11.5015  -12.7717 C.ar    1  UNL1        0.0356
      6 C         -22.1386  -12.6058  -13.4558 C.ar    1  UNL1        0.1674
      7 O         -21.2925  -13.4736  -14.1443 O.3     1  UNL1       -0.5029
      8 H         -20.2902  -13.3266  -14.1722 H       1  UNL1        0.2923
      9 O         -23.9957  -14.0061  -14.0882 O.3     1  UNL1       -0.4720
     10 C         -25.0167  -14.0399  -15.0902 C.3     1  UNL1        0.2118
     11 C         -24.4438  -13.7526  -16.4850 C.3     1  UNL1        0.0931
     12 C         -22.1520  -10.1325  -16.3966 C.ar    1  UNL1       -0.0030
     13 C         -23.5348  -10.0773  -16.1765 C.ar    1  UNL1       -0.0015
     14 C         -24.2990  -11.2431  -16.2377 C.ar    1  UNL1        0.0145
     15 C         -23.6714  -12.4650  -16.5217 C.ar    1  UNL1        0.0627
     16 N         -22.3304  -12.4935  -16.7545 N.ar    1  UNL1       -0.2484
     17 C         -21.5684  -11.3683  -16.7113 C.ar    1  UNL1        0.0941
     18 C         -21.5092   -8.1647  -15.0080 C.3     1  UNL1        0.0051
     19 C         -21.3175   -8.8823  -16.3397 C.3     1  UNL1        0.0279
     20 C         -21.8924   -9.4490  -11.3220 C.3     1  UNL1        0.0469
     21 C         -21.5411   -9.7941   -9.8658 C.3     1  UNL1        0.1369
     22 S         -19.8868   -9.0941   -9.4590 S.3     1  UNL1       -0.0482
     23 C         -20.6373   -7.9851   -8.2785 C.2     1  UNL1        0.2792
     24 O         -19.9870   -7.0830   -7.6898 O.2     1  UNL1       -0.2625
     25 N         -22.0185   -8.1756   -8.0571 N.am    1  UNL1       -0.2460
     26 C         -22.5207   -9.1986   -8.8948 C.2     1  UNL1        0.2392
     27 O         -23.7131   -9.5938   -8.8044 O.2     1  UNL1       -0.2737
     28 H         -22.5888   -7.6402   -7.3652 H       1  UNL1        0.1583
@<TRIPOS>BOND
     1    18    19    1
     2    19    12    1
     3    12    13   ar
     4    13    14   ar
     5    14    15   ar
     6    15    11    1
     7    11    10    1
     8    10     9    1
     9     9     1    1
    10     1     2   ar
    11     2     3   ar
    12     3     4   ar
    13     4    20    1
    14    20    21    1
    15    21    22    1
    16    22    23    1
    17    23    24    2
    18    23    25   am
    19    25    26   am
    20    26    27    2
    21     4     5   ar
    22     5     6   ar
    23     6     7    1
    24    15    16   ar
    25    16    17   ar
    26    17    12   ar
    27     6     1   ar
    28    26    21    1
    29    25    28    1
    30     7     8    1
@<TRIPOS>MOLECULE
*****
 28 30 0 0 0
SMALL
GASTEIGER

@<TRIPOS>ATOM
      1 C         -24.9189  -12.6887  -14.1611 C.ar    1  UNL1        0.1719
      2 C         -24.5873  -12.6720  -12.7922 C.ar    1  UNL1        0.0397
      3 C         -24.5174  -11.4632  -12.0966 C.ar    1  UNL1       -0.0009
      4 C         -24.7950  -10.2534  -12.7472 C.ar    1  UNL1       -0.0176
      5 C         -25.1671  -10.2709  -14.0999 C.ar    1  UNL1        0.0356
      6 C         -25.2309  -11.4819  -14.8032 C.ar    1  UNL1        0.1674
      7 O         -25.5880  -11.4925  -16.1505 O.3     1  UNL1       -0.5029
      8 H         -25.8131  -10.6379  -16.6466 H       1  UNL1        0.2923
      9 O         -24.9397  -13.8717  -14.9205 O.3     1  UNL1       -0.4720
     10 C         -23.9569  -14.9110  -14.8803 C.3     1  UNL1        0.2118
     11 C         -22.7975  -14.6246  -15.8446 C.3     1  UNL1        0.0931
     12 C         -21.7080  -10.4937  -16.1818 C.ar    1  UNL1       -0.0030
     13 C         -21.3096  -11.2206  -15.0521 C.ar    1  UNL1       -0.0015
     14 C         -21.6873  -12.5564  -14.9119 C.ar    1  UNL1        0.0145
     15 C         -22.4676  -13.1607  -15.9087 C.ar    1  UNL1        0.0627
     16 N         -22.8629  -12.4305  -16.9875 N.ar    1  UNL1       -0.2484
     17 C         -22.5161  -11.1246  -17.1389 C.ar    1  UNL1        0.0941
     18 C         -22.5462   -8.1653  -16.4815 C.3     1  UNL1        0.0051
     19 C         -21.3128   -9.0512  -16.3423 C.3     1  UNL1        0.0279
     20 C         -24.7170   -8.9517  -11.9903 C.3     1  UNL1        0.0469
     21 C         -24.0134   -7.8514  -12.8010 C.3     1  UNL1        0.1369
     22 S         -24.7052   -6.2119  -12.3262 S.3     1  UNL1       -0.0482
     23 C         -23.1285   -5.7372  -11.6367 C.2     1  UNL1        0.2792
     24 O         -22.9651   -4.6662  -10.9967 O.2     1  UNL1       -0.2625
     25 N         -22.0736   -6.6523  -11.8430 N.am    1  UNL1       -0.2460
     26 C         -22.5381   -7.8032  -12.5213 C.2     1  UNL1        0.2392
     27 O         -21.7477   -8.7138  -12.8849 O.2     1  UNL1       -0.2737
     28 H         -21.0853   -6.4974  -11.5430 H       1  UNL1        0.1583
@<TRIPOS>BOND
     1    18    19    1
     2    19    12    1
     3    12    13   ar
     4    13    14   ar
     5    14    15   ar
     6    15    11    1
     7    11    10    1
     8    10     9    1
     9     9     1    1
    10     1     2   ar
    11     2     3   ar
    12     3     4   ar
    13     4    20    1
    14    20    21    1
    15    21    22    1
    16    22    23    1
    17    23    24    2
    18    23    25   am
    19    25    26   am
    20    26    27    2
    21     4     5   ar
    22     5     6   ar
    23     6     7    1
    24    15    16   ar
    25    16    17   ar
    26    17    12   ar
    27     6     1   ar
    28    26    21    1
    29    25    28    1
    30     7     8    1
@<TRIPOS>MOLECULE
*****
 28 30 0 0 0
SMALL
GASTEIGER

@<TRIPOS>ATOM
      1 C         -24.5991   -6.1507  -17.3580 C.ar    1  UNL1        0.1719
      2 C         -25.1521   -5.8863  -16.0897 C.ar    1  UNL1        0.0397
      3 C         -26.1362   -4.9072  -15.9379 C.ar    1  UNL1       -0.0009
      4 C         -26.5995   -4.1890  -17.0485 C.ar    1  UNL1       -0.0176
      5 C         -26.0811   -4.4800  -18.3193 C.ar    1  UNL1        0.0356
      6 C         -25.0876   -5.4569  -18.4743 C.ar    1  UNL1        0.1674
      7 O         -24.5662   -5.7328  -19.7372 O.3     1  UNL1       -0.5029
      8 H         -24.8918   -5.2453  -20.5639 H       1  UNL1        0.2923
      9 O         -23.5621   -7.0797  -17.5529 O.3     1  UNL1       -0.4720
     10 C         -22.6078   -7.4894  -16.5685 C.3     1  UNL1        0.2118
     11 C         -22.1502   -8.9364  -16.7985 C.3     1  UNL1        0.0931
     12 C         -24.8040  -11.8346  -15.0888 C.ar    1  UNL1       -0.0030
     13 C         -24.2303  -12.0820  -16.3431 C.ar    1  UNL1       -0.0015
     14 C         -23.3928  -11.1317  -16.9279 C.ar    1  UNL1        0.0145
     15 C         -23.1333   -9.9311  -16.2506 C.ar    1  UNL1        0.0627
     16 N         -23.7184   -9.7007  -15.0432 N.ar    1  UNL1       -0.2484
     17 C         -24.5468  -10.6076  -14.4602 C.ar    1  UNL1        0.0941
     18 C         -25.2299  -14.2653  -14.7369 C.3     1  UNL1        0.0051
     19 C         -25.7138  -12.8481  -14.4500 C.3     1  UNL1        0.0279
     20 C         -27.6619   -3.1328  -16.8773 C.3     1  UNL1        0.0469
     21 C         -28.9957   -3.5429  -17.5222 C.3     1  UNL1        0.1369
     22 S         -30.1702   -4.0680  -16.2042 S.3     1  UNL1       -0.0482
     23 C         -31.2230   -2.6751  -16.5762 C.2     1  UNL1        0.2792
     24 O         -32.2298   -2.3834  -15.8802 O.2     1  UNL1       -0.2625
     25 N         -30.8433   -1.9078  -17.6987 N.am    1  UNL1       -0.2460
     26 C         -29.6403   -2.4011  -18.2554 C.2     1  UNL1        0.2392
     27 O         -29.1626   -1.9189  -19.3163 O.2     1  UNL1       -0.2737
     28 H         -31.3806   -1.0933  -18.0710 H       1  UNL1        0.1583
@<TRIPOS>BOND
     1    18    19    1
     2    19    12    1
     3    12    13   ar
     4    13    14   ar
     5    14    15   ar
     6    15    11    1
     7    11    10    1
     8    10     9    1
     9     9     1    1
    10     1     2   ar
    11     2     3   ar
    12     3     4   ar
    13     4    20    1
    14    20    21    1
    15    21    22    1
    16    22    23    1
    17    23    24    2
    18    23    25   am
    19    25    26   am
    20    26    27    2
    21     4     5   ar
    22     5     6   ar
    23     6     7    1
    24    15    16   ar
    25    16    17   ar
    26    17    12   ar
    27     6     1   ar
    28    26    21    1
    29    25    28    1
    30     7     8    1
@<TRIPOS>MOLECULE
*****
 28 30 0 0 0
SMALL
GASTEIGER

@<TRIPOS>ATOM
      1 C         -24.2142  -11.3679  -12.9022 C.ar    1  UNL1        0.1719
      2 C         -25.0456  -10.2528  -13.1245 C.ar    1  UNL1        0.0397
      3 C         -24.5441   -8.9574  -12.9807 C.ar    1  UNL1       -0.0009
      4 C         -23.2026   -8.7509  -12.6321 C.ar    1  UNL1       -0.0176
      5 C         -22.3615   -9.8593  -12.4518 C.ar    1  UNL1        0.0356
      6 C         -22.8634  -11.1611  -12.5879 C.ar    1  UNL1        0.1674
      7 O         -22.0269  -12.2592  -12.3945 O.3     1  UNL1       -0.5029
      8 H         -21.0476  -12.1454  -12.1600 H       1  UNL1        0.2923
      9 O         -24.6869  -12.6902  -12.9712 O.3     1  UNL1       -0.4720
     10 C         -25.4154  -13.2641  -14.0608 C.3     1  UNL1        0.2118
     11 C         -24.4801  -13.6762  -15.2060 C.3     1  UNL1        0.0931
     12 C         -21.9105  -10.3990  -16.2169 C.ar    1  UNL1       -0.0030
     13 C         -23.2712  -10.3334  -16.5450 C.ar    1  UNL1       -0.0015
     14 C         -24.1125  -11.4077  -16.2542 C.ar    1  UNL1        0.0145
     15 C         -23.5840  -12.5493  -15.6337 C.ar    1  UNL1        0.0627
     16 N         -22.2549  -12.6019  -15.3436 N.ar    1  UNL1       -0.2484
     17 C         -21.4148  -11.5716  -15.6284 C.ar    1  UNL1        0.0941
     18 C         -21.7125   -7.9181  -16.3567 C.3     1  UNL1        0.0051
     19 C         -20.9913   -9.2503  -16.5305 C.3     1  UNL1        0.0279
     20 C         -22.6678   -7.3495  -12.4779 C.3     1  UNL1        0.0469
     21 C         -23.1318   -6.6935  -11.1674 C.3     1  UNL1        0.1369
     22 S         -22.5755   -7.7221   -9.7444 S.3     1  UNL1       -0.0482
     23 C         -21.4982   -6.4054   -9.2034 C.2     1  UNL1        0.2792
     24 O         -20.6838   -6.5447   -8.2544 O.2     1  UNL1       -0.2625
     25 N         -21.6076   -5.1953   -9.9221 N.am    1  UNL1       -0.2460
     26 C         -22.5360   -5.3271  -10.9809 C.2     1  UNL1        0.2392
     27 O         -22.8536   -4.3436  -11.7007 O.2     1  UNL1       -0.2737
     28 H         -21.0813   -4.3215   -9.6982 H       1  UNL1        0.1583
@<TRIPOS>BOND
     1    18    19    1
     2    19    12    1
     3    12    13   ar
     4    13    14   ar
     5    14    15   ar
     6    15    11    1
     7    11    10    1
     8    10     9    1
     9     9     1    1
    10     1     2   ar
    11     2     3   ar
    12     3     4   ar
    13     4    20    1
    14    20    21    1
    15    21    22    1
    16    22    23    1
    17    23    24    2
    18    23    25   am
    19    25    26   am
    20    26    27    2
    21     4     5   ar
    22     5     6   ar
    23     6     7    1
    24    15    16   ar
    25    16    17   ar
    26    17    12   ar
    27     6     1   ar
    28    26    21    1
    29    25    28    1
    30     7     8    1
