@<TRIPOS>MOLECULE
*****
 47 52 0 0 0
SMALL
GASTEIGER

@<TRIPOS>ATOM
      1 O          -8.8056  -10.0885   30.3898 O.2     1  UNL1       -0.2701
      2 C          -8.3027  -11.1899   30.7422 C.2     1  UNL1        0.2483
      3 N          -7.7948  -11.3594   32.0793 N.am    1  UNL1       -0.2945
      4 H          -7.1829  -12.1836   32.2744 H       1  UNL1        0.1501
      5 C          -8.2077  -12.2865   29.7526 C.ar    1  UNL1        0.0808
      6 C          -6.9638  -12.5958   29.1774 C.ar    1  UNL1        0.0080
      7 C          -6.8495  -13.6289   28.2438 C.ar    1  UNL1        0.0148
      8 C          -7.9798  -14.3625   27.8539 C.ar    1  UNL1        0.0502
      9 C          -9.2262  -14.0483   28.4182 C.ar    1  UNL1        0.0443
     10 C          -9.3445  -13.0167   29.3548 C.ar    1  UNL1        0.1457
     11 F         -10.5765  -12.7091   29.8337 F       1  UNL1       -0.2040
     12 N          -7.8597  -15.4358   26.9014 N.pl3   1  UNL1       -0.3040
     13 C          -6.8693  -15.3689   25.8187 C.3     1  UNL1        0.1122
     14 C          -7.5697  -15.5539   24.4705 C.3     1  UNL1        0.1123
     15 N          -8.5297  -16.6650   24.5210 N.pl3   1  UNL1       -0.3034
     16 C          -8.6763  -17.4765   25.7339 C.3     1  UNL1        0.1123
     17 C          -8.7995  -16.5671   26.9637 C.3     1  UNL1        0.1122
     18 C          -9.1868  -17.0716   23.3144 C.ar    1  UNL1        0.0587
     19 C         -10.5271  -16.7196   23.1017 C.ar    1  UNL1        0.0162
     20 C         -11.1807  -17.1121   21.9304 C.ar    1  UNL1        0.0127
     21 C         -10.4975  -17.8548   20.9622 C.ar    1  UNL1        0.0586
     22 CL        -11.3185  -18.3454   19.4919 Cl      1  UNL1       -0.0822
     23 C          -9.1573  -18.2017   21.1647 C.ar    1  UNL1        0.0240
     24 C          -8.4977  -17.8117   22.3365 C.ar    1  UNL1        0.0718
     25 CL         -6.8021  -18.2290   22.5437 Cl      1  UNL1       -0.0809
     26 C          -8.0539  -10.4423   33.1989 C.3     1  UNL1        0.1535
     27 C          -7.6864   -9.0173   32.8472 C.2     1  UNL1        0.2443
     28 O          -6.5239   -8.5853   33.0737 O.2     1  UNL1       -0.2730
     29 N          -8.6808   -8.1506   32.2761 N.am    1  UNL1       -0.2825
     30 H          -9.6838   -8.4124   32.4108 H       1  UNL1        0.1549
     31 C          -8.3983   -6.9430   31.5453 C.ar    1  UNL1        0.0535
     32 C          -7.0973   -6.4171   31.4504 C.ar    1  UNL1        0.0353
     33 C          -6.8710   -5.2694   30.6869 C.ar    1  UNL1        0.1002
     34 N          -7.9000   -4.6706   30.0320 N.ar    1  UNL1       -0.2422
     35 C          -9.1648   -5.1635   30.0934 C.ar    1  UNL1        0.1002
     36 C          -9.4341   -6.3109   30.8430 C.ar    1  UNL1        0.0353
     37 C          -9.5085  -10.5678   33.6994 C.3     1  UNL1        0.0569
     38 C          -9.8132  -11.9583   34.1818 C.ar    1  UNL1       -0.0017
     39 C          -9.1925  -12.6187   35.2382 C.ar    1  UNL1        0.0681
     40 N          -9.8026  -13.8013   35.4801 N.ar    1  UNL1       -0.3523
     41 C         -10.8090  -13.8889   34.5933 C.ar    1  UNL1        0.0563
     42 C         -11.7502  -14.9115   34.4831 C.ar    1  UNL1        0.0170
     43 C         -12.7520  -14.7809   33.5041 C.ar    1  UNL1        0.0015
     44 C         -12.7903  -13.6441   32.6670 C.ar    1  UNL1        0.0001
     45 C         -11.8278  -12.6273   32.8015 C.ar    1  UNL1        0.0012
     46 C         -10.8472  -12.7838   33.7819 C.ar    1  UNL1        0.0131
     47 H          -9.5562  -14.4905   36.2249 H       1  UNL1        0.1660
@<TRIPOS>BOND
     1     1     2    2
     2     2     3   am
     3     3    26    1
     4    26    37    1
     5    37    38    1
     6    38    39   ar
     7    39    40   ar
     8    40    41   ar
     9    41    42   ar
    10    42    43   ar
    11    43    44   ar
    12    44    45   ar
    13    45    46   ar
    14    26    27    1
    15    27    28    2
    16    27    29   am
    17    29    31    1
    18    31    32   ar
    19    32    33   ar
    20    33    34   ar
    21    34    35   ar
    22    35    36   ar
    23     2     5    1
    24     5     6   ar
    25     6     7   ar
    26     7     8   ar
    27     8    12    1
    28    12    13    1
    29    13    14    1
    30    14    15    1
    31    15    18    1
    32    18    19   ar
    33    19    20   ar
    34    20    21   ar
    35    21    22    1
    36    21    23   ar
    37    23    24   ar
    38    24    25    1
    39    15    16    1
    40    16    17    1
    41     8     9   ar
    42     9    10   ar
    43    10    11    1
    44    46    38   ar
    45    36    31   ar
    46    10     5   ar
    47    46    41   ar
    48    17    12    1
    49    24    18   ar
    50     3     4    1
    51    40    47    1
    52    29    30    1
@<TRIPOS>MOLECULE
*****
 47 52 0 0 0
SMALL
GASTEIGER

@<TRIPOS>ATOM
      1 O          -8.0732  -10.0671   30.5208 O.2     1  UNL1       -0.2701
      2 C          -8.4158  -11.2446   30.8143 C.2     1  UNL1        0.2483
      3 N          -8.9125  -11.5472   32.1319 N.am    1  UNL1       -0.2945
      4 H          -8.9672  -12.5499   32.4210 H       1  UNL1        0.1501
      5 C          -8.2623  -12.3121   29.8005 C.ar    1  UNL1        0.0808
      6 C          -9.3825  -13.0655   29.4115 C.ar    1  UNL1        0.0080
      7 C          -9.2621  -14.0757   28.4539 C.ar    1  UNL1        0.0148
      8 C          -8.0158  -14.3641   27.8782 C.ar    1  UNL1        0.0502
      9 C          -6.8923  -13.6208   28.2732 C.ar    1  UNL1        0.0443
     10 C          -7.0091  -12.6073   29.2295 C.ar    1  UNL1        0.1457
     11 F          -5.8885  -11.9507   29.6236 F       1  UNL1       -0.2040
     12 N          -7.8942  -15.3966   26.8817 N.pl3   1  UNL1       -0.3040
     13 C          -6.9232  -15.2700   25.7869 C.3     1  UNL1        0.1122
     14 C          -7.6428  -15.4131   24.4438 C.3     1  UNL1        0.1123
     15 N          -8.5836  -16.5415   24.4652 N.pl3   1  UNL1       -0.3034
     16 C          -8.6966  -17.4030   25.6469 C.3     1  UNL1        0.1123
     17 C          -8.8142  -16.5453   26.9139 C.3     1  UNL1        0.1122
     18 C          -9.2540  -16.9110   23.2540 C.ar    1  UNL1        0.0587
     19 C         -10.5596  -16.4581   23.0176 C.ar    1  UNL1        0.0162
     20 C         -11.2258  -16.8134   21.8416 C.ar    1  UNL1        0.0127
     21 C         -10.5898  -17.6196   20.8923 C.ar    1  UNL1        0.0586
     22 CL        -11.4266  -18.0634   19.4160 Cl      1  UNL1       -0.0822
     23 C          -9.2838  -18.0675   21.1184 C.ar    1  UNL1        0.0240
     24 C          -8.6117  -17.7152   22.2950 C.ar    1  UNL1        0.0718
     25 CL         -6.9570  -18.2611   22.5318 Cl      1  UNL1       -0.0809
     26 C          -9.3329  -10.5448   33.1220 C.3     1  UNL1        0.1535
     27 C          -8.6218   -9.2256   32.9143 C.2     1  UNL1        0.2443
     28 O          -7.5022   -9.0141   33.4539 O.2     1  UNL1       -0.2730
     29 N          -9.2443   -8.2040   32.1175 N.am    1  UNL1       -0.2825
     30 H         -10.2776   -8.2679   31.9724 H       1  UNL1        0.1549
     31 C          -8.5533   -7.0932   31.5169 C.ar    1  UNL1        0.0535
     32 C          -7.1710   -6.8965   31.6865 C.ar    1  UNL1        0.0353
     33 C          -6.5414   -5.8298   31.0404 C.ar    1  UNL1        0.1002
     34 N          -7.2587   -4.9934   30.2452 N.ar    1  UNL1       -0.2422
     35 C          -8.5924   -5.1666   30.0510 C.ar    1  UNL1        0.1002
     36 C          -9.2602   -6.2224   30.6757 C.ar    1  UNL1        0.0353
     37 C         -10.8682  -10.3883   33.1420 C.3     1  UNL1        0.0569
     38 C         -11.5581  -11.5917   32.5633 C.ar    1  UNL1       -0.0017
     39 C         -12.0513  -11.7153   31.2677 C.ar    1  UNL1        0.0681
     40 N         -12.4910  -12.9752   31.0475 N.ar    1  UNL1       -0.3523
     41 C         -12.2704  -13.6509   32.1884 C.ar    1  UNL1        0.0563
     42 C         -12.5181  -15.0012   32.4310 C.ar    1  UNL1        0.0170
     43 C         -12.1697  -15.5178   33.6923 C.ar    1  UNL1        0.0015
     44 C         -11.5880  -14.6827   34.6715 C.ar    1  UNL1        0.0001
     45 C         -11.3489  -13.3239   34.3984 C.ar    1  UNL1        0.0012
     46 C         -11.7036  -12.8401   33.1385 C.ar    1  UNL1        0.0131
     47 H         -12.8932  -13.3503   30.1598 H       1  UNL1        0.1660
@<TRIPOS>BOND
     1     1     2    2
     2     2     3   am
     3     3    26    1
     4    26    37    1
     5    37    38    1
     6    38    39   ar
     7    39    40   ar
     8    40    41   ar
     9    41    42   ar
    10    42    43   ar
    11    43    44   ar
    12    44    45   ar
    13    45    46   ar
    14    26    27    1
    15    27    28    2
    16    27    29   am
    17    29    31    1
    18    31    32   ar
    19    32    33   ar
    20    33    34   ar
    21    34    35   ar
    22    35    36   ar
    23     2     5    1
    24     5     6   ar
    25     6     7   ar
    26     7     8   ar
    27     8    12    1
    28    12    13    1
    29    13    14    1
    30    14    15    1
    31    15    18    1
    32    18    19   ar
    33    19    20   ar
    34    20    21   ar
    35    21    22    1
    36    21    23   ar
    37    23    24   ar
    38    24    25    1
    39    15    16    1
    40    16    17    1
    41     8     9   ar
    42     9    10   ar
    43    10    11    1
    44    46    38   ar
    45    36    31   ar
    46    10     5   ar
    47    46    41   ar
    48    17    12    1
    49    24    18   ar
    50     3     4    1
    51    40    47    1
    52    29    30    1
@<TRIPOS>MOLECULE
*****
 47 52 0 0 0
SMALL
GASTEIGER

@<TRIPOS>ATOM
      1 O          -9.4374  -15.3005   29.0367 O.2     1  UNL1       -0.2701
      2 C          -8.8894  -14.4372   28.2988 C.2     1  UNL1        0.2483
      3 N          -8.8570  -13.0550   28.7023 N.am    1  UNL1       -0.2945
      4 H          -8.6125  -12.3363   27.9841 H       1  UNL1        0.1501
      5 C          -8.3184  -14.8594   27.0001 C.ar    1  UNL1        0.0808
      6 C          -9.1780  -15.2065   25.9444 C.ar    1  UNL1        0.0080
      7 C          -8.6617  -15.6045   24.7088 C.ar    1  UNL1        0.0148
      8 C          -7.2752  -15.6798   24.5090 C.ar    1  UNL1        0.0502
      9 C          -6.4136  -15.3447   25.5654 C.ar    1  UNL1        0.0443
     10 C          -6.9264  -14.9434   26.8030 C.ar    1  UNL1        0.1457
     11 F          -6.0595  -14.6822   27.8140 F       1  UNL1       -0.2040
     12 N          -6.7430  -16.0776   23.2314 N.pl3   1  UNL1       -0.3040
     13 C          -6.7530  -17.4883   22.8224 C.3     1  UNL1        0.1122
     14 C          -5.3332  -17.9263   22.4555 C.3     1  UNL1        0.1123
     15 N          -4.6705  -16.9214   21.6131 N.pl3   1  UNL1       -0.3034
     16 C          -5.3857  -15.7174   21.1766 C.3     1  UNL1        0.1123
     17 C          -6.1036  -15.0708   22.3687 C.3     1  UNL1        0.1122
     18 C          -3.3810  -17.2164   21.0627 C.ar    1  UNL1        0.0587
     19 C          -2.2667  -16.4669   21.4654 C.ar    1  UNL1        0.0162
     20 C          -1.0037  -16.7426   20.9344 C.ar    1  UNL1        0.0127
     21 C          -0.8455  -17.7720   20.0012 C.ar    1  UNL1        0.0586
     22 CL          0.7406  -18.1179   19.3367 Cl      1  UNL1       -0.0822
     23 C          -1.9521  -18.5292   19.6019 C.ar    1  UNL1        0.0240
     24 C          -3.2199  -18.2572   20.1301 C.ar    1  UNL1        0.0718
     25 CL         -4.5837  -19.2523   19.6383 Cl      1  UNL1       -0.0809
     26 C          -9.1657  -12.5670   30.0545 C.3     1  UNL1        0.1535
     27 C          -8.6205  -11.1739   30.2810 C.2     1  UNL1        0.2443
     28 O          -9.3085  -10.1633   29.9733 O.2     1  UNL1       -0.2730
     29 N          -7.3006  -11.0107   30.8263 N.am    1  UNL1       -0.2825
     30 H          -6.6451  -11.8219   30.7545 H       1  UNL1        0.1549
     31 C          -6.8107   -9.8097   31.4506 C.ar    1  UNL1        0.0535
     32 C          -5.7895   -9.0337   30.8733 C.ar    1  UNL1        0.0353
     33 C          -5.3861   -7.8504   31.4965 C.ar    1  UNL1        0.1002
     34 N          -5.9836   -7.4466   32.6481 N.ar    1  UNL1       -0.2422
     35 C          -6.9823   -8.1679   33.2217 C.ar    1  UNL1        0.1002
     36 C          -7.4181   -9.3555   32.6297 C.ar    1  UNL1        0.0353
     37 C         -10.6772  -12.6622   30.3517 C.3     1  UNL1        0.0569
     38 C         -10.9428  -12.9276   31.8071 C.ar    1  UNL1       -0.0017
     39 C         -10.5729  -12.1140   32.8741 C.ar    1  UNL1        0.0681
     40 N         -11.0856  -12.5903   34.0315 N.ar    1  UNL1       -0.3523
     41 C         -11.7841  -13.6910   33.7038 C.ar    1  UNL1        0.0563
     42 C         -12.5313  -14.5016   34.5572 C.ar    1  UNL1        0.0170
     43 C         -13.2247  -15.5878   33.9930 C.ar    1  UNL1        0.0015
     44 C         -13.1567  -15.8366   32.6045 C.ar    1  UNL1        0.0001
     45 C         -12.3953  -15.0013   31.7674 C.ar    1  UNL1        0.0012
     46 C         -11.7195  -13.9311   32.3550 C.ar    1  UNL1        0.0131
     47 H         -10.9811  -12.1688   34.9812 H       1  UNL1        0.1660
@<TRIPOS>BOND
     1     1     2    2
     2     2     3   am
     3     3    26    1
     4    26    37    1
     5    37    38    1
     6    38    39   ar
     7    39    40   ar
     8    40    41   ar
     9    41    42   ar
    10    42    43   ar
    11    43    44   ar
    12    44    45   ar
    13    45    46   ar
    14    26    27    1
    15    27    28    2
    16    27    29   am
    17    29    31    1
    18    31    32   ar
    19    32    33   ar
    20    33    34   ar
    21    34    35   ar
    22    35    36   ar
    23     2     5    1
    24     5     6   ar
    25     6     7   ar
    26     7     8   ar
    27     8    12    1
    28    12    13    1
    29    13    14    1
    30    14    15    1
    31    15    18    1
    32    18    19   ar
    33    19    20   ar
    34    20    21   ar
    35    21    22    1
    36    21    23   ar
    37    23    24   ar
    38    24    25    1
    39    15    16    1
    40    16    17    1
    41     8     9   ar
    42     9    10   ar
    43    10    11    1
    44    46    38   ar
    45    36    31   ar
    46    10     5   ar
    47    46    41   ar
    48    17    12    1
    49    24    18   ar
    50     3     4    1
    51    40    47    1
    52    29    30    1
@<TRIPOS>MOLECULE
*****
 47 52 0 0 0
SMALL
GASTEIGER

@<TRIPOS>ATOM
      1 O          -9.4812  -15.2068   29.0705 O.2     1  UNL1       -0.2701
      2 C          -8.9552  -14.3391   28.3218 C.2     1  UNL1        0.2483
      3 N          -9.0434  -12.9417   28.6595 N.am    1  UNL1       -0.2945
      4 H          -8.8105  -12.2395   27.9215 H       1  UNL1        0.1501
      5 C          -8.2839  -14.7752   27.0768 C.ar    1  UNL1        0.0808
      6 C          -9.0570  -15.2138   25.9889 C.ar    1  UNL1        0.0080
      7 C          -8.4453  -15.6267   24.8026 C.ar    1  UNL1        0.0148
      8 C          -7.0474  -15.6254   24.6862 C.ar    1  UNL1        0.0502
      9 C          -6.2715  -15.1986   25.7755 C.ar    1  UNL1        0.0443
     10 C          -6.8800  -14.7822   26.9637 C.ar    1  UNL1        0.1457
     11 F          -6.0919  -14.4304   28.0111 F       1  UNL1       -0.2040
     12 N          -6.4173  -16.0387   23.4590 N.pl3   1  UNL1       -0.3040
     13 C          -6.7391  -17.3372   22.8524 C.3     1  UNL1        0.1122
     14 C          -5.4523  -18.1388   22.6433 C.3     1  UNL1        0.1123
     15 N          -4.3939  -17.2994   22.0653 N.pl3   1  UNL1       -0.3034
     16 C          -4.6559  -15.9017   21.7060 C.3     1  UNL1        0.1123
     17 C          -5.3767  -15.1887   22.8579 C.3     1  UNL1        0.1122
     18 C          -3.1565  -17.9091   21.6780 C.ar    1  UNL1        0.0587
     19 C          -2.0610  -17.8716   22.5521 C.ar    1  UNL1        0.0162
     20 C          -0.8475  -18.4600   22.1857 C.ar    1  UNL1        0.0127
     21 C          -0.7226  -19.0937   20.9453 C.ar    1  UNL1        0.0586
     22 CL          0.8006  -19.8332   20.4873 Cl      1  UNL1       -0.0822
     23 C          -1.8147  -19.1421   20.0723 C.ar    1  UNL1        0.0240
     24 C          -3.0327  -18.5539   20.4339 C.ar    1  UNL1        0.0718
     25 CL         -4.3982  -18.6660   19.3316 Cl      1  UNL1       -0.0809
     26 C          -9.4611  -12.4185   29.9685 C.3     1  UNL1        0.1535
     27 C          -9.4052  -10.9070   30.0070 C.2     1  UNL1        0.2443
     28 O          -8.4275  -10.2931   29.5004 O.2     1  UNL1       -0.2730
     29 N         -10.4632  -10.1759   30.6490 N.am    1  UNL1       -0.2825
     30 H         -11.0612  -10.6931   31.3329 H       1  UNL1        0.1549
     31 C         -10.7511   -8.7825   30.4306 C.ar    1  UNL1        0.0535
     32 C          -9.9490   -7.9774   29.6020 C.ar    1  UNL1        0.0353
     33 C         -10.3023   -6.6434   29.3850 C.ar    1  UNL1        0.1002
     34 N         -11.4195   -6.1298   29.9632 N.ar    1  UNL1       -0.2422
     35 C         -12.2215   -6.8869   30.7570 C.ar    1  UNL1        0.1002
     36 C         -11.9064   -8.2262   30.9975 C.ar    1  UNL1        0.0353
     37 C         -10.8462  -12.9659   30.3733 C.3     1  UNL1        0.0569
     38 C         -10.9354  -13.2159   31.8528 C.ar    1  UNL1       -0.0017
     39 C         -10.2925  -12.4903   32.8515 C.ar    1  UNL1        0.0681
     40 N         -10.6992  -12.9047   34.0730 N.ar    1  UNL1       -0.3523
     41 C         -11.6006  -13.8778   33.8547 C.ar    1  UNL1        0.0563
     42 C         -12.3327  -14.5801   34.8109 C.ar    1  UNL1        0.0170
     43 C         -13.2611  -15.5350   34.3579 C.ar    1  UNL1        0.0015
     44 C         -13.4351  -15.7638   32.9752 C.ar    1  UNL1        0.0001
     45 C         -12.6829  -15.0396   32.0329 C.ar    1  UNL1        0.0012
     46 C         -11.7708  -14.0983   32.5117 C.ar    1  UNL1        0.0131
     47 H         -10.3936  -12.5232   34.9958 H       1  UNL1        0.1660
@<TRIPOS>BOND
     1     1     2    2
     2     2     3   am
     3     3    26    1
     4    26    37    1
     5    37    38    1
     6    38    39   ar
     7    39    40   ar
     8    40    41   ar
     9    41    42   ar
    10    42    43   ar
    11    43    44   ar
    12    44    45   ar
    13    45    46   ar
    14    26    27    1
    15    27    28    2
    16    27    29   am
    17    29    31    1
    18    31    32   ar
    19    32    33   ar
    20    33    34   ar
    21    34    35   ar
    22    35    36   ar
    23     2     5    1
    24     5     6   ar
    25     6     7   ar
    26     7     8   ar
    27     8    12    1
    28    12    13    1
    29    13    14    1
    30    14    15    1
    31    15    18    1
    32    18    19   ar
    33    19    20   ar
    34    20    21   ar
    35    21    22    1
    36    21    23   ar
    37    23    24   ar
    38    24    25    1
    39    15    16    1
    40    16    17    1
    41     8     9   ar
    42     9    10   ar
    43    10    11    1
    44    46    38   ar
    45    36    31   ar
    46    10     5   ar
    47    46    41   ar
    48    17    12    1
    49    24    18   ar
    50     3     4    1
    51    40    47    1
    52    29    30    1
@<TRIPOS>MOLECULE
*****
 47 52 0 0 0
SMALL
GASTEIGER

@<TRIPOS>ATOM
      1 O          -8.0327  -10.1929   31.1110 O.2     1  UNL1       -0.2701
      2 C          -8.8535  -11.1237   30.8875 C.2     1  UNL1        0.2483
      3 N         -10.0921  -11.1885   31.6197 N.am    1  UNL1       -0.2945
      4 H         -10.6389  -12.0784   31.5877 H       1  UNL1        0.1501
      5 C          -8.5070  -12.1649   29.8942 C.ar    1  UNL1        0.0808
      6 C          -9.5093  -13.0213   29.4086 C.ar    1  UNL1        0.0080
      7 C          -9.2063  -14.0090   28.4681 C.ar    1  UNL1        0.0148
      8 C          -7.8915  -14.1713   28.0068 C.ar    1  UNL1        0.0502
      9 C          -6.8855  -13.3247   28.4986 C.ar    1  UNL1        0.0443
     10 C          -7.1851  -12.3333   29.4381 C.ar    1  UNL1        0.1457
     11 F          -6.1735  -11.5732   29.9289 F       1  UNL1       -0.2040
     12 N          -7.5816  -15.1809   27.0277 N.pl3   1  UNL1       -0.3040
     13 C          -6.3765  -16.0098   27.1625 C.3     1  UNL1        0.1122
     14 C          -5.5343  -15.9018   25.8892 C.3     1  UNL1        0.1123
     15 N          -6.3737  -16.0147   24.6885 N.pl3   1  UNL1       -0.3034
     16 C          -7.8144  -16.2662   24.8001 C.3     1  UNL1        0.1123
     17 C          -8.4349  -15.3197   25.8364 C.3     1  UNL1        0.1122
     18 C          -5.7443  -16.0669   23.4024 C.ar    1  UNL1        0.0587
     19 C          -4.4838  -16.6664   23.2707 C.ar    1  UNL1        0.0162
     20 C          -3.8575  -16.7216   22.0225 C.ar    1  UNL1        0.0127
     21 C          -4.4891  -16.1822   20.8974 C.ar    1  UNL1        0.0586
     22 CL         -3.7026  -16.2535   19.3312 Cl      1  UNL1       -0.0822
     23 C          -5.7507  -15.5903   21.0209 C.ar    1  UNL1        0.0240
     24 C          -6.3827  -15.5317   22.2689 C.ar    1  UNL1        0.0718
     25 CL         -7.9851  -14.8170   22.3843 Cl      1  UNL1       -0.0809
     26 C         -10.6436  -10.0969   32.4359 C.3     1  UNL1        0.1535
     27 C         -10.9500   -8.8754   31.5972 C.2     1  UNL1        0.2443
     28 O         -12.1377   -8.6116   31.2670 O.2     1  UNL1       -0.2730
     29 N          -9.8732   -8.0310   31.1572 N.am    1  UNL1       -0.2825
     30 H          -8.9111   -8.4396   31.1513 H       1  UNL1        0.1549
     31 C         -10.0235   -6.6705   30.7116 C.ar    1  UNL1        0.0535
     32 C          -9.0425   -6.0289   29.9342 C.ar    1  UNL1        0.0353
     33 C          -9.2614   -4.7239   29.4865 C.ar    1  UNL1        0.1002
     34 N         -10.4194   -4.0821   29.7920 N.ar    1  UNL1       -0.2422
     35 C         -11.3913   -4.6811   30.5291 C.ar    1  UNL1        0.1002
     36 C         -11.2141   -5.9862   30.9939 C.ar    1  UNL1        0.0353
     37 C         -11.8649  -10.5710   33.2519 C.3     1  UNL1        0.0569
     38 C         -12.4864  -11.8041   32.6583 C.ar    1  UNL1       -0.0017
     39 C         -13.1285  -11.8922   31.4265 C.ar    1  UNL1        0.0681
     40 N         -13.4502  -13.1769   31.1520 N.ar    1  UNL1       -0.3523
     41 C         -13.0079  -13.9019   32.1940 C.ar    1  UNL1        0.0563
     42 C         -13.0697  -15.2864   32.3457 C.ar    1  UNL1        0.0170
     43 C         -12.5035  -15.8471   33.5050 C.ar    1  UNL1        0.0015
     44 C         -11.8951  -15.0209   34.4755 C.ar    1  UNL1        0.0001
     45 C         -11.8467  -13.6268   34.2954 C.ar    1  UNL1        0.0012
     46 C         -12.4153  -13.0995   33.1353 C.ar    1  UNL1        0.0131
     47 H         -13.9210  -13.5325   30.2905 H       1  UNL1        0.1660
@<TRIPOS>BOND
     1     1     2    2
     2     2     3   am
     3     3    26    1
     4    26    37    1
     5    37    38    1
     6    38    39   ar
     7    39    40   ar
     8    40    41   ar
     9    41    42   ar
    10    42    43   ar
    11    43    44   ar
    12    44    45   ar
    13    45    46   ar
    14    26    27    1
    15    27    28    2
    16    27    29   am
    17    29    31    1
    18    31    32   ar
    19    32    33   ar
    20    33    34   ar
    21    34    35   ar
    22    35    36   ar
    23     2     5    1
    24     5     6   ar
    25     6     7   ar
    26     7     8   ar
    27     8    12    1
    28    12    13    1
    29    13    14    1
    30    14    15    1
    31    15    18    1
    32    18    19   ar
    33    19    20   ar
    34    20    21   ar
    35    21    22    1
    36    21    23   ar
    37    23    24   ar
    38    24    25    1
    39    15    16    1
    40    16    17    1
    41     8     9   ar
    42     9    10   ar
    43    10    11    1
    44    46    38   ar
    45    36    31   ar
    46    10     5   ar
    47    46    41   ar
    48    17    12    1
    49    24    18   ar
    50     3     4    1
    51    40    47    1
    52    29    30    1
@<TRIPOS>MOLECULE
*****
 47 52 0 0 0
SMALL
GASTEIGER

@<TRIPOS>ATOM
      1 O          -5.2198  -16.8082   26.3430 O.2     1  UNL1       -0.2701
      2 C          -6.0006  -15.9201   25.9050 C.2     1  UNL1        0.2483
      3 N          -6.1881  -15.7563   24.4863 N.am    1  UNL1       -0.2945
      4 H          -6.6470  -14.8811   24.1466 H       1  UNL1        0.1501
      5 C          -6.6867  -15.0280   26.8664 C.ar    1  UNL1        0.0808
      6 C          -5.9817  -13.9602   27.4465 C.ar    1  UNL1        0.0080
      7 C          -6.6098  -13.1032   28.3538 C.ar    1  UNL1        0.0148
      8 C          -7.9506  -13.3069   28.7121 C.ar    1  UNL1        0.0502
      9 C          -8.6545  -14.3799   28.1430 C.ar    1  UNL1        0.0443
     10 C          -8.0303  -15.2384   27.2327 C.ar    1  UNL1        0.1457
     11 F          -8.7301  -16.2959   26.7488 F       1  UNL1       -0.2040
     12 N          -8.6016  -12.4159   29.6374 N.pl3   1  UNL1       -0.3040
     13 C         -10.0668  -12.3766   29.7341 C.3     1  UNL1        0.1122
     14 C         -10.5569  -10.9426   29.5201 C.3     1  UNL1        0.1123
     15 N          -9.7438   -9.9861   30.2835 N.pl3   1  UNL1       -0.3034
     16 C          -8.6657  -10.4505   31.1629 C.3     1  UNL1        0.1123
     17 C          -7.7913  -11.4747   30.4275 C.3     1  UNL1        0.1122
     18 C         -10.1340   -8.6077   30.3102 C.ar    1  UNL1        0.0587
     19 C          -9.3856   -7.6607   29.5969 C.ar    1  UNL1        0.0162
     20 C          -9.7536   -6.3127   29.6167 C.ar    1  UNL1        0.0127
     21 C         -10.8746   -5.9032   30.3456 C.ar    1  UNL1        0.0586
     22 CL        -11.3364   -4.2111   30.3683 Cl      1  UNL1       -0.0822
     23 C         -11.6306   -6.8447   31.0523 C.ar    1  UNL1        0.0240
     24 C         -11.2663   -8.1964   31.0365 C.ar    1  UNL1        0.0718
     25 CL        -12.2596   -9.3609   31.9023 Cl      1  UNL1       -0.0809
     26 C          -5.7604  -16.7237   23.4651 C.3     1  UNL1        0.1535
     27 C          -6.8379  -16.9500   22.4273 C.2     1  UNL1        0.2443
     28 O          -6.9723  -16.1480   21.4640 O.2     1  UNL1       -0.2730
     29 N          -7.7251  -18.0729   22.5619 N.am    1  UNL1       -0.2825
     30 H          -7.8134  -18.5074   23.5085 H       1  UNL1        0.1549
     31 C          -8.5106  -18.6338   21.4940 C.ar    1  UNL1        0.0535
     32 C          -7.9216  -19.1253   20.3151 C.ar    1  UNL1        0.0353
     33 C          -8.7264  -19.7049   19.3313 C.ar    1  UNL1        0.1002
     34 N         -10.0690  -19.8020   19.5168 N.ar    1  UNL1       -0.2422
     35 C         -10.6647  -19.3491   20.6510 C.ar    1  UNL1        0.1002
     36 C          -9.8964  -18.7656   21.6611 C.ar    1  UNL1        0.0353
     37 C          -4.4136  -16.3115   22.8338 C.3     1  UNL1        0.0569
     38 C          -3.5685  -17.5074   22.4948 C.ar    1  UNL1       -0.0017
     39 C          -3.8901  -18.8395   22.7381 C.ar    1  UNL1        0.0681
     40 N          -2.9647  -19.6574   22.1869 N.ar    1  UNL1       -0.3523
     41 C          -2.0675  -18.8545   21.5891 C.ar    1  UNL1        0.0563
     42 C          -0.9520  -19.2403   20.8472 C.ar    1  UNL1        0.0170
     43 C          -0.1646  -18.2283   20.2686 C.ar    1  UNL1        0.0015
     44 C          -0.5058  -16.8689   20.4425 C.ar    1  UNL1        0.0001
     45 C          -1.6378  -16.5091   21.1958 C.ar    1  UNL1        0.0012
     46 C          -2.4004  -17.5345   21.7564 C.ar    1  UNL1        0.0131
     47 H          -2.9663  -20.7015   22.2008 H       1  UNL1        0.1660
@<TRIPOS>BOND
     1     1     2    2
     2     2     3   am
     3     3    26    1
     4    26    37    1
     5    37    38    1
     6    38    39   ar
     7    39    40   ar
     8    40    41   ar
     9    41    42   ar
    10    42    43   ar
    11    43    44   ar
    12    44    45   ar
    13    45    46   ar
    14    26    27    1
    15    27    28    2
    16    27    29   am
    17    29    31    1
    18    31    32   ar
    19    32    33   ar
    20    33    34   ar
    21    34    35   ar
    22    35    36   ar
    23     2     5    1
    24     5     6   ar
    25     6     7   ar
    26     7     8   ar
    27     8    12    1
    28    12    13    1
    29    13    14    1
    30    14    15    1
    31    15    18    1
    32    18    19   ar
    33    19    20   ar
    34    20    21   ar
    35    21    22    1
    36    21    23   ar
    37    23    24   ar
    38    24    25    1
    39    15    16    1
    40    16    17    1
    41     8     9   ar
    42     9    10   ar
    43    10    11    1
    44    46    38   ar
    45    36    31   ar
    46    10     5   ar
    47    46    41   ar
    48    17    12    1
    49    24    18   ar
    50     3     4    1
    51    40    47    1
    52    29    30    1
@<TRIPOS>MOLECULE
*****
 47 52 0 0 0
SMALL
GASTEIGER

@<TRIPOS>ATOM
      1 O          -5.8320  -16.9709   23.9573 O.2     1  UNL1       -0.2701
      2 C          -7.0379  -16.6807   24.1846 C.2     1  UNL1        0.2483
      3 N          -8.0705  -17.1158   23.2796 N.am    1  UNL1       -0.2945
      4 H          -9.0145  -16.6746   23.3585 H       1  UNL1        0.1501
      5 C          -7.3683  -15.8565   25.3687 C.ar    1  UNL1        0.0808
      6 C          -6.3332  -15.2750   26.1198 C.ar    1  UNL1        0.0080
      7 C          -6.6214  -14.4903   27.2393 C.ar    1  UNL1        0.0148
      8 C          -7.9500  -14.2852   27.6402 C.ar    1  UNL1        0.0502
      9 C          -8.9861  -14.8743   26.8986 C.ar    1  UNL1        0.0443
     10 C          -8.7020  -15.6583   25.7760 C.ar    1  UNL1        0.1457
     11 F          -9.7297  -16.2548   25.1204 F       1  UNL1       -0.2040
     12 N          -8.2477  -13.4658   28.7864 N.pl3   1  UNL1       -0.3040
     13 C          -9.5196  -13.6174   29.5053 C.3     1  UNL1        0.1122
     14 C         -10.2345  -12.2660   29.5738 C.3     1  UNL1        0.1123
     15 N          -9.3028  -11.1928   29.9465 N.pl3   1  UNL1       -0.3034
     16 C          -7.9010  -11.4901   30.2597 C.3     1  UNL1        0.1123
     17 C          -7.3048  -12.4075   29.1838 C.3     1  UNL1        0.1122
     18 C          -9.8176   -9.8775   30.1873 C.ar    1  UNL1        0.0587
     19 C          -9.8065   -8.9284   29.1554 C.ar    1  UNL1        0.0162
     20 C         -10.3031   -7.6411   29.3776 C.ar    1  UNL1        0.0127
     21 C         -10.8182   -7.2956   30.6310 C.ar    1  UNL1        0.0586
     22 CL        -11.4425   -5.6800   30.9081 Cl      1  UNL1       -0.0822
     23 C         -10.8400   -8.2409   31.6622 C.ar    1  UNL1        0.0240
     24 C         -10.3434   -9.5319   31.4455 C.ar    1  UNL1        0.0718
     25 CL        -10.4211  -10.7091   32.7494 Cl      1  UNL1       -0.0809
     26 C          -7.8938  -18.1272   22.2271 C.3     1  UNL1        0.1535
     27 C          -6.4764  -18.1373   21.6977 C.2     1  UNL1        0.2443
     28 O          -6.1074  -17.2800   20.8503 O.2     1  UNL1       -0.2730
     29 N          -5.5598  -19.1484   22.1488 N.am    1  UNL1       -0.2825
     30 H          -5.9661  -20.0156   22.5680 H       1  UNL1        0.1549
     31 C          -4.1262  -19.0614   22.0535 C.ar    1  UNL1        0.0535
     32 C          -3.3928  -19.8328   21.1340 C.ar    1  UNL1        0.0353
     33 C          -2.0077  -19.6727   21.0490 C.ar    1  UNL1        0.1002
     34 N          -1.3742  -18.7700   21.8429 N.ar    1  UNL1       -0.2422
     35 C          -2.0576  -18.0008   22.7304 C.ar    1  UNL1        0.1002
     36 C          -3.4439  -18.1269   22.8452 C.ar    1  UNL1        0.0353
     37 C          -8.3516  -19.5205   22.7081 C.3     1  UNL1        0.0569
     38 C          -9.6032  -19.4400   23.5364 C.ar    1  UNL1       -0.0017
     39 C          -9.7403  -19.8372   24.8633 C.ar    1  UNL1        0.0681
     40 N         -10.9635  -19.5020   25.3331 N.ar    1  UNL1       -0.3523
     41 C         -11.5961  -18.8876   24.3184 C.ar    1  UNL1        0.0563
     42 C         -12.8701  -18.3218   24.3371 C.ar    1  UNL1        0.0170
     43 C         -13.3247  -17.6858   23.1675 C.ar    1  UNL1        0.0015
     44 C         -12.5051  -17.6302   22.0187 C.ar    1  UNL1        0.0001
     45 C         -11.2234  -18.2092   22.0290 C.ar    1  UNL1        0.0012
     46 C         -10.7990  -18.8319   23.2036 C.ar    1  UNL1        0.0131
     47 H         -11.3280  -19.6639   26.2981 H       1  UNL1        0.1660
@<TRIPOS>BOND
     1     1     2    2
     2     2     3   am
     3     3    26    1
     4    26    37    1
     5    37    38    1
     6    38    39   ar
     7    39    40   ar
     8    40    41   ar
     9    41    42   ar
    10    42    43   ar
    11    43    44   ar
    12    44    45   ar
    13    45    46   ar
    14    26    27    1
    15    27    28    2
    16    27    29   am
    17    29    31    1
    18    31    32   ar
    19    32    33   ar
    20    33    34   ar
    21    34    35   ar
    22    35    36   ar
    23     2     5    1
    24     5     6   ar
    25     6     7   ar
    26     7     8   ar
    27     8    12    1
    28    12    13    1
    29    13    14    1
    30    14    15    1
    31    15    18    1
    32    18    19   ar
    33    19    20   ar
    34    20    21   ar
    35    21    22    1
    36    21    23   ar
    37    23    24   ar
    38    24    25    1
    39    15    16    1
    40    16    17    1
    41     8     9   ar
    42     9    10   ar
    43    10    11    1
    44    46    38   ar
    45    36    31   ar
    46    10     5   ar
    47    46    41   ar
    48    17    12    1
    49    24    18   ar
    50     3     4    1
    51    40    47    1
    52    29    30    1
