@<TRIPOS>MOLECULE
*****
 30 33 0 0 0
SMALL
GASTEIGER

@<TRIPOS>ATOM
      1 C          46.2427   12.1133  -30.2356 C.ar    1  UNL1       -0.0145
      2 C          45.8531   13.2740  -29.5286 C.ar    1  UNL1        0.0134
      3 C          45.9908   13.2899  -28.1384 C.ar    1  UNL1        0.0597
      4 C          46.4801   12.1923  -27.4631 C.ar    1  UNL1        0.0177
      5 C          46.8604   11.0265  -28.1195 C.ar    1  UNL1        0.0079
      6 C          46.7384   10.9828  -29.5202 C.ar    1  UNL1        0.0307
      7 BR         47.2437    9.3567  -30.4042 Br      1  UNL1       -0.0493
      8 C          46.4550   12.5150  -26.1253 C.ar    1  UNL1        0.0177
      9 C          46.8085   11.7837  -24.9930 C.ar    1  UNL1        0.0082
     10 C          46.6371   12.3956  -23.7381 C.ar    1  UNL1        0.0347
     11 BR         47.1033   11.4454  -22.1490 Br      1  UNL1       -0.0490
     12 C          46.1170   13.7063  -23.6465 C.ar    1  UNL1        0.0082
     13 C          45.7650   14.4202  -24.8063 C.ar    1  UNL1        0.0177
     14 C          45.9501   13.7974  -26.0445 C.ar    1  UNL1        0.0600
     15 N          45.6706   14.2904  -27.2776 N.ar    1  UNL1       -0.3246
     16 C          45.6565   13.4573  -32.2578 C.3     1  UNL1        0.0050
     17 C          46.0627   12.0836  -31.7336 C.3     1  UNL1        0.0269
     18 C          45.0652   15.5871  -27.5981 C.3     1  UNL1        0.1365
     19 C          46.1305   16.5668  -28.1150 C.3     1  UNL1        0.1486
     20 O          46.0981   16.6025  -29.5186 O.3     1  UNL1       -0.3811
     21 H          46.5785   17.4259  -29.7957 H       1  UNL1        0.2105
     22 C          47.5322   16.1675  -27.6245 C.3     1  UNL1        0.1001
     23 N          48.4115   17.3459  -27.5590 N.3     1  UNL1       -0.2965
     24 H          47.7847   18.1828  -27.5072 H       1  UNL1        0.1233
     25 C          49.2991   17.3138  -26.3765 C.3     1  UNL1        0.0540
     26 C          48.6469   16.5220  -25.2068 C.3     1  UNL1        0.0157
     27 C          47.7511   17.3811  -24.2851 C.3     1  UNL1        0.0014
     28 C          47.2036   18.6234  -24.9954 C.3     1  UNL1        0.0001
     29 C          48.3364   19.5271  -25.5219 C.3     1  UNL1        0.0014
     30 C          49.6130   18.7490  -25.9038 C.3     1  UNL1        0.0157
@<TRIPOS>BOND
     1    16    17    1
     2    17     1    1
     3     1     2   ar
     4     2     3   ar
     5     3     4   ar
     6     4     5   ar
     7     5     6   ar
     8     6     7    1
     9     4     8   ar
    10     8     9   ar
    11     9    10   ar
    12    10    11    1
    13    10    12   ar
    14    12    13   ar
    15    13    14   ar
    16    14    15   ar
    17    15    18    1
    18    18    19    1
    19    19    20    1
    20    19    22    1
    21    22    23    1
    22    23    25    1
    23    25    26    1
    24    26    27    1
    25    27    28    1
    26    28    29    1
    27    29    30    1
    28     6     1   ar
    29    14     8   ar
    30    30    25    1
    31    15     3   ar
    32    20    21    1
    33    23    24    1
@<TRIPOS>MOLECULE
*****
 30 33 0 0 0
SMALL
GASTEIGER

@<TRIPOS>ATOM
      1 C          49.6191   16.2706  -25.5852 C.ar    1  UNL1       -0.0145
      2 C          50.4985   15.7437  -24.6117 C.ar    1  UNL1        0.0134
      3 C          49.9718   14.9401  -23.5974 C.ar    1  UNL1        0.0597
      4 C          48.6203   14.6772  -23.5327 C.ar    1  UNL1        0.0177
      5 C          47.7199   15.1881  -24.4616 C.ar    1  UNL1        0.0079
      6 C          48.2217   15.9963  -25.4980 C.ar    1  UNL1        0.0307
      7 BR         46.9604   16.7125  -26.7539 Br      1  UNL1       -0.0493
      8 C          48.4280   13.8992  -22.4136 C.ar    1  UNL1        0.0177
      9 C          47.2716   13.3635  -21.8500 C.ar    1  UNL1        0.0082
     10 C          47.4049   12.6208  -20.6629 C.ar    1  UNL1        0.0347
     11 BR         45.8576   11.8608  -19.8418 Br      1  UNL1       -0.0490
     12 C          48.6754   12.4388  -20.0719 C.ar    1  UNL1        0.0082
     13 C          49.8259   12.9942  -20.6608 C.ar    1  UNL1        0.0177
     14 C          49.6733   13.7225  -21.8448 C.ar    1  UNL1        0.0600
     15 N          50.6344   14.3489  -22.5698 N.ar    1  UNL1       -0.3246
     16 C          51.2789   18.0652  -26.0986 C.3     1  UNL1        0.0050
     17 C          50.1829   17.1658  -26.6613 C.3     1  UNL1        0.0269
     18 C          52.0635   14.4429  -22.2545 C.3     1  UNL1        0.1365
     19 C          52.7478   13.0795  -22.4404 C.3     1  UNL1        0.1486
     20 O          54.0910   13.1666  -22.0394 O.3     1  UNL1       -0.3811
     21 H          54.4108   12.2365  -21.9040 H       1  UNL1        0.2105
     22 C          52.6577   12.6113  -23.9024 C.3     1  UNL1        0.1001
     23 N          52.4680   11.1533  -23.9669 N.3     1  UNL1       -0.2965
     24 H          51.9914   10.8752  -23.0773 H       1  UNL1        0.1233
     25 C          51.6393   10.7498  -25.1235 C.3     1  UNL1        0.0540
     26 C          50.3327   11.5912  -25.1982 C.3     1  UNL1        0.0157
     27 C          49.1572   11.0056  -24.3827 C.3     1  UNL1        0.0014
     28 C          49.6324   10.1135  -23.2311 C.3     1  UNL1        0.0001
     29 C          50.4855    8.9330  -23.7366 C.3     1  UNL1        0.0014
     30 C          51.2734    9.2538  -25.0239 C.3     1  UNL1        0.0157
@<TRIPOS>BOND
     1    16    17    1
     2    17     1    1
     3     1     2   ar
     4     2     3   ar
     5     3     4   ar
     6     4     5   ar
     7     5     6   ar
     8     6     7    1
     9     4     8   ar
    10     8     9   ar
    11     9    10   ar
    12    10    11    1
    13    10    12   ar
    14    12    13   ar
    15    13    14   ar
    16    14    15   ar
    17    15    18    1
    18    18    19    1
    19    19    20    1
    20    19    22    1
    21    22    23    1
    22    23    25    1
    23    25    26    1
    24    26    27    1
    25    27    28    1
    26    28    29    1
    27    29    30    1
    28     6     1   ar
    29    14     8   ar
    30    30    25    1
    31    15     3   ar
    32    20    21    1
    33    23    24    1
@<TRIPOS>MOLECULE
*****
 30 33 0 0 0
SMALL
GASTEIGER

@<TRIPOS>ATOM
      1 C          51.1055   13.6893  -23.2384 C.ar    1  UNL1       -0.0145
      2 C          49.7517   14.0963  -23.2172 C.ar    1  UNL1        0.0134
      3 C          48.8788   13.5710  -24.1733 C.ar    1  UNL1        0.0597
      4 C          49.3271   12.6867  -25.1309 C.ar    1  UNL1        0.0177
      5 C          50.6533   12.2727  -25.1955 C.ar    1  UNL1        0.0079
      6 C          51.5548   12.7804  -24.2422 C.ar    1  UNL1        0.0307
      7 BR         53.3849   12.2174  -24.3643 Br      1  UNL1       -0.0493
      8 C          48.2439   12.3938  -25.9281 C.ar    1  UNL1        0.0177
      9 C          48.1197   11.5826  -27.0543 C.ar    1  UNL1        0.0082
     10 C          46.8594   11.5117  -27.6748 C.ar    1  UNL1        0.0347
     11 BR         46.6250   10.4173  -29.2217 Br      1  UNL1       -0.0490
     12 C          45.7679   12.2494  -27.1637 C.ar    1  UNL1        0.0082
     13 C          45.9228   13.0635  -26.0270 C.ar    1  UNL1        0.0177
     14 C          47.1816   13.1145  -25.4201 C.ar    1  UNL1        0.0600
     15 N          47.5562   13.8350  -24.3328 N.ar    1  UNL1       -0.3246
     16 C          51.6363   13.9115  -20.8078 C.3     1  UNL1        0.0050
     17 C          52.0556   14.2820  -22.2269 C.3     1  UNL1        0.0269
     18 C          46.7302   14.7680  -23.5595 C.3     1  UNL1        0.1365
     19 C          47.2047   16.2139  -23.7742 C.3     1  UNL1        0.1486
     20 O          46.6045   17.0543  -22.8224 O.3     1  UNL1       -0.3811
     21 H          47.1342   17.8938  -22.8064 H       1  UNL1        0.2105
     22 C          46.8745   16.6980  -25.1959 C.3     1  UNL1        0.1001
     23 N          47.7141   17.8517  -25.5566 N.3     1  UNL1       -0.2965
     24 H          48.4615   17.9161  -24.8265 H       1  UNL1        0.1233
     25 C          48.3327   17.6952  -26.8909 C.3     1  UNL1        0.0540
     26 C          48.8129   16.2330  -27.1186 C.3     1  UNL1        0.0157
     27 C          50.2497   15.9556  -26.6202 C.3     1  UNL1        0.0014
     28 C          50.6796   16.9206  -25.5104 C.3     1  UNL1        0.0001
     29 C          50.6207   18.3895  -25.9752 C.3     1  UNL1        0.0014
     30 C          49.5345   18.6520  -27.0392 C.3     1  UNL1        0.0157
@<TRIPOS>BOND
     1    16    17    1
     2    17     1    1
     3     1     2   ar
     4     2     3   ar
     5     3     4   ar
     6     4     5   ar
     7     5     6   ar
     8     6     7    1
     9     4     8   ar
    10     8     9   ar
    11     9    10   ar
    12    10    11    1
    13    10    12   ar
    14    12    13   ar
    15    13    14   ar
    16    14    15   ar
    17    15    18    1
    18    18    19    1
    19    19    20    1
    20    19    22    1
    21    22    23    1
    22    23    25    1
    23    25    26    1
    24    26    27    1
    25    27    28    1
    26    28    29    1
    27    29    30    1
    28     6     1   ar
    29    14     8   ar
    30    30    25    1
    31    15     3   ar
    32    20    21    1
    33    23    24    1
@<TRIPOS>MOLECULE
*****
 30 33 0 0 0
SMALL
GASTEIGER

@<TRIPOS>ATOM
      1 C          46.5294   11.4464  -29.2435 C.ar    1  UNL1       -0.0145
      2 C          46.9827   11.3388  -27.9087 C.ar    1  UNL1        0.0134
      3 C          46.9513   12.4751  -27.0964 C.ar    1  UNL1        0.0597
      4 C          46.5046   13.6834  -27.5868 C.ar    1  UNL1        0.0177
      5 C          46.0644   13.8349  -28.8974 C.ar    1  UNL1        0.0079
      6 C          46.0790   12.7068  -29.7376 C.ar    1  UNL1        0.0307
      7 BR         45.4924   12.9425  -31.5491 Br      1  UNL1       -0.0493
      8 C          46.6345   14.5920  -26.5610 C.ar    1  UNL1        0.0177
      9 C          46.3614   15.9570  -26.4975 C.ar    1  UNL1        0.0082
     10 C          46.6336   16.6240  -25.2894 C.ar    1  UNL1        0.0347
     11 BR         46.2809   18.4945  -25.1394 Br      1  UNL1       -0.0490
     12 C          47.1715   15.9196  -24.1889 C.ar    1  UNL1        0.0082
     13 C          47.4410   14.5421  -24.2823 C.ar    1  UNL1        0.0177
     14 C          47.1562   13.8957  -25.4892 C.ar    1  UNL1        0.0600
     15 N          47.3456   12.5888  -25.8018 N.ar    1  UNL1       -0.3246
     16 C          47.6641    9.2568  -29.6400 C.3     1  UNL1        0.0050
     17 C          46.5945   10.2275  -30.1307 C.3     1  UNL1        0.0269
     18 C          47.9371   11.5502  -24.9519 C.3     1  UNL1        0.1365
     19 C          49.4596   11.4913  -25.1527 C.3     1  UNL1        0.1486
     20 O          49.7824   10.4240  -26.0066 O.3     1  UNL1       -0.3811
     21 H          50.7058   10.5871  -26.3329 H       1  UNL1        0.2105
     22 C          50.1883   11.3364  -23.8075 C.3     1  UNL1        0.1001
     23 N          49.4273   11.9887  -22.7298 N.3     1  UNL1       -0.2965
     24 H          48.4143   11.8520  -22.9556 H       1  UNL1        0.1233
     25 C          49.7259   11.4045  -21.4043 C.3     1  UNL1        0.0540
     26 C          49.5993    9.8541  -21.4332 C.3     1  UNL1        0.0157
     27 C          48.1740    9.3316  -21.1409 C.3     1  UNL1        0.0014
     28 C          47.0932   10.3661  -21.4719 C.3     1  UNL1        0.0001
     29 C          47.2866   11.6707  -20.6734 C.3     1  UNL1        0.0014
     30 C          48.7628   11.9717  -20.3402 C.3     1  UNL1        0.0157
@<TRIPOS>BOND
     1    16    17    1
     2    17     1    1
     3     1     2   ar
     4     2     3   ar
     5     3     4   ar
     6     4     5   ar
     7     5     6   ar
     8     6     7    1
     9     4     8   ar
    10     8     9   ar
    11     9    10   ar
    12    10    11    1
    13    10    12   ar
    14    12    13   ar
    15    13    14   ar
    16    14    15   ar
    17    15    18    1
    18    18    19    1
    19    19    20    1
    20    19    22    1
    21    22    23    1
    22    23    25    1
    23    25    26    1
    24    26    27    1
    25    27    28    1
    26    28    29    1
    27    29    30    1
    28     6     1   ar
    29    14     8   ar
    30    30    25    1
    31    15     3   ar
    32    20    21    1
    33    23    24    1
@<TRIPOS>MOLECULE
*****
 30 33 0 0 0
SMALL
GASTEIGER

@<TRIPOS>ATOM
      1 C          47.6887   12.5609  -22.2328 C.ar    1  UNL1       -0.0145
      2 C          47.0912   13.7592  -22.6865 C.ar    1  UNL1        0.0134
      3 C          46.7468   13.8672  -24.0362 C.ar    1  UNL1        0.0597
      4 C          46.9981   12.8359  -24.9155 C.ar    1  UNL1        0.0177
      5 C          47.5973   11.6471  -24.5126 C.ar    1  UNL1        0.0079
      6 C          47.9502   11.5069  -23.1581 C.ar    1  UNL1        0.0307
      7 BR         48.7991    9.8700  -22.6277 Br      1  UNL1       -0.0493
      8 C          46.5797   13.2687  -26.1533 C.ar    1  UNL1        0.0177
      9 C          46.6126   12.6561  -27.4045 C.ar    1  UNL1        0.0082
     10 C          46.1249   13.3855  -28.5040 C.ar    1  UNL1        0.0347
     11 BR         46.1429   12.6010  -30.2447 Br      1  UNL1       -0.0490
     12 C          45.6274   14.6964  -28.3288 C.ar    1  UNL1        0.0082
     13 C          45.6095   15.2916  -27.0543 C.ar    1  UNL1        0.0177
     14 C          46.0915   14.5473  -25.9731 C.ar    1  UNL1        0.0600
     15 N          46.1782   14.9240  -24.6722 N.ar    1  UNL1       -0.3246
     16 C          46.9125   12.0090  -19.9236 C.3     1  UNL1        0.0050
     17 C          48.0912   12.4567  -20.7822 C.3     1  UNL1        0.0269
     18 C          45.8215   16.2264  -24.1002 C.3     1  UNL1        0.1365
     19 C          47.0682   17.1140  -23.9606 C.3     1  UNL1        0.1486
     20 O          47.1195   17.6563  -22.6661 O.3     1  UNL1       -0.3811
     21 H          48.0491   17.9752  -22.5254 H       1  UNL1        0.2105
     22 C          47.0657   18.2385  -25.0095 C.3     1  UNL1        0.1001
     23 N          48.4358   18.7132  -25.2611 N.3     1  UNL1       -0.2965
     24 H          49.0657   18.1428  -24.6497 H       1  UNL1        0.1233
     25 C          48.8317   18.5481  -26.6765 C.3     1  UNL1        0.0540
     26 C          48.4022   17.1550  -27.2203 C.3     1  UNL1        0.0157
     27 C          49.4446   16.0376  -26.9872 C.3     1  UNL1        0.0014
     28 C          50.3655   16.3362  -25.7995 C.3     1  UNL1        0.0001
     29 C          51.1327   17.6600  -25.9894 C.3     1  UNL1        0.0014
     30 C          50.3601   18.7010  -26.8262 C.3     1  UNL1        0.0157
@<TRIPOS>BOND
     1    16    17    1
     2    17     1    1
     3     1     2   ar
     4     2     3   ar
     5     3     4   ar
     6     4     5   ar
     7     5     6   ar
     8     6     7    1
     9     4     8   ar
    10     8     9   ar
    11     9    10   ar
    12    10    11    1
    13    10    12   ar
    14    12    13   ar
    15    13    14   ar
    16    14    15   ar
    17    15    18    1
    18    18    19    1
    19    19    20    1
    20    19    22    1
    21    22    23    1
    22    23    25    1
    23    25    26    1
    24    26    27    1
    25    27    28    1
    26    28    29    1
    27    29    30    1
    28     6     1   ar
    29    14     8   ar
    30    30    25    1
    31    15     3   ar
    32    20    21    1
    33    23    24    1
@<TRIPOS>MOLECULE
*****
 30 33 0 0 0
SMALL
GASTEIGER

@<TRIPOS>ATOM
      1 C          47.0809   12.8901  -22.9176 C.ar    1  UNL1       -0.0145
      2 C          48.3549   13.4033  -22.5824 C.ar    1  UNL1        0.0134
      3 C          48.8327   14.5175  -23.2768 C.ar    1  UNL1        0.0597
      4 C          48.0883   15.0980  -24.2813 C.ar    1  UNL1        0.0177
      5 C          46.8377   14.6151  -24.6515 C.ar    1  UNL1        0.0079
      6 C          46.3277   13.4974  -23.9661 C.ar    1  UNL1        0.0307
      7 BR         44.6126   12.8307  -24.5093 Br      1  UNL1       -0.0493
      8 C          48.8464   16.1334  -24.7792 C.ar    1  UNL1        0.0177
      9 C          48.6067   17.0396  -25.8102 C.ar    1  UNL1        0.0082
     10 C          49.6107   17.9806  -26.1019 C.ar    1  UNL1        0.0347
     11 BR         49.3421   19.2493  -27.5034 Br      1  UNL1       -0.0490
     12 C          50.8182   17.9889  -25.3681 C.ar    1  UNL1        0.0082
     13 C          51.0350   17.0597  -24.3344 C.ar    1  UNL1        0.0177
     14 C          50.0217   16.1375  -24.0548 C.ar    1  UNL1        0.0600
     15 N          50.0216   15.1547  -23.1190 N.ar    1  UNL1       -0.3246
     16 C          47.2512   11.5324  -20.8279 C.3     1  UNL1        0.0050
     17 C          46.5792   11.6665  -22.1907 C.3     1  UNL1        0.0269
     18 C          51.1113   14.8020  -22.2031 C.3     1  UNL1        0.1365
     19 C          51.4664   13.3127  -22.3353 C.3     1  UNL1        0.1486
     20 O          52.1040   12.8733  -21.1636 O.3     1  UNL1       -0.3811
     21 H          52.0592   11.8815  -21.1674 H       1  UNL1        0.2105
     22 C          52.3678   13.0663  -23.5566 C.3     1  UNL1        0.1001
     23 N          52.5270   11.6233  -23.7983 N.3     1  UNL1       -0.2965
     24 H          51.9077   11.1358  -23.1094 H       1  UNL1        0.1233
     25 C          52.1393   11.2426  -25.1738 C.3     1  UNL1        0.0540
     26 C          50.8169   11.9438  -25.5984 C.3     1  UNL1        0.0157
     27 C          49.5380   11.1640  -25.2163 C.3     1  UNL1        0.0014
     28 C          49.7600   10.2250  -24.0260 C.3     1  UNL1        0.0001
     29 C          50.8699    9.1934  -24.3106 C.3     1  UNL1        0.0014
     30 C          51.9567    9.7134  -25.2745 C.3     1  UNL1        0.0157
@<TRIPOS>BOND
     1    16    17    1
     2    17     1    1
     3     1     2   ar
     4     2     3   ar
     5     3     4   ar
     6     4     5   ar
     7     5     6   ar
     8     6     7    1
     9     4     8   ar
    10     8     9   ar
    11     9    10   ar
    12    10    11    1
    13    10    12   ar
    14    12    13   ar
    15    13    14   ar
    16    14    15   ar
    17    15    18    1
    18    18    19    1
    19    19    20    1
    20    19    22    1
    21    22    23    1
    22    23    25    1
    23    25    26    1
    24    26    27    1
    25    27    28    1
    26    28    29    1
    27    29    30    1
    28     6     1   ar
    29    14     8   ar
    30    30    25    1
    31    15     3   ar
    32    20    21    1
    33    23    24    1
@<TRIPOS>MOLECULE
*****
 30 33 0 0 0
SMALL
GASTEIGER

@<TRIPOS>ATOM
      1 C          51.0627   10.5469  -24.9231 C.ar    1  UNL1       -0.0145
      2 C          50.3125   11.2379  -23.9441 C.ar    1  UNL1        0.0134
      3 C          50.0389   12.5935  -24.1426 C.ar    1  UNL1        0.0597
      4 C          50.5033   13.2530  -25.2604 C.ar    1  UNL1        0.0177
      5 C          51.2567   12.6136  -26.2392 C.ar    1  UNL1        0.0079
      6 C          51.5436   11.2469  -26.0696 C.ar    1  UNL1        0.0307
      7 BR         52.6061   10.3897  -27.4177 Br      1  UNL1       -0.0493
      8 C          50.0986   14.5627  -25.1362 C.ar    1  UNL1        0.0177
      9 C          50.3045   15.6733  -25.9523 C.ar    1  UNL1        0.0082
     10 C          49.7761   16.9056  -25.5271 C.ar    1  UNL1        0.0347
     11 BR         50.0245   18.4644  -26.6014 Br      1  UNL1       -0.0490
     12 C          49.0681   16.9977  -24.3077 C.ar    1  UNL1        0.0082
     13 C          48.8783   15.8606  -23.5016 C.ar    1  UNL1        0.0177
     14 C          49.4045   14.6435  -23.9456 C.ar    1  UNL1        0.0600
     15 N          49.3507   13.4357  -23.3292 N.ar    1  UNL1       -0.3246
     16 C          50.3805    8.4566  -23.7381 C.3     1  UNL1        0.0050
     17 C          51.3869    9.0912  -24.6927 C.3     1  UNL1        0.0269
     18 C          48.7585   13.1325  -22.0222 C.3     1  UNL1        0.1365
     19 C          47.2289   13.0330  -22.1331 C.3     1  UNL1        0.1486
     20 O          46.6700   12.9015  -20.8514 O.3     1  UNL1       -0.3811
     21 H          45.7059   13.1236  -20.9348 H       1  UNL1        0.2105
     22 C          46.8156   11.8458  -23.0188 C.3     1  UNL1        0.1001
     23 N          46.9929   12.1768  -24.4418 N.3     1  UNL1       -0.2965
     24 H          47.6140   11.4367  -24.8447 H       1  UNL1        0.1233
     25 C          45.7074   12.2010  -25.1728 C.3     1  UNL1        0.0540
     26 C          45.9014   11.7959  -26.6624 C.3     1  UNL1        0.0157
     27 C          46.2476   12.9770  -27.5978 C.3     1  UNL1        0.0014
     28 C          46.9067   14.1407  -26.8500 C.3     1  UNL1        0.0001
     29 C          46.0022   14.6835  -25.7256 C.3     1  UNL1        0.0014
     30 C          45.0814   13.6101  -25.1084 C.3     1  UNL1        0.0157
@<TRIPOS>BOND
     1    16    17    1
     2    17     1    1
     3     1     2   ar
     4     2     3   ar
     5     3     4   ar
     6     4     5   ar
     7     5     6   ar
     8     6     7    1
     9     4     8   ar
    10     8     9   ar
    11     9    10   ar
    12    10    11    1
    13    10    12   ar
    14    12    13   ar
    15    13    14   ar
    16    14    15   ar
    17    15    18    1
    18    18    19    1
    19    19    20    1
    20    19    22    1
    21    22    23    1
    22    23    25    1
    23    25    26    1
    24    26    27    1
    25    27    28    1
    26    28    29    1
    27    29    30    1
    28     6     1   ar
    29    14     8   ar
    30    30    25    1
    31    15     3   ar
    32    20    21    1
    33    23    24    1
@<TRIPOS>MOLECULE
*****
 30 33 0 0 0
SMALL
GASTEIGER

@<TRIPOS>ATOM
      1 C          50.1405   11.3633  -25.8115 C.ar    1  UNL1       -0.0145
      2 C          48.7913   11.6670  -26.1050 C.ar    1  UNL1        0.0134
      3 C          48.3920   13.0058  -26.1126 C.ar    1  UNL1        0.0597
      4 C          49.2875   14.0131  -25.8236 C.ar    1  UNL1        0.0177
      5 C          50.6191   13.7558  -25.5155 C.ar    1  UNL1        0.0079
      6 C          51.0520   12.4174  -25.5055 C.ar    1  UNL1        0.0307
      7 BR         52.8860   12.0818  -25.0527 Br      1  UNL1       -0.0493
      8 C          48.5791   15.1919  -25.8797 C.ar    1  UNL1        0.0177
      9 C          48.9649   16.5118  -25.6537 C.ar    1  UNL1        0.0082
     10 C          47.9802   17.5101  -25.7640 C.ar    1  UNL1        0.0347
     11 BR         48.4461   19.3377  -25.4664 Br      1  UNL1       -0.0490
     12 C          46.6480   17.1681  -26.0880 C.ar    1  UNL1        0.0082
     13 C          46.2857   15.8267  -26.3073 C.ar    1  UNL1        0.0177
     14 C          47.2807   14.8499  -26.2006 C.ar    1  UNL1        0.0600
     15 N          47.1542   13.5079  -26.3578 N.ar    1  UNL1       -0.3246
     16 C          50.7336    9.3603  -27.1810 C.3     1  UNL1        0.0050
     17 C          50.5643    9.9155  -25.7703 C.3     1  UNL1        0.0269
     18 C          45.9243   12.7598  -26.6380 C.3     1  UNL1        0.1365
     19 C          45.4848   11.9615  -25.4005 C.3     1  UNL1        0.1486
     20 O          44.1521   11.5462  -25.5552 O.3     1  UNL1       -0.3811
     21 H          44.0004   10.8181  -24.8975 H       1  UNL1        0.2105
     22 C          45.6362   12.7999  -24.1202 C.3     1  UNL1        0.1001
     23 N          45.6906   11.9282  -22.9357 N.3     1  UNL1       -0.2965
     24 H          46.1280   11.0295  -23.2469 H       1  UNL1        0.1233
     25 C          46.4929   12.5213  -21.8438 C.3     1  UNL1        0.0540
     26 C          47.8545   13.0552  -22.3745 C.3     1  UNL1        0.0157
     27 C          48.9845   12.0004  -22.3872 C.3     1  UNL1        0.0014
     28 C          48.4458   10.5680  -22.4643 C.3     1  UNL1        0.0001
     29 C          47.5148   10.2425  -21.2792 C.3     1  UNL1        0.0014
     30 C          46.7546   11.4730  -20.7418 C.3     1  UNL1        0.0157
@<TRIPOS>BOND
     1    16    17    1
     2    17     1    1
     3     1     2   ar
     4     2     3   ar
     5     3     4   ar
     6     4     5   ar
     7     5     6   ar
     8     6     7    1
     9     4     8   ar
    10     8     9   ar
    11     9    10   ar
    12    10    11    1
    13    10    12   ar
    14    12    13   ar
    15    13    14   ar
    16    14    15   ar
    17    15    18    1
    18    18    19    1
    19    19    20    1
    20    19    22    1
    21    22    23    1
    22    23    25    1
    23    25    26    1
    24    26    27    1
    25    27    28    1
    26    28    29    1
    27    29    30    1
    28     6     1   ar
    29    14     8   ar
    30    30    25    1
    31    15     3   ar
    32    20    21    1
    33    23    24    1
@<TRIPOS>MOLECULE
*****
 30 33 0 0 0
SMALL
GASTEIGER

@<TRIPOS>ATOM
      1 C          47.0514   16.7897  -24.0634 C.ar    1  UNL1       -0.0145
      2 C          46.6747   15.4632  -23.7514 C.ar    1  UNL1        0.0134
      3 C          46.5518   14.5389  -24.7918 C.ar    1  UNL1        0.0597
      4 C          46.7752   14.9119  -26.0998 C.ar    1  UNL1        0.0177
      5 C          47.1327   16.2095  -26.4504 C.ar    1  UNL1        0.0079
      6 C          47.2698   17.1611  -25.4235 C.ar    1  UNL1        0.0307
      7 BR         47.7381   18.9514  -25.9303 Br      1  UNL1       -0.0493
      8 C          46.5388   13.7952  -26.8691 C.ar    1  UNL1        0.0177
      9 C          46.5873   13.5973  -28.2476 C.ar    1  UNL1        0.0082
     10 C          46.2574   12.3210  -28.7382 C.ar    1  UNL1        0.0347
     11 BR         46.3051   11.9866  -30.6174 Br      1  UNL1       -0.0490
     12 C          45.8858   11.2871  -27.8494 C.ar    1  UNL1        0.0082
     13 C          45.8418   11.5161  -26.4622 C.ar    1  UNL1        0.0177
     14 C          46.1807   12.7894  -25.9939 C.ar    1  UNL1        0.0600
     15 N          46.1955   13.2309  -24.7107 N.ar    1  UNL1       -0.3246
     16 C          45.7665   18.2726  -22.5178 C.3     1  UNL1        0.0050
     17 C          47.1517   17.7962  -22.9436 C.3     1  UNL1        0.0269
     18 C          45.8158   12.4796  -23.5098 C.3     1  UNL1        0.1365
     19 C          46.9582   11.5498  -23.0715 C.3     1  UNL1        0.1486
     20 O          46.5090   10.6998  -22.0477 O.3     1  UNL1       -0.3811
     21 H          47.1568    9.9495  -21.9930 H       1  UNL1        0.2105
     22 C          48.1768   12.3585  -22.5962 C.3     1  UNL1        0.1001
     23 N          49.3510   12.0626  -23.4326 N.3     1  UNL1       -0.2965
     24 H          49.0752   12.2760  -24.4196 H       1  UNL1        0.1233
     25 C          50.5244   12.8800  -23.0550 C.3     1  UNL1        0.0540
     26 C          50.1784   14.3968  -23.0663 C.3     1  UNL1        0.0157
     27 C          50.3732   15.0786  -24.4400 C.3     1  UNL1        0.0014
     28 C          50.2746   14.0866  -25.6037 C.3     1  UNL1        0.0001
     29 C          51.3224   12.9616  -25.4865 C.3     1  UNL1        0.0014
     30 C          51.6935   12.6198  -24.0283 C.3     1  UNL1        0.0157
@<TRIPOS>BOND
     1    16    17    1
     2    17     1    1
     3     1     2   ar
     4     2     3   ar
     5     3     4   ar
     6     4     5   ar
     7     5     6   ar
     8     6     7    1
     9     4     8   ar
    10     8     9   ar
    11     9    10   ar
    12    10    11    1
    13    10    12   ar
    14    12    13   ar
    15    13    14   ar
    16    14    15   ar
    17    15    18    1
    18    18    19    1
    19    19    20    1
    20    19    22    1
    21    22    23    1
    22    23    25    1
    23    25    26    1
    24    26    27    1
    25    27    28    1
    26    28    29    1
    27    29    30    1
    28     6     1   ar
    29    14     8   ar
    30    30    25    1
    31    15     3   ar
    32    20    21    1
    33    23    24    1
