@<TRIPOS>MOLECULE
*****
 35 38 0 0 0
SMALL
GASTEIGER

@<TRIPOS>ATOM
      1 C          46.0360   12.0467  -29.8633 C.ar    1  UNL1        0.1718
      2 C          46.3719   10.9855  -29.0053 C.ar    1  UNL1        0.0400
      3 C          46.7576   11.2336  -27.6896 C.ar    1  UNL1        0.0030
      4 C          46.8199   12.5448  -27.1976 C.ar    1  UNL1       -0.0015
      5 C          46.5163   13.6257  -28.0606 C.ar    1  UNL1        0.0145
      6 C          46.1069   13.3689  -29.3866 C.ar    1  UNL1        0.1636
      7 O          45.7724   14.4348  -30.2254 O.3     1  UNL1       -0.5031
      8 C          46.6376   15.0457  -27.5489 C.3     1  UNL1        0.0299
      9 C          45.5325   15.3935  -26.5381 C.3     1  UNL1        0.0091
     10 C          45.2291   14.2828  -25.5154 C.3     1  UNL1        0.0227
     11 C          46.4855   13.6199  -24.9764 C.2     1  UNL1       -0.0398
     12 C          47.2001   12.7754  -25.7733 C.2     1  UNL1       -0.0076
     13 H          45.4729   14.3003  -31.1835 H       1  UNL1        0.2923
     14 C          48.4285   12.1078  -25.2941 C.ar    1  UNL1        0.0056
     15 C          49.6819   12.5265  -25.7467 C.ar    1  UNL1        0.0402
     16 C          50.8576   11.8891  -25.3071 C.ar    1  UNL1        0.1754
     17 C          50.7585   10.8184  -24.3795 C.ar    1  UNL1        0.2061
     18 C          49.4947   10.4124  -23.9164 C.ar    1  UNL1        0.1754
     19 C          48.3357   11.0612  -24.3756 C.ar    1  UNL1        0.0402
     20 O          52.1152   12.3010  -25.7755 O.3     1  UNL1       -0.4683
     21 C          52.7769   11.7656  -26.9175 C.3     1  UNL1        0.2526
     22 O          51.8705   10.1156  -23.8765 O.3     1  UNL1       -0.4654
     23 C          52.5418    9.0283  -24.5031 C.3     1  UNL1        0.2528
     24 O          49.4336    9.3531  -22.9961 O.3     1  UNL1       -0.4683
     25 C          49.1930    9.5068  -21.6009 C.3     1  UNL1        0.2526
     26 C          46.1012   12.5633  -32.3130 C.3     1  UNL1        0.2526
     27 O          45.6309   11.8253  -31.1896 O.3     1  UNL1       -0.4684
     28 C          46.9355   13.9879  -23.5695 C.3     1  UNL1        0.0480
     29 C          48.2774   14.6926  -23.5719 C.ar    1  UNL1       -0.0221
     30 C          48.5015   15.6928  -24.5350 C.ar    1  UNL1       -0.0043
     31 C          49.7193   16.3709  -24.5911 C.ar    1  UNL1       -0.0003
     32 C          50.7319   16.0640  -23.6850 C.ar    1  UNL1       -0.0003
     33 C          50.5304   15.0784  -22.7179 C.ar    1  UNL1       -0.0046
     34 C          49.3109   14.3806  -22.6471 C.ar    1  UNL1       -0.0255
     35 C          49.1343   13.3365  -21.5749 C.3     1  UNL1        0.0307
@<TRIPOS>BOND
     1    26    27    1
     2    27     1    1
     3     1     2   ar
     4     2     3   ar
     5     3     4   ar
     6     4     5   ar
     7     5     6   ar
     8     6     7    1
     9     5     8    1
    10     8     9    1
    11     9    10    1
    12    10    11    1
    13    11    28    1
    14    28    29    1
    15    29    30   ar
    16    30    31   ar
    17    31    32   ar
    18    32    33   ar
    19    33    34   ar
    20    34    35    1
    21    11    12    2
    22    12    14    1
    23    14    15   ar
    24    15    16   ar
    25    16    20    1
    26    20    21    1
    27    16    17   ar
    28    17    22    1
    29    22    23    1
    30    17    18   ar
    31    18    24    1
    32    24    25    1
    33    18    19   ar
    34     6     1   ar
    35    34    29   ar
    36    19    14   ar
    37    12     4    1
    38     7    13    1
@<TRIPOS>MOLECULE
*****
 35 38 0 0 0
SMALL
GASTEIGER

@<TRIPOS>ATOM
      1 C          46.0370   11.9999  -29.8507 C.ar    1  UNL1        0.1718
      2 C          46.3616   10.9393  -28.9878 C.ar    1  UNL1        0.0400
      3 C          46.7452   11.1891  -27.6718 C.ar    1  UNL1        0.0030
      4 C          46.8166   12.5017  -27.1845 C.ar    1  UNL1       -0.0015
      5 C          46.5245   13.5817  -28.0525 C.ar    1  UNL1        0.0145
      6 C          46.1170   13.3233  -29.3788 C.ar    1  UNL1        0.1636
      7 O          45.7938   14.3888  -30.2226 O.3     1  UNL1       -0.5031
      8 C          46.6556   15.0026  -27.5456 C.3     1  UNL1        0.0299
      9 C          45.5502   15.3630  -26.5396 C.3     1  UNL1        0.0091
     10 C          45.2348   14.2587  -25.5138 C.3     1  UNL1        0.0227
     11 C          46.4841   13.5876  -24.9683 C.2     1  UNL1       -0.0398
     12 C          47.1942   12.7344  -25.7598 C.2     1  UNL1       -0.0076
     13 H          45.4961   14.2531  -31.1810 H       1  UNL1        0.2923
     14 C          48.4157   12.0587  -25.2744 C.ar    1  UNL1        0.0056
     15 C          48.3251   11.0133  -24.3524 C.ar    1  UNL1        0.0402
     16 C          49.4828   10.3716  -23.8731 C.ar    1  UNL1        0.1754
     17 C          50.7531   10.7889  -24.3514 C.ar    1  UNL1        0.2061
     18 C          50.8358   11.8313  -25.2911 C.ar    1  UNL1        0.1754
     19 C          49.6653   12.4599  -25.7489 C.ar    1  UNL1        0.0402
     20 O          49.3904    9.3318  -22.9345 O.3     1  UNL1       -0.4683
     21 C          48.9813    9.4890  -21.5793 C.3     1  UNL1        0.2526
     22 O          51.9705   10.2137  -23.9383 O.3     1  UNL1       -0.4654
     23 C          52.5938    9.0590  -24.4893 C.3     1  UNL1        0.2528
     24 O          52.1079   12.2158  -25.7460 O.3     1  UNL1       -0.4683
     25 C          52.6991   11.7731  -26.9636 C.3     1  UNL1        0.2526
     26 C          46.0765   12.5389  -32.2962 C.3     1  UNL1        0.2526
     27 O          45.6341   11.7769  -31.1775 O.3     1  UNL1       -0.4684
     28 C          46.9327   13.9572  -23.5614 C.3     1  UNL1        0.0480
     29 C          48.2765   14.6583  -23.5629 C.ar    1  UNL1       -0.0221
     30 C          48.5071   15.6520  -24.5312 C.ar    1  UNL1       -0.0043
     31 C          49.7269   16.3264  -24.5868 C.ar    1  UNL1       -0.0003
     32 C          50.7352   16.0222  -23.6749 C.ar    1  UNL1       -0.0003
     33 C          50.5273   15.0431  -22.7027 C.ar    1  UNL1       -0.0046
     34 C          49.3056   14.3490  -22.6323 C.ar    1  UNL1       -0.0255
     35 C          49.1220   13.3119  -21.5545 C.3     1  UNL1        0.0307
@<TRIPOS>BOND
     1    26    27    1
     2    27     1    1
     3     1     2   ar
     4     2     3   ar
     5     3     4   ar
     6     4     5   ar
     7     5     6   ar
     8     6     7    1
     9     5     8    1
    10     8     9    1
    11     9    10    1
    12    10    11    1
    13    11    28    1
    14    28    29    1
    15    29    30   ar
    16    30    31   ar
    17    31    32   ar
    18    32    33   ar
    19    33    34   ar
    20    34    35    1
    21    11    12    2
    22    12    14    1
    23    14    15   ar
    24    15    16   ar
    25    16    20    1
    26    20    21    1
    27    16    17   ar
    28    17    22    1
    29    22    23    1
    30    17    18   ar
    31    18    24    1
    32    24    25    1
    33    18    19   ar
    34     6     1   ar
    35    34    29   ar
    36    19    14   ar
    37    12     4    1
    38     7    13    1
@<TRIPOS>MOLECULE
*****
 35 38 0 0 0
SMALL
GASTEIGER

@<TRIPOS>ATOM
      1 C          50.3401   17.5864  -25.2681 C.ar    1  UNL1        0.1718
      2 C          50.9296   16.3199  -25.4201 C.ar    1  UNL1        0.0400
      3 C          50.1449   15.2022  -25.6968 C.ar    1  UNL1        0.0030
      4 C          48.7540   15.3191  -25.8267 C.ar    1  UNL1       -0.0015
      5 C          48.1430   16.5834  -25.6431 C.ar    1  UNL1        0.0145
      6 C          48.9435   17.7163  -25.3827 C.ar    1  UNL1        0.1636
      7 O          48.3421   18.9690  -25.2384 O.3     1  UNL1       -0.5031
      8 C          46.6359   16.7028  -25.7265 C.3     1  UNL1        0.0299
      9 C          46.1202   16.5352  -27.1652 C.3     1  UNL1        0.0091
     10 C          46.7981   15.4032  -27.9593 C.3     1  UNL1        0.0227
     11 C          46.9931   14.1414  -27.1357 C.2     1  UNL1       -0.0398
     12 C          47.9453   14.1104  -26.1606 C.2     1  UNL1       -0.0076
     13 H          48.8746   19.8100  -25.0516 H       1  UNL1        0.2923
     14 C          48.1717   12.9068  -25.3333 C.ar    1  UNL1        0.0056
     15 C          49.2069   12.0216  -25.6432 C.ar    1  UNL1        0.0402
     16 C          49.4231   10.8652  -24.8701 C.ar    1  UNL1        0.1754
     17 C          48.5830   10.6128  -23.7533 C.ar    1  UNL1        0.2061
     18 C          47.5529   11.5161  -23.4380 C.ar    1  UNL1        0.1754
     19 C          47.3540   12.6600  -24.2297 C.ar    1  UNL1        0.0402
     20 O          50.4540    9.9686  -25.1929 O.3     1  UNL1       -0.4683
     21 C          51.8279   10.1518  -24.8653 C.3     1  UNL1        0.2526
     22 O          48.7146    9.4884  -22.9155 O.3     1  UNL1       -0.4654
     23 C          49.5504    9.3775  -21.7689 C.3     1  UNL1        0.2528
     24 O          46.7437   11.2379  -22.3242 O.3     1  UNL1       -0.4683
     25 C          46.6570   12.0573  -21.1627 C.3     1  UNL1        0.2526
     26 C          52.4340   18.7153  -24.4848 C.3     1  UNL1        0.2526
     27 O          51.1076   18.7322  -25.0024 O.3     1  UNL1       -0.4684
     28 C          46.0542   12.9715  -27.3947 C.3     1  UNL1        0.0480
     29 C          46.1138   12.5079  -28.8366 C.ar    1  UNL1       -0.0221
     30 C          45.6267   13.3722  -29.8336 C.ar    1  UNL1       -0.0043
     31 C          45.6483   12.9975  -31.1771 C.ar    1  UNL1       -0.0003
     32 C          46.1593   11.7557  -31.5477 C.ar    1  UNL1       -0.0003
     33 C          46.6521   10.8837  -30.5762 C.ar    1  UNL1       -0.0046
     34 C          46.6358   11.2412  -29.2156 C.ar    1  UNL1       -0.0255
     35 C          47.1943   10.2731  -28.2048 C.3     1  UNL1        0.0307
@<TRIPOS>BOND
     1    26    27    1
     2    27     1    1
     3     1     2   ar
     4     2     3   ar
     5     3     4   ar
     6     4     5   ar
     7     5     6   ar
     8     6     7    1
     9     5     8    1
    10     8     9    1
    11     9    10    1
    12    10    11    1
    13    11    28    1
    14    28    29    1
    15    29    30   ar
    16    30    31   ar
    17    31    32   ar
    18    32    33   ar
    19    33    34   ar
    20    34    35    1
    21    11    12    2
    22    12    14    1
    23    14    15   ar
    24    15    16   ar
    25    16    20    1
    26    20    21    1
    27    16    17   ar
    28    17    22    1
    29    22    23    1
    30    17    18   ar
    31    18    24    1
    32    24    25    1
    33    18    19   ar
    34     6     1   ar
    35    34    29   ar
    36    19    14   ar
    37    12     4    1
    38     7    13    1
@<TRIPOS>MOLECULE
*****
 35 38 0 0 0
SMALL
GASTEIGER

@<TRIPOS>ATOM
      1 C          50.3293   17.5933  -25.2717 C.ar    1  UNL1        0.1718
      2 C          50.9143   16.3247  -25.4244 C.ar    1  UNL1        0.0400
      3 C          50.1260   15.2105  -25.7047 C.ar    1  UNL1        0.0030
      4 C          48.7358   15.3330  -25.8376 C.ar    1  UNL1       -0.0015
      5 C          48.1293   16.5993  -25.6534 C.ar    1  UNL1        0.0145
      6 C          48.9335   17.7287  -25.3894 C.ar    1  UNL1        0.1636
      7 O          48.3366   18.9835  -25.2444 O.3     1  UNL1       -0.5031
      8 C          46.6228   16.7246  -25.7401 C.3     1  UNL1        0.0299
      9 C          46.1099   16.5613  -27.1803 C.3     1  UNL1        0.0091
     10 C          46.7852   15.4280  -27.9746 C.3     1  UNL1        0.0227
     11 C          46.9734   14.1642  -27.1526 C.2     1  UNL1       -0.0398
     12 C          47.9233   14.1279  -26.1753 C.2     1  UNL1       -0.0076
     13 H          48.8718   19.8222  -25.0551 H       1  UNL1        0.2923
     14 C          48.1431   12.9222  -25.3494 C.ar    1  UNL1        0.0056
     15 C          47.3198   12.6583  -24.2522 C.ar    1  UNL1        0.0402
     16 C          47.5286   11.5199  -23.4507 C.ar    1  UNL1        0.1754
     17 C          48.5820   10.6262  -23.7797 C.ar    1  UNL1        0.2061
     18 C          49.3969   10.8899  -24.8946 C.ar    1  UNL1        0.1754
     19 C          49.1715   12.0368  -25.6748 C.ar    1  UNL1        0.0402
     20 O          46.7100   11.2651  -22.3391 O.3     1  UNL1       -0.4683
     21 C          46.6602   12.0644  -21.1613 C.3     1  UNL1        0.2526
     22 O          48.8746    9.4602  -23.0459 O.3     1  UNL1       -0.4654
     23 C          49.6010    9.3861  -21.8243 C.3     1  UNL1        0.2528
     24 O          50.4267    9.9827  -25.1937 O.3     1  UNL1       -0.4683
     25 C          51.0369    9.8452  -26.4731 C.3     1  UNL1        0.2526
     26 C          52.4302   18.7125  -24.4934 C.3     1  UNL1        0.2526
     27 O          51.1006   18.7357  -25.0025 O.3     1  UNL1       -0.4684
     28 C          46.0307   12.9983  -27.4156 C.3     1  UNL1        0.0480
     29 C          46.1000   12.5296  -28.8554 C.ar    1  UNL1       -0.0221
     30 C          45.6161   13.3886  -29.8584 C.ar    1  UNL1       -0.0043
     31 C          45.6466   13.0090  -31.2004 C.ar    1  UNL1       -0.0003
     32 C          46.1635   11.7673  -31.5633 C.ar    1  UNL1       -0.0003
     33 C          46.6534   10.9004  -30.5857 C.ar    1  UNL1       -0.0046
     34 C          46.6281   11.2630  -29.2266 C.ar    1  UNL1       -0.0255
     35 C          47.1836   10.3004  -28.2089 C.3     1  UNL1        0.0307
@<TRIPOS>BOND
     1    26    27    1
     2    27     1    1
     3     1     2   ar
     4     2     3   ar
     5     3     4   ar
     6     4     5   ar
     7     5     6   ar
     8     6     7    1
     9     5     8    1
    10     8     9    1
    11     9    10    1
    12    10    11    1
    13    11    28    1
    14    28    29    1
    15    29    30   ar
    16    30    31   ar
    17    31    32   ar
    18    32    33   ar
    19    33    34   ar
    20    34    35    1
    21    11    12    2
    22    12    14    1
    23    14    15   ar
    24    15    16   ar
    25    16    20    1
    26    20    21    1
    27    16    17   ar
    28    17    22    1
    29    22    23    1
    30    17    18   ar
    31    18    24    1
    32    24    25    1
    33    18    19   ar
    34     6     1   ar
    35    34    29   ar
    36    19    14   ar
    37    12     4    1
    38     7    13    1
@<TRIPOS>MOLECULE
*****
 35 38 0 0 0
SMALL
GASTEIGER

@<TRIPOS>ATOM
      1 C          48.0276   10.9643  -21.8054 C.ar    1  UNL1        0.1718
      2 C          48.2281   10.4145  -23.0831 C.ar    1  UNL1        0.0400
      3 C          48.3691   11.2415  -24.1956 C.ar    1  UNL1        0.0030
      4 C          48.3119   12.6359  -24.0623 C.ar    1  UNL1       -0.0015
      5 C          48.0771   13.2025  -22.7860 C.ar    1  UNL1        0.0145
      6 C          47.9547   12.3620  -21.6588 C.ar    1  UNL1        0.1636
      7 O          47.7599   12.9247  -20.3950 O.3     1  UNL1       -0.5031
      8 C          47.9580   14.7057  -22.6476 C.3     1  UNL1        0.0299
      9 C          49.3091   15.4139  -22.8397 C.3     1  UNL1        0.0091
     10 C          50.1607   14.8626  -23.9982 C.3     1  UNL1        0.0227
     11 C          49.3415   14.5709  -25.2441 C.2     1  UNL1       -0.0398
     12 C          48.5041   13.4953  -25.2668 C.2     1  UNL1       -0.0076
     13 H          47.6671   12.3628  -19.5575 H       1  UNL1        0.2923
     14 C          47.6868   13.1714  -26.4548 C.ar    1  UNL1        0.0056
     15 C          47.5883   11.8531  -26.9059 C.ar    1  UNL1        0.0402
     16 C          46.8235   11.5352  -28.0443 C.ar    1  UNL1        0.1754
     17 C          46.1341   12.5727  -28.7262 C.ar    1  UNL1        0.2061
     18 C          46.2252   13.8951  -28.2574 C.ar    1  UNL1        0.1754
     19 C          47.0005   14.1869  -27.1222 C.ar    1  UNL1        0.0402
     20 O          46.7389   10.2120  -28.5053 O.3     1  UNL1       -0.4683
     21 C          47.6198    9.6203  -29.4553 C.3     1  UNL1        0.2526
     22 O          45.3423   12.3625  -29.8717 O.3     1  UNL1       -0.4654
     23 C          45.7638   12.4717  -31.2266 C.3     1  UNL1        0.2528
     24 O          45.5271   14.8957  -28.9532 O.3     1  UNL1       -0.4683
     25 C          45.2156   16.1809  -28.4247 C.3     1  UNL1        0.2526
     26 C          48.9676    9.4554  -20.0414 C.3     1  UNL1        0.2526
     27 O          47.8958   10.1555  -20.6648 O.3     1  UNL1       -0.4684
     28 C          49.4428   15.5488  -26.4063 C.3     1  UNL1        0.0480
     29 C          48.9391   16.9279  -26.0297 C.ar    1  UNL1       -0.0221
     30 C          47.5830   17.0692  -25.6845 C.ar    1  UNL1       -0.0043
     31 C          47.0601   18.3147  -25.3363 C.ar    1  UNL1       -0.0003
     32 C          47.8829   19.4388  -25.3240 C.ar    1  UNL1       -0.0003
     33 C          49.2325   19.3217  -25.6587 C.ar    1  UNL1       -0.0046
     34 C          49.7782   18.0753  -26.0162 C.ar    1  UNL1       -0.0255
     35 C          51.2448   17.9958  -26.3535 C.3     1  UNL1        0.0307
@<TRIPOS>BOND
     1    26    27    1
     2    27     1    1
     3     1     2   ar
     4     2     3   ar
     5     3     4   ar
     6     4     5   ar
     7     5     6   ar
     8     6     7    1
     9     5     8    1
    10     8     9    1
    11     9    10    1
    12    10    11    1
    13    11    28    1
    14    28    29    1
    15    29    30   ar
    16    30    31   ar
    17    31    32   ar
    18    32    33   ar
    19    33    34   ar
    20    34    35    1
    21    11    12    2
    22    12    14    1
    23    14    15   ar
    24    15    16   ar
    25    16    20    1
    26    20    21    1
    27    16    17   ar
    28    17    22    1
    29    22    23    1
    30    17    18   ar
    31    18    24    1
    32    24    25    1
    33    18    19   ar
    34     6     1   ar
    35    34    29   ar
    36    19    14   ar
    37    12     4    1
    38     7    13    1
@<TRIPOS>MOLECULE
*****
 35 38 0 0 0
SMALL
GASTEIGER

@<TRIPOS>ATOM
      1 C          45.9103   12.9079  -29.0615 C.ar    1  UNL1        0.1718
      2 C          46.2044   11.8021  -28.2456 C.ar    1  UNL1        0.0400
      3 C          46.8076   11.9801  -27.0023 C.ar    1  UNL1        0.0030
      4 C          47.1341   13.2637  -26.5427 C.ar    1  UNL1       -0.0015
      5 C          46.8738   14.3842  -27.3686 C.ar    1  UNL1        0.0145
      6 C          46.2446   14.2012  -28.6186 C.ar    1  UNL1        0.1636
      7 O          45.9553   15.3113  -29.4159 O.3     1  UNL1       -0.5031
      8 C          47.2769   15.7663  -26.8996 C.3     1  UNL1        0.0299
      9 C          46.3926   16.2674  -25.7461 C.3     1  UNL1        0.0091
     10 C          46.0776   15.2068  -24.6750 C.3     1  UNL1        0.0227
     11 C          47.2857   14.3600  -24.3120 C.2     1  UNL1       -0.0398
     12 C          47.7449   13.4243  -25.1909 C.2     1  UNL1       -0.0076
     13 H          45.5046   15.2301  -30.3192 H       1  UNL1        0.2923
     14 C          48.9163   12.5775  -24.8831 C.ar    1  UNL1        0.0056
     15 C          50.1969   12.9741  -25.2758 C.ar    1  UNL1        0.0402
     16 C          51.3180   12.1688  -24.9996 C.ar    1  UNL1        0.1754
     17 C          51.1365   10.9474  -24.2982 C.ar    1  UNL1        0.2061
     18 C          49.8468   10.5620  -23.8924 C.ar    1  UNL1        0.1754
     19 C          48.7431   11.3809  -24.1861 C.ar    1  UNL1        0.0402
     20 O          52.6020   12.5616  -25.4092 O.3     1  UNL1       -0.4683
     21 C          53.3185   11.9972  -26.5032 C.3     1  UNL1        0.2526
     22 O          52.1891   10.0709  -23.9710 O.3     1  UNL1       -0.4654
     23 C          52.5688    8.8978  -24.6817 C.3     1  UNL1        0.2528
     24 O          49.7039    9.3501  -23.1969 O.3     1  UNL1       -0.4683
     25 C          49.5488    9.2412  -21.7855 C.3     1  UNL1        0.2526
     26 C          45.9404   12.2798  -31.4857 C.3     1  UNL1        0.2526
     27 O          45.2905   12.7594  -30.3130 O.3     1  UNL1       -0.4684
     28 C          47.9827   14.6462  -22.9893 C.3     1  UNL1        0.0480
     29 C          47.7141   13.5634  -21.9633 C.ar    1  UNL1       -0.0221
     30 C          46.4712   12.9059  -22.0002 C.ar    1  UNL1       -0.0043
     31 C          46.1639   11.9062  -21.0772 C.ar    1  UNL1       -0.0003
     32 C          47.0930   11.5443  -20.1043 C.ar    1  UNL1       -0.0003
     33 C          48.3342   12.1798  -20.0513 C.ar    1  UNL1       -0.0046
     34 C          48.6619   13.1929  -20.9708 C.ar    1  UNL1       -0.0255
     35 C          50.0209   13.8385  -20.8843 C.3     1  UNL1        0.0307
@<TRIPOS>BOND
     1    26    27    1
     2    27     1    1
     3     1     2   ar
     4     2     3   ar
     5     3     4   ar
     6     4     5   ar
     7     5     6   ar
     8     6     7    1
     9     5     8    1
    10     8     9    1
    11     9    10    1
    12    10    11    1
    13    11    28    1
    14    28    29    1
    15    29    30   ar
    16    30    31   ar
    17    31    32   ar
    18    32    33   ar
    19    33    34   ar
    20    34    35    1
    21    11    12    2
    22    12    14    1
    23    14    15   ar
    24    15    16   ar
    25    16    20    1
    26    20    21    1
    27    16    17   ar
    28    17    22    1
    29    22    23    1
    30    17    18   ar
    31    18    24    1
    32    24    25    1
    33    18    19   ar
    34     6     1   ar
    35    34    29   ar
    36    19    14   ar
    37    12     4    1
    38     7    13    1
@<TRIPOS>MOLECULE
*****
 35 38 0 0 0
SMALL
GASTEIGER

@<TRIPOS>ATOM
      1 C          48.3317   10.8275  -21.9174 C.ar    1  UNL1        0.1718
      2 C          48.5174   10.3168  -23.2134 C.ar    1  UNL1        0.0400
      3 C          48.6022   11.1755  -24.3074 C.ar    1  UNL1        0.0030
      4 C          48.5022   12.5634  -24.1369 C.ar    1  UNL1       -0.0015
      5 C          48.2818   13.0899  -22.8409 C.ar    1  UNL1        0.0145
      6 C          48.2164   12.2179  -21.7331 C.ar    1  UNL1        0.1636
      7 O          48.0356   12.7421  -20.4508 O.3     1  UNL1       -0.5031
      8 C          48.1166   14.5843  -22.6610 C.3     1  UNL1        0.0299
      9 C          49.4381   15.3423  -22.8684 C.3     1  UNL1        0.0091
     10 C          50.2774   14.8490  -24.0615 C.3     1  UNL1        0.0227
     11 C          49.4364   14.5610  -25.2937 C.2     1  UNL1       -0.0398
     12 C          48.6348   13.4585  -25.3233 C.2     1  UNL1       -0.0076
     13 H          47.9831   12.1567  -19.6260 H       1  UNL1        0.2923
     14 C          47.7984   13.1369  -26.4986 C.ar    1  UNL1        0.0056
     15 C          47.0650   14.1389  -27.1386 C.ar    1  UNL1        0.0402
     16 C          46.2547   13.8413  -28.2505 C.ar    1  UNL1        0.1754
     17 C          46.2014   12.5057  -28.7300 C.ar    1  UNL1        0.2061
     18 C          46.9543   11.5053  -28.0905 C.ar    1  UNL1        0.1754
     19 C          47.7506   11.8273  -26.9782 C.ar    1  UNL1        0.0402
     20 O          45.5060   14.8468  -28.8824 O.3     1  UNL1       -0.4683
     21 C          45.4537   16.2085  -28.4679 C.3     1  UNL1        0.2526
     22 O          45.4251   12.1026  -29.8337 O.3     1  UNL1       -0.4654
     23 C          45.7730   12.2296  -31.2079 C.3     1  UNL1        0.2528
     24 O          46.8816   10.1959  -28.5935 O.3     1  UNL1       -0.4683
     25 C          47.9638    9.5051  -29.2096 C.3     1  UNL1        0.2526
     26 C          49.3530    9.6762  -19.9416 C.3     1  UNL1        0.2526
     27 O          48.2562    9.9867  -20.7950 O.3     1  UNL1       -0.4684
     28 C          49.4754   15.5703  -26.4326 C.3     1  UNL1        0.0480
     29 C          48.9163   16.9156  -26.0144 C.ar    1  UNL1       -0.0221
     30 C          47.5724   16.9790  -25.6045 C.ar    1  UNL1       -0.0043
     31 C          47.0001   18.1902  -25.2155 C.ar    1  UNL1       -0.0003
     32 C          47.7607   19.3573  -25.2264 C.ar    1  UNL1       -0.0003
     33 C          49.0974   19.3177  -25.6250 C.ar    1  UNL1       -0.0046
     34 C          49.6920   18.1069  -26.0244 C.ar    1  UNL1       -0.0255
     35 C          51.1432   18.1112  -26.4307 C.3     1  UNL1        0.0307
@<TRIPOS>BOND
     1    26    27    1
     2    27     1    1
     3     1     2   ar
     4     2     3   ar
     5     3     4   ar
     6     4     5   ar
     7     5     6   ar
     8     6     7    1
     9     5     8    1
    10     8     9    1
    11     9    10    1
    12    10    11    1
    13    11    28    1
    14    28    29    1
    15    29    30   ar
    16    30    31   ar
    17    31    32   ar
    18    32    33   ar
    19    33    34   ar
    20    34    35    1
    21    11    12    2
    22    12    14    1
    23    14    15   ar
    24    15    16   ar
    25    16    20    1
    26    20    21    1
    27    16    17   ar
    28    17    22    1
    29    22    23    1
    30    17    18   ar
    31    18    24    1
    32    24    25    1
    33    18    19   ar
    34     6     1   ar
    35    34    29   ar
    36    19    14   ar
    37    12     4    1
    38     7    13    1
@<TRIPOS>MOLECULE
*****
 35 38 0 0 0
SMALL
GASTEIGER

@<TRIPOS>ATOM
      1 C          46.0294   12.9976  -28.8173 C.ar    1  UNL1        0.1718
      2 C          46.3941   11.8729  -28.0577 C.ar    1  UNL1        0.0400
      3 C          47.0421   12.0250  -26.8336 C.ar    1  UNL1        0.0030
      4 C          47.3442   13.3010  -26.3378 C.ar    1  UNL1       -0.0015
      5 C          47.0124   14.4420  -27.1081 C.ar    1  UNL1        0.0145
      6 C          46.3383   14.2842  -28.3380 C.ar    1  UNL1        0.1636
      7 O          45.9791   15.4128  -29.0790 O.3     1  UNL1       -0.5031
      8 C          47.3881   15.8188  -26.6020 C.3     1  UNL1        0.0299
      9 C          46.5362   16.2447  -25.3951 C.3     1  UNL1        0.0091
     10 C          46.3017   15.1341  -24.3545 C.3     1  UNL1        0.0227
     11 C          47.5515   14.3171  -24.0738 C.2     1  UNL1       -0.0398
     12 C          48.0049   13.4319  -25.0064 C.2     1  UNL1       -0.0076
     13 H          45.4943   15.3499  -29.9659 H       1  UNL1        0.2923
     14 C          49.2159   12.6157  -24.7793 C.ar    1  UNL1        0.0056
     15 C          49.2301   11.6354  -23.7842 C.ar    1  UNL1        0.0402
     16 C          50.3825   10.8614  -23.5504 C.ar    1  UNL1        0.1754
     17 C          51.5346   11.0764  -24.3523 C.ar    1  UNL1        0.2061
     18 C          51.5080   12.0540  -25.3623 C.ar    1  UNL1        0.1754
     19 C          50.3470   12.8178  -25.5713 C.ar    1  UNL1        0.0402
     20 O          50.3999    9.8878  -22.5392 O.3     1  UNL1       -0.4683
     21 C          49.2432    9.3082  -21.9436 C.3     1  UNL1        0.2526
     22 O          52.7360   10.3569  -24.2021 O.3     1  UNL1       -0.4654
     23 C          52.9873    9.0247  -24.6351 C.3     1  UNL1        0.2528
     24 O          52.6634   12.2373  -26.1396 O.3     1  UNL1       -0.4683
     25 C          52.9148   11.5859  -27.3808 C.3     1  UNL1        0.2526
     26 C          45.9155   12.2622  -31.2086 C.3     1  UNL1        0.2526
     27 O          45.3635   12.8747  -30.0477 O.3     1  UNL1       -0.4684
     28 C          48.2929   14.5776  -22.7701 C.3     1  UNL1        0.0480
     29 C          47.9416   13.5562  -21.7066 C.ar    1  UNL1       -0.0221
     30 C          46.7164   12.8745  -21.8184 C.ar    1  UNL1       -0.0043
     31 C          46.3352   11.9290  -20.8662 C.ar    1  UNL1       -0.0003
     32 C          47.1719   11.6462  -19.7889 C.ar    1  UNL1       -0.0003
     33 C          48.3942   12.3070  -19.6600 C.ar    1  UNL1       -0.0046
     34 C          48.7952   13.2665  -20.6075 C.ar    1  UNL1       -0.0255
     35 C          50.1313   13.9417  -20.4348 C.3     1  UNL1        0.0307
@<TRIPOS>BOND
     1    26    27    1
     2    27     1    1
     3     1     2   ar
     4     2     3   ar
     5     3     4   ar
     6     4     5   ar
     7     5     6   ar
     8     6     7    1
     9     5     8    1
    10     8     9    1
    11     9    10    1
    12    10    11    1
    13    11    28    1
    14    28    29    1
    15    29    30   ar
    16    30    31   ar
    17    31    32   ar
    18    32    33   ar
    19    33    34   ar
    20    34    35    1
    21    11    12    2
    22    12    14    1
    23    14    15   ar
    24    15    16   ar
    25    16    20    1
    26    20    21    1
    27    16    17   ar
    28    17    22    1
    29    22    23    1
    30    17    18   ar
    31    18    24    1
    32    24    25    1
    33    18    19   ar
    34     6     1   ar
    35    34    29   ar
    36    19    14   ar
    37    12     4    1
    38     7    13    1
@<TRIPOS>MOLECULE
*****
 35 38 0 0 0
SMALL
GASTEIGER

@<TRIPOS>ATOM
      1 C          46.3310   11.3962  -28.7369 C.ar    1  UNL1        0.1718
      2 C          46.6915   10.8761  -27.4822 C.ar    1  UNL1        0.0400
      3 C          47.0604   11.7272  -26.4424 C.ar    1  UNL1        0.0030
      4 C          47.0809   13.1166  -26.6283 C.ar    1  UNL1       -0.0015
      5 C          46.7522   13.6525  -27.8972 C.ar    1  UNL1        0.0145
      6 C          46.3599   12.7882  -28.9417 C.ar    1  UNL1        0.1636
      7 O          46.0005   13.3215  -30.1819 O.3     1  UNL1       -0.5031
      8 C          46.8283   15.1487  -28.1175 C.3     1  UNL1        0.0299
      9 C          45.7064   15.9002  -27.3825 C.3     1  UNL1        0.0091
     10 C          45.4282   15.3958  -25.9543 C.3     1  UNL1        0.0227
     11 C          46.6995   15.1028  -25.1755 C.2     1  UNL1       -0.0398
     12 C          47.4440   14.0033  -25.4845 C.2     1  UNL1       -0.0076
     13 H          45.7119   12.7419  -30.9606 H       1  UNL1        0.2923
     14 C          48.6879   13.6771  -24.7561 C.ar    1  UNL1        0.0056
     15 C          49.8903   13.5168  -25.4488 C.ar    1  UNL1        0.0402
     16 C          51.0783   13.1929  -24.7665 C.ar    1  UNL1        0.1754
     17 C          51.0468   13.0452  -23.3545 C.ar    1  UNL1        0.2061
     18 C          49.8362   13.2233  -22.6621 C.ar    1  UNL1        0.1754
     19 C          48.6628   13.5401  -23.3675 C.ar    1  UNL1        0.0402
     20 O          52.2824   13.0165  -25.4664 O.3     1  UNL1       -0.4683
     21 C          52.7621   11.7717  -25.9654 C.3     1  UNL1        0.2526
     22 O          52.1768   12.7244  -22.5775 O.3     1  UNL1       -0.4654
     23 C          53.1684   13.6304  -22.1070 C.3     1  UNL1        0.2528
     24 O          49.8419   13.0741  -21.2655 O.3     1  UNL1       -0.4683
     25 C          49.6731   14.1411  -20.3376 C.3     1  UNL1        0.2526
     26 C          46.8269    9.7262  -30.5363 C.3     1  UNL1        0.2526
     27 O          45.9420   10.5631  -29.7986 O.3     1  UNL1       -0.4684
     28 C          47.1285   16.1044  -24.1125 C.3     1  UNL1        0.0480
     29 C          48.0517   17.1660  -24.6764 C.ar    1  UNL1       -0.0221
     30 C          49.4140   16.8504  -24.8277 C.ar    1  UNL1       -0.0043
     31 C          50.3130   17.7889  -25.3343 C.ar    1  UNL1       -0.0003
     32 C          49.8667   19.0566  -25.7010 C.ar    1  UNL1       -0.0003
     33 C          48.5187   19.3905  -25.5639 C.ar    1  UNL1       -0.0046
     34 C          47.5968   18.4595  -25.0517 C.ar    1  UNL1       -0.0255
     35 C          46.1487   18.8606  -24.9377 C.3     1  UNL1        0.0307
@<TRIPOS>BOND
     1    26    27    1
     2    27     1    1
     3     1     2   ar
     4     2     3   ar
     5     3     4   ar
     6     4     5   ar
     7     5     6   ar
     8     6     7    1
     9     5     8    1
    10     8     9    1
    11     9    10    1
    12    10    11    1
    13    11    28    1
    14    28    29    1
    15    29    30   ar
    16    30    31   ar
    17    31    32   ar
    18    32    33   ar
    19    33    34   ar
    20    34    35    1
    21    11    12    2
    22    12    14    1
    23    14    15   ar
    24    15    16   ar
    25    16    20    1
    26    20    21    1
    27    16    17   ar
    28    17    22    1
    29    22    23    1
    30    17    18   ar
    31    18    24    1
    32    24    25    1
    33    18    19   ar
    34     6     1   ar
    35    34    29   ar
    36    19    14   ar
    37    12     4    1
    38     7    13    1
