@<TRIPOS>MOLECULE
*****
 37 42 0 0 0
SMALL
GASTEIGER

@<TRIPOS>ATOM
      1 C          46.6746   13.6698  -27.2670 C.ar    1  UNL1        0.1379
      2 N          45.7946   14.4509  -27.9645 N.ar    1  UNL1       -0.2089
      3 C          45.2701   14.0560  -29.1666 C.ar    1  UNL1        0.2014
      4 N          45.6366   12.8652  -29.7238 N.ar    1  UNL1       -0.2050
      5 C          46.5082   12.0839  -29.0425 C.ar    1  UNL1        0.1654
      6 C          47.0077   12.4296  -27.8235 C.ar    1  UNL1        0.0865
      7 C          47.7701   11.3328  -27.4400 C.ar    1  UNL1        0.1095
      8 N          47.7166   10.3983  -28.4218 N.ar    1  UNL1       -0.1677
      9 N          46.9627   10.8748  -29.4050 N.ar    1  UNL1       -0.2319
     10 C          46.5981   10.1218  -30.5975 C.3     1  UNL1        0.1554
     11 C          48.3549   11.0688  -26.1208 C.ar    1  UNL1        0.0577
     12 C          47.7729   11.3253  -24.8949 C.ar    1  UNL1        0.1231
     13 N          48.6466   11.0207  -23.9148 N.ar    1  UNL1       -0.1676
     14 N          49.7552   10.5713  -24.4842 N.ar    1  UNL1       -0.2488
     15 C          50.9467   10.1978  -23.7301 C.3     1  UNL1        0.1537
     16 C          49.6150   10.5837  -25.8275 C.ar    1  UNL1        0.0809
     17 C          50.6820   10.2773  -26.7981 C.ar    1  UNL1        0.0174
     18 C          51.7736   11.1458  -26.9401 C.ar    1  UNL1        0.0012
     19 C          52.7793   10.8666  -27.8700 C.ar    1  UNL1       -0.0042
     20 C          52.7115    9.7080  -28.6588 C.ar    1  UNL1       -0.0218
     21 C          53.7690    9.4297  -29.6853 C.3     1  UNL1        0.0310
     22 C          51.6107    8.8477  -28.5265 C.ar    1  UNL1       -0.0042
     23 C          50.6054    9.1274  -27.5964 C.ar    1  UNL1        0.0012
     24 C          46.5490   14.9144  -25.0712 C.3     1  UNL1        0.1051
     25 C          47.5805   15.6983  -24.2532 C.3     1  UNL1        0.0400
     26 C          48.8605   15.7271  -25.1075 C.3     1  UNL1        0.0791
     27 C          48.7179   14.5660  -26.0952 C.3     1  UNL1        0.1081
     28 N          47.3090   14.1887  -26.0848 N.pl3   1  UNL1       -0.2908
     29 N          49.0970   17.0137  -25.8159 N.3     1  UNL1       -0.2723
     30 C          48.6075   18.2213  -25.1161 C.3     1  UNL1        0.0721
     31 C          48.5384   19.4076  -26.0942 C.3     1  UNL1        0.0174
     32 C          49.5724   19.2976  -27.2286 C.3     1  UNL1        0.0029
     33 C          50.8357   18.5738  -26.7570 C.3     1  UNL1        0.0174
     34 C          50.5098   17.1552  -26.2418 C.3     1  UNL1        0.0721
     35 C          45.7273   13.9444  -24.2063 C.3     1  UNL1        0.1619
     36 C          44.2740   12.2986  -24.9612 C.3     1  UNL1        0.1742
     37 O          44.4711   13.6870  -24.8070 O.3     1  UNL1       -0.3493
@<TRIPOS>BOND
     1    36    37    1
     2    37    35    1
     3    35    24    1
     4    24    25    1
     5    25    26    1
     6    26    29    1
     7    29    30    1
     8    30    31    1
     9    31    32    1
    10    32    33    1
    11    33    34    1
    12    26    27    1
    13    27    28    1
    14    28     1    1
    15     1     2   ar
    16     2     3   ar
    17     3     4   ar
    18     4     5   ar
    19     5     6   ar
    20     6     7   ar
    21     7    11    1
    22    11    12   ar
    23    12    13   ar
    24    13    14   ar
    25    14    15    1
    26    14    16   ar
    27    16    17    1
    28    17    18   ar
    29    18    19   ar
    30    19    20   ar
    31    20    21    1
    32    20    22   ar
    33    22    23   ar
    34     7     8   ar
    35     8     9   ar
    36     9    10    1
    37    28    24    1
    38     6     1   ar
    39    16    11   ar
    40    23    17   ar
    41    34    29    1
    42     9     5   ar
@<TRIPOS>MOLECULE
*****
 37 42 0 0 0
SMALL
GASTEIGER

@<TRIPOS>ATOM
      1 C          50.7765   12.6251  -24.6783 C.ar    1  UNL1        0.1379
      2 N          52.0919   12.9553  -24.8572 N.ar    1  UNL1       -0.2089
      3 C          52.8702   12.3445  -25.8045 C.ar    1  UNL1        0.2014
      4 N          52.3546   11.3555  -26.5911 N.ar    1  UNL1       -0.2050
      5 C          51.0534   11.0196  -26.4221 C.ar    1  UNL1        0.1654
      6 C          50.2441   11.6433  -25.5217 C.ar    1  UNL1        0.0865
      7 C          48.9930   11.0761  -25.7324 C.ar    1  UNL1        0.1095
      8 N          49.0945   10.1455  -26.7141 N.ar    1  UNL1       -0.1677
      9 N          50.3598   10.1024  -27.1131 N.ar    1  UNL1       -0.2319
     10 C          50.8442    9.2846  -28.2170 C.3     1  UNL1        0.1554
     11 C          47.7054   11.5274  -25.1935 C.ar    1  UNL1        0.0577
     12 C          47.3125   11.5049  -23.8697 C.ar    1  UNL1        0.1231
     13 N          46.0356   11.9265  -23.7770 N.ar    1  UNL1       -0.1676
     14 N          45.6163   12.2231  -24.9981 N.ar    1  UNL1       -0.2488
     15 C          44.2561   12.6604  -25.2923 C.3     1  UNL1        0.1537
     16 C          46.6063   11.9950  -25.8881 C.ar    1  UNL1        0.0809
     17 C          46.4718   12.0863  -27.3538 C.ar    1  UNL1        0.0174
     18 C          46.2670   13.3318  -27.9645 C.ar    1  UNL1        0.0012
     19 C          46.1237   13.4203  -29.3522 C.ar    1  UNL1       -0.0042
     20 C          46.1976   12.2657  -30.1462 C.ar    1  UNL1       -0.0218
     21 C          46.0028   12.3555  -31.6306 C.3     1  UNL1        0.0310
     22 C          46.3873   11.0181  -29.5321 C.ar    1  UNL1       -0.0042
     23 C          46.5305   10.9301  -28.1445 C.ar    1  UNL1        0.0012
     24 C          50.1385   14.6068  -23.2457 C.3     1  UNL1        0.1051
     25 C          49.6400   14.7363  -21.8026 C.3     1  UNL1        0.0400
     26 C          49.6813   13.3145  -21.2143 C.3     1  UNL1        0.0791
     27 C          49.6827   12.3734  -22.4218 C.3     1  UNL1        0.1081
     28 N          50.0418   13.1881  -23.5772 N.pl3   1  UNL1       -0.2908
     29 N          50.8431   13.0524  -20.3230 N.3     1  UNL1       -0.2723
     30 C          51.8862   14.1009  -20.3172 C.3     1  UNL1        0.0721
     31 C          53.1846   13.5516  -19.6999 C.3     1  UNL1        0.0174
     32 C          52.9229   12.4397  -18.6686 C.3     1  UNL1        0.0029
     33 C          51.5885   12.6546  -17.9505 C.3     1  UNL1        0.0174
     34 C          50.4131   12.6918  -18.9510 C.3     1  UNL1        0.0721
     35 C          49.3161   15.4548  -24.2299 C.3     1  UNL1        0.1619
     36 C          47.0207   15.6103  -24.5423 C.3     1  UNL1        0.1742
     37 O          48.1452   14.7622  -24.6229 O.3     1  UNL1       -0.3493
@<TRIPOS>BOND
     1    36    37    1
     2    37    35    1
     3    35    24    1
     4    24    25    1
     5    25    26    1
     6    26    29    1
     7    29    30    1
     8    30    31    1
     9    31    32    1
    10    32    33    1
    11    33    34    1
    12    26    27    1
    13    27    28    1
    14    28     1    1
    15     1     2   ar
    16     2     3   ar
    17     3     4   ar
    18     4     5   ar
    19     5     6   ar
    20     6     7   ar
    21     7    11    1
    22    11    12   ar
    23    12    13   ar
    24    13    14   ar
    25    14    15    1
    26    14    16   ar
    27    16    17    1
    28    17    18   ar
    29    18    19   ar
    30    19    20   ar
    31    20    21    1
    32    20    22   ar
    33    22    23   ar
    34     7     8   ar
    35     8     9   ar
    36     9    10    1
    37    28    24    1
    38     6     1   ar
    39    16    11   ar
    40    23    17   ar
    41    34    29    1
    42     9     5   ar
@<TRIPOS>MOLECULE
*****
 37 42 0 0 0
SMALL
GASTEIGER

@<TRIPOS>ATOM
      1 C          50.2501   15.9244  -25.1219 C.ar    1  UNL1        0.1379
      2 N          51.5061   16.4536  -25.2380 N.ar    1  UNL1       -0.2089
      3 C          51.7295   17.6660  -25.8350 C.ar    1  UNL1        0.2014
      4 N          50.6923   18.3792  -26.3626 N.ar    1  UNL1       -0.2050
      5 C          49.4442   17.8644  -26.2543 C.ar    1  UNL1        0.1654
      6 C          49.1877   16.6849  -25.6235 C.ar    1  UNL1        0.0865
      7 C          47.8027   16.5738  -25.6509 C.ar    1  UNL1        0.1095
      8 N          47.2901   17.6528  -26.2937 N.ar    1  UNL1       -0.1677
      9 N          48.3005   18.4233  -26.6777 N.ar    1  UNL1       -0.2319
     10 C          48.1439   19.7202  -27.3224 C.3     1  UNL1        0.1554
     11 C          46.9692   15.6109  -24.9229 C.ar    1  UNL1        0.0577
     12 C          46.8424   15.5015  -23.5521 C.ar    1  UNL1        0.1231
     13 N          46.0501   14.4506  -23.2607 N.ar    1  UNL1       -0.1676
     14 N          45.6663   13.9021  -24.4039 N.ar    1  UNL1       -0.2488
     15 C          44.8421   12.7008  -24.4775 C.3     1  UNL1        0.1537
     16 C          46.2043   14.5825  -25.4393 C.ar    1  UNL1        0.0809
     17 C          46.1081   14.1910  -26.8577 C.ar    1  UNL1        0.0174
     18 C          45.6679   15.1171  -27.8141 C.ar    1  UNL1        0.0012
     19 C          45.5608   14.7449  -29.1573 C.ar    1  UNL1       -0.0042
     20 C          45.9060   13.4462  -29.5613 C.ar    1  UNL1       -0.0218
     21 C          45.7518   13.0348  -30.9953 C.3     1  UNL1        0.0310
     22 C          46.3317   12.5160  -28.6006 C.ar    1  UNL1       -0.0042
     23 C          46.4386   12.8886  -27.2576 C.ar    1  UNL1        0.0012
     24 C          50.9609   14.0467  -23.5872 C.3     1  UNL1        0.1051
     25 C          50.8056   12.5240  -23.6568 C.3     1  UNL1        0.0400
     26 C          50.1632   12.2289  -25.0240 C.3     1  UNL1        0.0791
     27 C          49.5028   13.5408  -25.4560 C.3     1  UNL1        0.1081
     28 N          50.0819   14.5868  -24.6203 N.pl3   1  UNL1       -0.2908
     29 N          51.1148   11.7369  -26.0561 N.3     1  UNL1       -0.2723
     30 C          52.5414   11.7644  -25.6669 C.3     1  UNL1        0.0721
     31 C          53.4325   11.6277  -26.9143 C.3     1  UNL1        0.0174
     32 C          52.7511   10.8320  -28.0415 C.3     1  UNL1        0.0029
     33 C          51.8022    9.7731  -27.4752 C.3     1  UNL1        0.0174
     34 C          50.7119   10.4137  -26.5892 C.3     1  UNL1        0.0721
     35 C          50.5923   14.6126  -22.2060 C.3     1  UNL1        0.1619
     36 C          49.4329   13.8836  -20.3311 C.3     1  UNL1        0.1742
     37 O          49.3928   14.0265  -21.7340 O.3     1  UNL1       -0.3493
@<TRIPOS>BOND
     1    36    37    1
     2    37    35    1
     3    35    24    1
     4    24    25    1
     5    25    26    1
     6    26    29    1
     7    29    30    1
     8    30    31    1
     9    31    32    1
    10    32    33    1
    11    33    34    1
    12    26    27    1
    13    27    28    1
    14    28     1    1
    15     1     2   ar
    16     2     3   ar
    17     3     4   ar
    18     4     5   ar
    19     5     6   ar
    20     6     7   ar
    21     7    11    1
    22    11    12   ar
    23    12    13   ar
    24    13    14   ar
    25    14    15    1
    26    14    16   ar
    27    16    17    1
    28    17    18   ar
    29    18    19   ar
    30    19    20   ar
    31    20    21    1
    32    20    22   ar
    33    22    23   ar
    34     7     8   ar
    35     8     9   ar
    36     9    10    1
    37    28    24    1
    38     6     1   ar
    39    16    11   ar
    40    23    17   ar
    41    34    29    1
    42     9     5   ar
@<TRIPOS>MOLECULE
*****
 37 42 0 0 0
SMALL
GASTEIGER

@<TRIPOS>ATOM
      1 C          46.8259   13.8014  -26.8699 C.ar    1  UNL1        0.1379
      2 N          45.9962   14.7186  -27.4541 N.ar    1  UNL1       -0.2089
      3 C          45.4348   14.5074  -28.6856 C.ar    1  UNL1        0.2014
      4 N          45.7127   13.3700  -29.3869 N.ar    1  UNL1       -0.2050
      5 C          46.5339   12.4551  -28.8185 C.ar    1  UNL1        0.1654
      6 C          47.0671   12.6173  -27.5758 C.ar    1  UNL1        0.0865
      7 C          47.7547   11.4331  -27.3388 C.ar    1  UNL1        0.1095
      8 N          47.6277   10.6290  -28.4239 N.ar    1  UNL1       -0.1677
      9 N          46.9000   11.2702  -29.3302 N.ar    1  UNL1       -0.2319
     10 C          46.4733   10.6924  -30.5975 C.3     1  UNL1        0.1554
     11 C          48.3314   10.9735  -26.0707 C.ar    1  UNL1        0.0577
     12 C          47.7764   11.1140  -24.8139 C.ar    1  UNL1        0.1231
     13 N          48.6363   10.6377  -23.8917 N.ar    1  UNL1       -0.1676
     14 N          49.7095   10.1929  -24.5285 N.ar    1  UNL1       -0.2488
     15 C          50.8803    9.6559  -23.8439 C.3     1  UNL1        0.1537
     16 C          49.5602   10.3783  -25.8580 C.ar    1  UNL1        0.0809
     17 C          50.5979   10.1267  -26.8750 C.ar    1  UNL1        0.0174
     18 C          50.4847    9.0272  -27.7377 C.ar    1  UNL1        0.0012
     19 C          51.4743    8.7768  -28.6927 C.ar    1  UNL1       -0.0042
     20 C          52.5816    9.6314  -28.8050 C.ar    1  UNL1       -0.0218
     21 C          53.6636    9.3395  -29.8017 C.3     1  UNL1        0.0310
     22 C          52.7012   10.7227  -27.9307 C.ar    1  UNL1       -0.0042
     23 C          51.7114   10.9726  -26.9759 C.ar    1  UNL1        0.0012
     24 C          46.8179   14.8182  -24.5563 C.3     1  UNL1        0.1051
     25 C          47.9195   15.4082  -23.6698 C.3     1  UNL1        0.0400
     26 C          49.1982   15.3998  -24.5264 C.3     1  UNL1        0.0791
     27 C          48.9446   14.3668  -25.6276 C.3     1  UNL1        0.1081
     28 N          47.5053   14.1303  -25.6454 N.pl3   1  UNL1       -0.2908
     29 N          49.5618   16.7234  -25.0998 N.3     1  UNL1       -0.2723
     30 C          50.3472   16.6769  -26.3522 C.3     1  UNL1        0.0721
     31 C          50.9958   18.0466  -26.6207 C.3     1  UNL1        0.0174
     32 C          50.1802   19.2109  -26.0313 C.3     1  UNL1        0.0029
     33 C          48.6832   18.8925  -26.0301 C.3     1  UNL1        0.0174
     34 C          48.3827   17.6138  -25.2186 C.3     1  UNL1        0.0721
     35 C          45.9027   13.8491  -23.7899 C.3     1  UNL1        0.1619
     36 C          44.3640   12.4277  -24.7913 C.3     1  UNL1        0.1742
     37 O          44.6369   13.7606  -24.4185 O.3     1  UNL1       -0.3493
@<TRIPOS>BOND
     1    36    37    1
     2    37    35    1
     3    35    24    1
     4    24    25    1
     5    25    26    1
     6    26    29    1
     7    29    30    1
     8    30    31    1
     9    31    32    1
    10    32    33    1
    11    33    34    1
    12    26    27    1
    13    27    28    1
    14    28     1    1
    15     1     2   ar
    16     2     3   ar
    17     3     4   ar
    18     4     5   ar
    19     5     6   ar
    20     6     7   ar
    21     7    11    1
    22    11    12   ar
    23    12    13   ar
    24    13    14   ar
    25    14    15    1
    26    14    16   ar
    27    16    17    1
    28    17    18   ar
    29    18    19   ar
    30    19    20   ar
    31    20    21    1
    32    20    22   ar
    33    22    23   ar
    34     7     8   ar
    35     8     9   ar
    36     9    10    1
    37    28    24    1
    38     6     1   ar
    39    16    11   ar
    40    23    17   ar
    41    34    29    1
    42     9     5   ar
@<TRIPOS>MOLECULE
*****
 37 42 0 0 0
SMALL
GASTEIGER

@<TRIPOS>ATOM
      1 C          47.6944   14.4560  -25.9355 C.ar    1  UNL1        0.1379
      2 N          48.1478   15.2792  -26.9294 N.ar    1  UNL1       -0.2089
      3 C          48.2819   16.6301  -26.7470 C.ar    1  UNL1        0.2014
      4 N          47.9365   17.2055  -25.5587 N.ar    1  UNL1       -0.2050
      5 C          47.4853   16.4002  -24.5675 C.ar    1  UNL1        0.1654
      6 C          47.3878   15.0488  -24.7053 C.ar    1  UNL1        0.0865
      7 C          46.9846   14.6030  -23.4524 C.ar    1  UNL1        0.1095
      8 N          46.8422   15.6740  -22.6322 N.ar    1  UNL1       -0.1677
      9 N          47.1282   16.7678  -23.3277 N.ar    1  UNL1       -0.2319
     10 C          47.1732   18.1101  -22.7634 C.3     1  UNL1        0.1554
     11 C          46.9376   13.2187  -22.9692 C.ar    1  UNL1        0.0577
     12 C          45.8988   12.3235  -23.1327 C.ar    1  UNL1        0.1231
     13 N          46.1913   11.1788  -22.4839 N.ar    1  UNL1       -0.1676
     14 N          47.3846   11.3214  -21.9264 N.ar    1  UNL1       -0.2488
     15 C          48.0043   10.2988  -21.0910 C.3     1  UNL1        0.1537
     16 C          47.8724   12.5505  -22.2017 C.ar    1  UNL1        0.0809
     17 C          49.1143   13.1183  -21.6453 C.ar    1  UNL1        0.0174
     18 C          50.2233   13.3321  -22.4761 C.ar    1  UNL1        0.0012
     19 C          51.4074   13.8558  -21.9490 C.ar    1  UNL1       -0.0042
     20 C          51.4911   14.1846  -20.5875 C.ar    1  UNL1       -0.0218
     21 C          52.7743   14.7076  -20.0138 C.3     1  UNL1        0.0310
     22 C          50.3854   13.9557  -19.7541 C.ar    1  UNL1       -0.0042
     23 C          49.2016   13.4320  -20.2817 C.ar    1  UNL1        0.0012
     24 C          48.4841   12.1827  -26.7069 C.3     1  UNL1        0.1051
     25 C          47.7652   10.9832  -27.3330 C.3     1  UNL1        0.0400
     26 C          46.3128   11.4371  -27.5640 C.3     1  UNL1        0.0791
     27 C          46.1029   12.6269  -26.6236 C.3     1  UNL1        0.1081
     28 N          47.4324   13.0703  -26.2192 N.pl3   1  UNL1       -0.2908
     29 N          45.9992   11.7990  -28.9724 N.3     1  UNL1       -0.2723
     30 C          46.1699   13.2283  -29.3121 C.3     1  UNL1        0.0721
     31 C          45.4478   13.5476  -30.6333 C.3     1  UNL1        0.0174
     32 C          45.3714   12.3309  -31.5725 C.3     1  UNL1        0.0029
     33 C          46.5846   11.4157  -31.3917 C.3     1  UNL1        0.0174
     34 C          46.6962   10.9139  -29.9357 C.3     1  UNL1        0.0721
     35 C          49.4260   11.7720  -25.5632 C.3     1  UNL1        0.1619
     36 C          50.0785    9.9956  -24.2181 C.3     1  UNL1        0.1742
     37 O          49.0585   10.5049  -25.0490 O.3     1  UNL1       -0.3493
@<TRIPOS>BOND
     1    36    37    1
     2    37    35    1
     3    35    24    1
     4    24    25    1
     5    25    26    1
     6    26    29    1
     7    29    30    1
     8    30    31    1
     9    31    32    1
    10    32    33    1
    11    33    34    1
    12    26    27    1
    13    27    28    1
    14    28     1    1
    15     1     2   ar
    16     2     3   ar
    17     3     4   ar
    18     4     5   ar
    19     5     6   ar
    20     6     7   ar
    21     7    11    1
    22    11    12   ar
    23    12    13   ar
    24    13    14   ar
    25    14    15    1
    26    14    16   ar
    27    16    17    1
    28    17    18   ar
    29    18    19   ar
    30    19    20   ar
    31    20    21    1
    32    20    22   ar
    33    22    23   ar
    34     7     8   ar
    35     8     9   ar
    36     9    10    1
    37    28    24    1
    38     6     1   ar
    39    16    11   ar
    40    23    17   ar
    41    34    29    1
    42     9     5   ar
@<TRIPOS>MOLECULE
*****
 37 42 0 0 0
SMALL
GASTEIGER

@<TRIPOS>ATOM
      1 C          48.6647   12.4709  -24.4315 C.ar    1  UNL1        0.1379
      2 N          49.2940   12.5537  -25.6432 N.ar    1  UNL1       -0.2089
      3 C          50.1372   11.5713  -26.0907 C.ar    1  UNL1        0.2014
      4 N          50.3980   10.4778  -25.3169 N.ar    1  UNL1       -0.2050
      5 C          49.7811   10.3856  -24.1146 C.ar    1  UNL1        0.1654
      6 C          48.9013   11.3234  -23.6660 C.ar    1  UNL1        0.0865
      7 C          48.4352   10.8101  -22.4617 C.ar    1  UNL1        0.1095
      8 N          49.0461    9.6219  -22.2271 N.ar    1  UNL1       -0.1677
      9 N          49.8820    9.3822  -23.2299 N.ar    1  UNL1       -0.2319
     10 C          50.6548    8.1563  -23.3782 C.3     1  UNL1        0.1554
     11 C          47.3076   11.2974  -21.6596 C.ar    1  UNL1        0.0577
     12 C          45.9927   11.4069  -22.0673 C.ar    1  UNL1        0.1231
     13 N          45.2658   11.9674  -21.0802 N.ar    1  UNL1       -0.1676
     14 N          46.0788   12.2043  -20.0614 N.ar    1  UNL1       -0.2488
     15 C          45.6498   12.8619  -18.8321 C.3     1  UNL1        0.1537
     16 C          47.3311   11.8076  -20.3757 C.ar    1  UNL1        0.0809
     17 C          48.5286   12.0288  -19.5442 C.ar    1  UNL1        0.0174
     18 C          49.5160   12.9332  -19.9603 C.ar    1  UNL1        0.0012
     19 C          50.6598   13.1339  -19.1822 C.ar    1  UNL1       -0.0042
     20 C          50.8225   12.4426  -17.9720 C.ar    1  UNL1       -0.0218
     21 C          52.0685   12.6271  -17.1578 C.3     1  UNL1        0.0310
     22 C          49.8407   11.5264  -17.5644 C.ar    1  UNL1       -0.0042
     23 C          48.6971   11.3260  -18.3428 C.ar    1  UNL1        0.0012
     24 C          46.7387   14.0905  -24.6629 C.3     1  UNL1        0.1051
     25 C          46.4989   15.5112  -24.1414 C.3     1  UNL1        0.0400
     26 C          47.8070   15.9306  -23.4472 C.3     1  UNL1        0.0791
     27 C          48.5359   14.6230  -23.1264 C.3     1  UNL1        0.1081
     28 N          47.9061   13.5909  -23.9423 N.pl3   1  UNL1       -0.2908
     29 N          48.6631   16.8439  -24.2508 N.3     1  UNL1       -0.2723
     30 C          49.9004   16.2402  -24.7913 C.3     1  UNL1        0.0721
     31 C          50.8749   17.3437  -25.2399 C.3     1  UNL1        0.0174
     32 C          50.1496   18.6268  -25.6825 C.3     1  UNL1        0.0029
     33 C          48.7852   18.3065  -26.2974 C.3     1  UNL1        0.0174
     34 C          47.8854   17.5454  -25.2998 C.3     1  UNL1        0.0721
     35 C          45.5262   13.1711  -24.4424 C.3     1  UNL1        0.1619
     36 C          45.6803   11.8234  -26.3268 C.3     1  UNL1        0.1742
     37 O          44.9312   12.8295  -25.6811 O.3     1  UNL1       -0.3493
@<TRIPOS>BOND
     1    36    37    1
     2    37    35    1
     3    35    24    1
     4    24    25    1
     5    25    26    1
     6    26    29    1
     7    29    30    1
     8    30    31    1
     9    31    32    1
    10    32    33    1
    11    33    34    1
    12    26    27    1
    13    27    28    1
    14    28     1    1
    15     1     2   ar
    16     2     3   ar
    17     3     4   ar
    18     4     5   ar
    19     5     6   ar
    20     6     7   ar
    21     7    11    1
    22    11    12   ar
    23    12    13   ar
    24    13    14   ar
    25    14    15    1
    26    14    16   ar
    27    16    17    1
    28    17    18   ar
    29    18    19   ar
    30    19    20   ar
    31    20    21    1
    32    20    22   ar
    33    22    23   ar
    34     7     8   ar
    35     8     9   ar
    36     9    10    1
    37    28    24    1
    38     6     1   ar
    39    16    11   ar
    40    23    17   ar
    41    34    29    1
    42     9     5   ar
@<TRIPOS>MOLECULE
*****
 37 42 0 0 0
SMALL
GASTEIGER

@<TRIPOS>ATOM
      1 C          49.0761   13.0654  -22.6365 C.ar    1  UNL1        0.1379
      2 N          48.2596   13.6275  -21.6939 N.ar    1  UNL1       -0.2089
      3 C          47.4652   12.8674  -20.8769 C.ar    1  UNL1        0.2014
      4 N          47.4458   11.5083  -20.9999 N.ar    1  UNL1       -0.2050
      5 C          48.2496   10.9408  -21.9307 C.ar    1  UNL1        0.1654
      6 C          49.0848   11.6686  -22.7229 C.ar    1  UNL1        0.0865
      7 C          49.7855   10.7153  -23.4520 C.ar    1  UNL1        0.1095
      8 N          49.3477    9.4823  -23.0940 N.ar    1  UNL1       -0.1677
      9 N          48.3951    9.6310  -22.1817 N.ar    1  UNL1       -0.2319
     10 C          47.7424    8.5274  -21.4901 C.3     1  UNL1        0.1554
     11 C          50.9669   10.9266  -24.2956 C.ar    1  UNL1        0.0577
     12 C          52.2286   11.2931  -23.8701 C.ar    1  UNL1        0.1231
     13 N          53.0274   11.4656  -24.9420 N.ar    1  UNL1       -0.1676
     14 N          52.3117   11.2095  -26.0271 N.ar    1  UNL1       -0.2488
     15 C          52.8347   11.3501  -27.3816 C.3     1  UNL1        0.1537
     16 C          51.0516   10.8754  -25.6738 C.ar    1  UNL1        0.0809
     17 C          49.9356   10.6500  -26.6110 C.ar    1  UNL1        0.0174
     18 C          50.0226    9.6374  -27.5769 C.ar    1  UNL1        0.0012
     19 C          48.9732    9.4309  -28.4769 C.ar    1  UNL1       -0.0042
     20 C          47.8187   10.2259  -28.4120 C.ar    1  UNL1       -0.0218
     21 C          46.7105   10.0315  -29.4037 C.3     1  UNL1        0.0310
     22 C          47.7395   11.2490  -27.4546 C.ar    1  UNL1       -0.0042
     23 C          48.7892   11.4550  -26.5549 C.ar    1  UNL1        0.0012
     24 C          50.7223   14.9240  -23.1080 C.3     1  UNL1        0.1051
     25 C          50.8912   15.8991  -24.2777 C.3     1  UNL1        0.0400
     26 C          49.7000   15.6393  -25.2171 C.3     1  UNL1        0.0791
     27 C          49.2018   14.2351  -24.8653 C.3     1  UNL1        0.1081
     28 N          49.7794   13.9078  -23.5665 N.pl3   1  UNL1       -0.2908
     29 N          48.6066   16.6427  -25.1141 N.3     1  UNL1       -0.2723
     30 C          47.9846   16.7667  -23.7779 C.3     1  UNL1        0.0721
     31 C          46.6405   17.5086  -23.8872 C.3     1  UNL1        0.0174
     32 C          46.6061   18.4958  -25.0672 C.3     1  UNL1        0.0029
     33 C          47.9954   19.0750  -25.3443 C.3     1  UNL1        0.0174
     34 C          49.0154   17.9593  -25.6587 C.3     1  UNL1        0.0721
     35 C          52.0525   14.2818  -22.6814 C.3     1  UNL1        0.1619
     36 C          51.9733   13.8712  -20.3976 C.3     1  UNL1        0.1742
     37 O          52.4393   14.7465  -21.4010 O.3     1  UNL1       -0.3493
@<TRIPOS>BOND
     1    36    37    1
     2    37    35    1
     3    35    24    1
     4    24    25    1
     5    25    26    1
     6    26    29    1
     7    29    30    1
     8    30    31    1
     9    31    32    1
    10    32    33    1
    11    33    34    1
    12    26    27    1
    13    27    28    1
    14    28     1    1
    15     1     2   ar
    16     2     3   ar
    17     3     4   ar
    18     4     5   ar
    19     5     6   ar
    20     6     7   ar
    21     7    11    1
    22    11    12   ar
    23    12    13   ar
    24    13    14   ar
    25    14    15    1
    26    14    16   ar
    27    16    17    1
    28    17    18   ar
    29    18    19   ar
    30    19    20   ar
    31    20    21    1
    32    20    22   ar
    33    22    23   ar
    34     7     8   ar
    35     8     9   ar
    36     9    10    1
    37    28    24    1
    38     6     1   ar
    39    16    11   ar
    40    23    17   ar
    41    34    29    1
    42     9     5   ar
@<TRIPOS>MOLECULE
*****
 37 42 0 0 0
SMALL
GASTEIGER

@<TRIPOS>ATOM
      1 C          48.9431   13.4630  -22.7297 C.ar    1  UNL1        0.1379
      2 N          47.7173   13.9605  -22.3816 N.ar    1  UNL1       -0.2089
      3 C          47.1213   14.9754  -23.0824 C.ar    1  UNL1        0.2014
      4 N          47.7550   15.5455  -24.1482 N.ar    1  UNL1       -0.2050
      5 C          48.9697   15.0616  -24.5014 C.ar    1  UNL1        0.1654
      6 C          49.5638   14.0219  -23.8526 C.ar    1  UNL1        0.0865
      7 C          50.7262   13.7835  -24.5761 C.ar    1  UNL1        0.1095
      8 N          50.7963   14.6742  -25.5968 N.ar    1  UNL1       -0.1677
      9 N          49.7316   15.4640  -25.5297 N.ar    1  UNL1       -0.2319
     10 C          49.4093   16.4911  -26.5111 C.3     1  UNL1        0.1554
     11 C          51.6339   12.6373  -24.4560 C.ar    1  UNL1        0.0577
     12 C          52.8206   12.5961  -23.7508 C.ar    1  UNL1        0.1231
     13 N          53.4102   11.3990  -23.9412 N.ar    1  UNL1       -0.1676
     14 N          52.6279   10.6826  -24.7348 N.ar    1  UNL1       -0.2488
     15 C          52.9751    9.3464  -25.2058 C.3     1  UNL1        0.1537
     16 C          51.5347   11.4024  -25.0680 C.ar    1  UNL1        0.0809
     17 C          50.5042   10.9870  -26.0375 C.ar    1  UNL1        0.0174
     18 C          50.8149   10.0537  -27.0367 C.ar    1  UNL1        0.0012
     19 C          49.8450    9.6691  -27.9670 C.ar    1  UNL1       -0.0042
     20 C          48.5492   10.2032  -27.8999 C.ar    1  UNL1       -0.0218
     21 C          47.5206    9.8219  -28.9227 C.3     1  UNL1        0.0310
     22 C          48.2441   11.1487  -26.9087 C.ar    1  UNL1       -0.0042
     23 C          49.2143   11.5330  -25.9787 C.ar    1  UNL1        0.0012
     24 C          48.9632   11.2211  -21.5635 C.3     1  UNL1        0.1051
     25 C          49.6764   10.7003  -20.3114 C.3     1  UNL1        0.0400
     26 C          50.4013   11.9150  -19.7046 C.3     1  UNL1        0.0791
     27 C          50.5303   12.9257  -20.8472 C.3     1  UNL1        0.1081
     28 N          49.5914   12.5007  -21.8795 N.pl3   1  UNL1       -0.2908
     29 N          49.7163   12.5138  -18.5277 N.3     1  UNL1       -0.2723
     30 C          48.2624   12.7349  -18.6858 C.3     1  UNL1        0.0721
     31 C          47.7540   13.7029  -17.6026 C.3     1  UNL1        0.0174
     32 C          48.5887   13.6344  -16.3116 C.3     1  UNL1        0.0029
     33 C          49.1503   12.2280  -16.0903 C.3     1  UNL1        0.0174
     34 C          50.0323   11.7834  -17.2771 C.3     1  UNL1        0.0721
     35 C          49.0751   10.2501  -22.7503 C.3     1  UNL1        0.1619
     36 C          50.1074    8.2626  -23.3625 C.3     1  UNL1        0.1742
     37 O          50.2494    9.4664  -22.6408 O.3     1  UNL1       -0.3493
@<TRIPOS>BOND
     1    36    37    1
     2    37    35    1
     3    35    24    1
     4    24    25    1
     5    25    26    1
     6    26    29    1
     7    29    30    1
     8    30    31    1
     9    31    32    1
    10    32    33    1
    11    33    34    1
    12    26    27    1
    13    27    28    1
    14    28     1    1
    15     1     2   ar
    16     2     3   ar
    17     3     4   ar
    18     4     5   ar
    19     5     6   ar
    20     6     7   ar
    21     7    11    1
    22    11    12   ar
    23    12    13   ar
    24    13    14   ar
    25    14    15    1
    26    14    16   ar
    27    16    17    1
    28    17    18   ar
    29    18    19   ar
    30    19    20   ar
    31    20    21    1
    32    20    22   ar
    33    22    23   ar
    34     7     8   ar
    35     8     9   ar
    36     9    10    1
    37    28    24    1
    38     6     1   ar
    39    16    11   ar
    40    23    17   ar
    41    34    29    1
    42     9     5   ar
@<TRIPOS>MOLECULE
*****
 37 42 0 0 0
SMALL
GASTEIGER

@<TRIPOS>ATOM
      1 C          48.9848   13.8182  -23.2072 C.ar    1  UNL1        0.1379
      2 N          49.9405   14.1533  -22.2876 N.ar    1  UNL1       -0.2089
      3 C          49.7681   13.9271  -20.9477 C.ar    1  UNL1        0.2014
      4 N          48.6091   13.3768  -20.4824 N.ar    1  UNL1       -0.2050
      5 C          47.6553   13.0418  -21.3838 C.ar    1  UNL1        0.1654
      6 C          47.8197   13.2109  -22.7251 C.ar    1  UNL1        0.0865
      7 C          46.6718   12.6625  -23.2846 C.ar    1  UNL1        0.1095
      8 N          45.8723   12.2099  -22.2866 N.ar    1  UNL1       -0.1677
      9 N          46.4706   12.4659  -21.1297 N.ar    1  UNL1       -0.2319
     10 C          45.9590   12.0473  -19.8316 C.3     1  UNL1        0.1554
     11 C          46.4179   12.3748  -24.7004 C.ar    1  UNL1        0.0577
     12 C          45.2915   12.7178  -25.4221 C.ar    1  UNL1        0.1231
     13 N          45.3907   12.2141  -26.6684 N.ar    1  UNL1       -0.1676
     14 N          46.5474   11.5743  -26.7569 N.ar    1  UNL1       -0.2488
     15 C          46.9715   10.8504  -27.9503 C.3     1  UNL1        0.1537
     16 C          47.2027   11.6519  -25.5785 C.ar    1  UNL1        0.0809
     17 C          48.4602   10.9528  -25.2554 C.ar    1  UNL1        0.0174
     18 C          49.4379   10.7721  -26.2441 C.ar    1  UNL1        0.0012
     19 C          50.6246   10.0962  -25.9455 C.ar    1  UNL1       -0.0042
     20 C          50.8528    9.6056  -24.6509 C.ar    1  UNL1       -0.0218
     21 C          52.1076    8.8447  -24.3414 C.3     1  UNL1        0.0310
     22 C          49.8668    9.7737  -23.6665 C.ar    1  UNL1       -0.0042
     23 C          48.6804   10.4496  -23.9656 C.ar    1  UNL1        0.0012
     24 C          50.4495   14.6128  -25.1072 C.3     1  UNL1        0.1051
     25 C          50.1596   15.3859  -26.3979 C.3     1  UNL1        0.0400
     26 C          48.6691   15.7648  -26.3353 C.3     1  UNL1        0.0791
     27 C          48.0429   14.7926  -25.3320 C.3     1  UNL1        0.1081
     28 N          49.1488   14.2072  -24.5823 N.pl3   1  UNL1       -0.2908
     29 N          48.4106   17.1787  -25.9518 N.3     1  UNL1       -0.2723
     30 C          48.4924   18.1594  -27.0559 C.3     1  UNL1        0.0721
     31 C          48.6112   19.5853  -26.4888 C.3     1  UNL1        0.0174
     32 C          47.9391   19.7302  -25.1120 C.3     1  UNL1        0.0029
     33 C          46.7372   18.7917  -24.9819 C.3     1  UNL1        0.0174
     34 C          47.1528   17.3178  -25.1798 C.3     1  UNL1        0.0721
     35 C          51.3483   13.3882  -25.3449 C.3     1  UNL1        0.1619
     36 C          53.2397   12.3660  -24.4683 C.3     1  UNL1        0.1742
     37 O          52.0424   13.0449  -24.1593 O.3     1  UNL1       -0.3493
@<TRIPOS>BOND
     1    36    37    1
     2    37    35    1
     3    35    24    1
     4    24    25    1
     5    25    26    1
     6    26    29    1
     7    29    30    1
     8    30    31    1
     9    31    32    1
    10    32    33    1
    11    33    34    1
    12    26    27    1
    13    27    28    1
    14    28     1    1
    15     1     2   ar
    16     2     3   ar
    17     3     4   ar
    18     4     5   ar
    19     5     6   ar
    20     6     7   ar
    21     7    11    1
    22    11    12   ar
    23    12    13   ar
    24    13    14   ar
    25    14    15    1
    26    14    16   ar
    27    16    17    1
    28    17    18   ar
    29    18    19   ar
    30    19    20   ar
    31    20    21    1
    32    20    22   ar
    33    22    23   ar
    34     7     8   ar
    35     8     9   ar
    36     9    10    1
    37    28    24    1
    38     6     1   ar
    39    16    11   ar
    40    23    17   ar
    41    34    29    1
    42     9     5   ar
