@<TRIPOS>MOLECULE
*****
 49 54 0 0 0
SMALL
GASTEIGER

@<TRIPOS>ATOM
      1 O         -64.7455  -46.3454  -28.6904 O.2     1  UNL1       -0.2701
      2 C         -63.8663  -45.6657  -28.0981 C.2     1  UNL1        0.2483
      3 N         -63.6824  -44.2794  -28.4355 N.am    1  UNL1       -0.2945
      4 H         -64.2805  -43.8718  -29.1901 H       1  UNL1        0.1501
      5 C         -63.0339  -46.2980  -27.0657 C.ar    1  UNL1        0.0808
      6 C         -63.4698  -46.2871  -25.7354 C.ar    1  UNL1        0.0080
      7 C         -62.5707  -46.5526  -24.7015 C.ar    1  UNL1        0.0148
      8 C         -61.2208  -46.8256  -24.9826 C.ar    1  UNL1        0.0502
      9 C         -60.8144  -46.9322  -26.3261 C.ar    1  UNL1        0.0443
     10 C         -61.7152  -46.6696  -27.3616 C.ar    1  UNL1        0.1457
     11 F         -61.2714  -46.6640  -28.6445 F       1  UNL1       -0.2040
     12 N         -60.2515  -46.8278  -23.9125 N.pl3   1  UNL1       -0.3040
     13 C         -60.6810  -47.2742  -22.5733 C.3     1  UNL1        0.1123
     14 C         -60.0476  -46.4108  -21.4747 C.3     1  UNL1        0.1136
     15 N         -59.8806  -45.0379  -21.9700 N.pl3   1  UNL1       -0.2897
     16 C         -59.0534  -44.8161  -23.1661 C.3     1  UNL1        0.1136
     17 C         -58.9825  -46.0919  -24.0222 C.3     1  UNL1        0.1123
     18 C         -60.6524  -43.9467  -21.4378 C.ar    1  UNL1        0.1318
     19 C         -60.0598  -42.7025  -21.1747 C.ar    1  UNL1        0.0343
     20 C         -60.8256  -41.6808  -20.6131 C.ar    1  UNL1        0.0083
     21 C         -62.1735  -41.9011  -20.2955 C.ar    1  UNL1        0.0906
     22 C         -62.7321  -43.1552  -20.5900 C.ar    1  UNL1        0.1041
     23 N         -61.9647  -44.1384  -21.1312 N.ar    1  UNL1       -0.2292
     24 C         -63.0210  -40.7906  -19.7300 C.3     1  UNL1        0.4200
     25 F         -62.9185  -39.6526  -20.5114 F       1  UNL1       -0.1658
     26 F         -62.6165  -40.4722  -18.4453 F       1  UNL1       -0.1658
     27 F         -64.3416  -41.1975  -19.6985 F       1  UNL1       -0.1658
     28 C         -62.5619  -43.4865  -27.9116 C.3     1  UNL1        0.1535
     29 C         -61.4639  -43.4062  -28.9388 C.2     1  UNL1        0.2443
     30 O         -60.4008  -42.7842  -28.6667 O.2     1  UNL1       -0.2730
     31 N         -61.6339  -44.0370  -30.2185 N.am    1  UNL1       -0.2825
     32 H         -62.5926  -44.3463  -30.4967 H       1  UNL1        0.1549
     33 C         -60.5876  -44.1445  -31.1940 C.ar    1  UNL1        0.0535
     34 C         -59.3501  -44.7237  -30.8739 C.ar    1  UNL1        0.0353
     35 C         -58.3661  -44.8298  -31.8600 C.ar    1  UNL1        0.1002
     36 N         -58.6124  -44.3845  -33.1206 N.ar    1  UNL1       -0.2422
     37 C         -59.8079  -43.8340  -33.4603 C.ar    1  UNL1        0.1002
     38 C         -60.8200  -43.7140  -32.5057 C.ar    1  UNL1        0.0353
     39 C         -63.0293  -42.0851  -27.4881 C.3     1  UNL1        0.0569
     40 C         -63.0966  -41.9742  -25.9889 C.ar    1  UNL1       -0.0017
     41 C         -62.3570  -42.7164  -25.0726 C.ar    1  UNL1        0.0681
     42 N         -62.7854  -42.4751  -23.8127 N.ar    1  UNL1       -0.3523
     43 C         -63.8001  -41.6004  -23.9258 C.ar    1  UNL1        0.0563
     44 C         -64.5982  -41.0963  -22.8995 C.ar    1  UNL1        0.0170
     45 C         -65.6553  -40.2367  -23.2497 C.ar    1  UNL1        0.0015
     46 C         -65.8886  -39.9039  -24.6023 C.ar    1  UNL1        0.0001
     47 C         -65.0658  -40.4256  -25.6167 C.ar    1  UNL1        0.0012
     48 C         -64.0234  -41.2737  -25.2387 C.ar    1  UNL1        0.0131
     49 H         -62.4247  -42.9124  -22.9358 H       1  UNL1        0.1660
@<TRIPOS>BOND
     1     1     2    2
     2     2     3   am
     3     3    28    1
     4    28    39    1
     5    39    40    1
     6    40    41   ar
     7    41    42   ar
     8    42    43   ar
     9    43    44   ar
    10    44    45   ar
    11    45    46   ar
    12    46    47   ar
    13    47    48   ar
    14    28    29    1
    15    29    30    2
    16    29    31   am
    17    31    33    1
    18    33    34   ar
    19    34    35   ar
    20    35    36   ar
    21    36    37   ar
    22    37    38   ar
    23     2     5    1
    24     5     6   ar
    25     6     7   ar
    26     7     8   ar
    27     8    12    1
    28    12    13    1
    29    13    14    1
    30    14    15    1
    31    15    18    1
    32    18    19   ar
    33    19    20   ar
    34    20    21   ar
    35    21    24    1
    36    24    25    1
    37    24    26    1
    38    24    27    1
    39    21    22   ar
    40    22    23   ar
    41    15    16    1
    42    16    17    1
    43     8     9   ar
    44     9    10   ar
    45    10    11    1
    46    48    40   ar
    47    38    33   ar
    48    10     5   ar
    49    48    43   ar
    50    17    12    1
    51    23    18   ar
    52     3     4    1
    53    42    49    1
    54    31    32    1
@<TRIPOS>MOLECULE
*****
 49 54 0 0 0
SMALL
GASTEIGER

@<TRIPOS>ATOM
      1 O         -64.4497  -40.9806  -27.4545 O.2     1  UNL1       -0.2701
      2 C         -63.7805  -41.9497  -27.9003 C.2     1  UNL1        0.2483
      3 N         -63.9498  -42.3717  -29.2651 N.am    1  UNL1       -0.2945
      4 H         -64.6503  -41.8663  -29.8544 H       1  UNL1        0.1501
      5 C         -62.8311  -42.6425  -27.0186 C.ar    1  UNL1        0.0808
      6 C         -63.3218  -43.4858  -26.0146 C.ar    1  UNL1        0.0080
      7 C         -62.4950  -43.8726  -24.9588 C.ar    1  UNL1        0.0148
      8 C         -61.1677  -43.4156  -24.8879 C.ar    1  UNL1        0.0502
      9 C         -60.6546  -42.6503  -25.9520 C.ar    1  UNL1        0.0443
     10 C         -61.4812  -42.2655  -27.0109 C.ar    1  UNL1        0.1457
     11 F         -60.9956  -41.4309  -27.9650 F       1  UNL1       -0.2040
     12 N         -60.4125  -43.5922  -23.6700 N.pl3   1  UNL1       -0.3040
     13 C         -59.0837  -44.2287  -23.7506 C.3     1  UNL1        0.1123
     14 C         -58.8514  -45.1724  -22.5636 C.3     1  UNL1        0.1136
     15 N         -60.1300  -45.7746  -22.1628 N.pl3   1  UNL1       -0.2897
     16 C         -61.2270  -44.8871  -21.7468 C.3     1  UNL1        0.1136
     17 C         -61.0478  -43.4828  -22.3478 C.3     1  UNL1        0.1123
     18 C         -60.3936  -47.1762  -22.3512 C.ar    1  UNL1        0.1318
     19 C         -60.5889  -47.7092  -23.6342 C.ar    1  UNL1        0.0343
     20 C         -60.8910  -49.0635  -23.7779 C.ar    1  UNL1        0.0083
     21 C         -61.0180  -49.8828  -22.6472 C.ar    1  UNL1        0.0906
     22 C         -60.7985  -49.3135  -21.3825 C.ar    1  UNL1        0.1041
     23 N         -60.5119  -47.9896  -21.2662 N.ar    1  UNL1       -0.2292
     24 C         -61.2999  -51.3561  -22.7937 C.3     1  UNL1        0.4200
     25 F         -61.3127  -51.7198  -24.1292 F       1  UNL1       -0.1658
     26 F         -62.5300  -51.6755  -22.2455 F       1  UNL1       -0.1658
     27 F         -60.3158  -52.0743  -22.1409 F       1  UNL1       -0.1658
     28 C         -63.3351  -43.5991  -29.7887 C.3     1  UNL1        0.1535
     29 C         -63.8432  -44.7944  -29.0269 C.2     1  UNL1        0.2443
     30 O         -65.0859  -44.9692  -28.8990 O.2     1  UNL1       -0.2730
     31 N         -62.9118  -45.7256  -28.4526 N.am    1  UNL1       -0.2825
     32 H         -61.9080  -45.4437  -28.3801 H       1  UNL1        0.1549
     33 C         -63.3027  -46.9665  -27.8484 C.ar    1  UNL1        0.0535
     34 C         -63.5812  -48.1000  -28.6275 C.ar    1  UNL1        0.0353
     35 C         -63.9364  -49.2955  -27.9979 C.ar    1  UNL1        0.1002
     36 N         -64.0004  -49.3597  -26.6415 N.ar    1  UNL1       -0.2422
     37 C         -63.7203  -48.2807  -25.8637 C.ar    1  UNL1        0.1002
     38 C         -63.3563  -47.0683  -26.4532 C.ar    1  UNL1        0.0353
     39 C         -63.5992  -43.7481  -31.2953 C.3     1  UNL1        0.0569
     40 C         -62.3220  -43.6076  -32.0785 C.ar    1  UNL1       -0.0017
     41 C         -62.2100  -43.2293  -33.4134 C.ar    1  UNL1        0.0681
     42 N         -60.9330  -43.3645  -33.8379 N.ar    1  UNL1       -0.3523
     43 C         -60.2405  -43.8408  -32.7886 C.ar    1  UNL1        0.0563
     44 C         -58.8923  -44.1952  -32.7579 C.ar    1  UNL1        0.0170
     45 C         -58.3818  -44.7389  -31.5651 C.ar    1  UNL1        0.0015
     46 C         -59.2205  -44.9145  -30.4425 C.ar    1  UNL1        0.0001
     47 C         -60.5765  -44.5460  -30.5015 C.ar    1  UNL1        0.0012
     48 C         -61.0540  -44.0069  -31.6973 C.ar    1  UNL1        0.0131
     49 H         -60.5707  -43.1741  -34.7985 H       1  UNL1        0.1660
@<TRIPOS>BOND
     1     1     2    2
     2     2     3   am
     3     3    28    1
     4    28    39    1
     5    39    40    1
     6    40    41   ar
     7    41    42   ar
     8    42    43   ar
     9    43    44   ar
    10    44    45   ar
    11    45    46   ar
    12    46    47   ar
    13    47    48   ar
    14    28    29    1
    15    29    30    2
    16    29    31   am
    17    31    33    1
    18    33    34   ar
    19    34    35   ar
    20    35    36   ar
    21    36    37   ar
    22    37    38   ar
    23     2     5    1
    24     5     6   ar
    25     6     7   ar
    26     7     8   ar
    27     8    12    1
    28    12    13    1
    29    13    14    1
    30    14    15    1
    31    15    18    1
    32    18    19   ar
    33    19    20   ar
    34    20    21   ar
    35    21    24    1
    36    24    25    1
    37    24    26    1
    38    24    27    1
    39    21    22   ar
    40    22    23   ar
    41    15    16    1
    42    16    17    1
    43     8     9   ar
    44     9    10   ar
    45    10    11    1
    46    48    40   ar
    47    38    33   ar
    48    10     5   ar
    49    48    43   ar
    50    17    12    1
    51    23    18   ar
    52     3     4    1
    53    42    49    1
    54    31    32    1
@<TRIPOS>MOLECULE
*****
 49 54 0 0 0
SMALL
GASTEIGER

@<TRIPOS>ATOM
      1 O         -63.9407  -49.3670  -27.7502 O.2     1  UNL1       -0.2701
      2 C         -63.6159  -48.1577  -27.6179 C.2     1  UNL1        0.2483
      3 N         -64.1002  -47.1777  -28.5531 N.am    1  UNL1       -0.2945
      4 H         -64.7032  -47.5047  -29.3422 H       1  UNL1        0.1501
      5 C         -62.7416  -47.7587  -26.5065 C.ar    1  UNL1        0.0808
      6 C         -63.2999  -47.5472  -25.2402 C.ar    1  UNL1        0.0080
      7 C         -62.5869  -46.8427  -24.2691 C.ar    1  UNL1        0.0148
      8 C         -61.3081  -46.3330  -24.5528 C.ar    1  UNL1        0.0502
      9 C         -60.7154  -46.6358  -25.7932 C.ar    1  UNL1        0.0443
     10 C         -61.4279  -47.3440  -26.7646 C.ar    1  UNL1        0.1457
     11 F         -60.8802  -47.5222  -27.9938 F       1  UNL1       -0.2040
     12 N         -60.6982  -45.3836  -23.6520 N.pl3   1  UNL1       -0.3040
     13 C         -61.2757  -45.2196  -22.3041 C.3     1  UNL1        0.1123
     14 C         -61.2692  -43.7462  -21.8768 C.3     1  UNL1        0.1136
     15 N         -61.4550  -42.8954  -23.0598 N.pl3   1  UNL1       -0.2897
     16 C         -60.4772  -42.9883  -24.1551 C.3     1  UNL1        0.1136
     17 C         -59.7672  -44.3525  -24.1356 C.3     1  UNL1        0.1123
     18 C         -62.6569  -42.1292  -23.2546 C.ar    1  UNL1        0.1318
     19 C         -63.4649  -41.7627  -22.1678 C.ar    1  UNL1        0.0343
     20 C         -64.6491  -41.0617  -22.3965 C.ar    1  UNL1        0.0083
     21 C         -65.0396  -40.7424  -23.7048 C.ar    1  UNL1        0.0906
     22 C         -64.1943  -41.1133  -24.7628 C.ar    1  UNL1        0.1041
     23 N         -63.0482  -41.8020  -24.5166 N.ar    1  UNL1       -0.2292
     24 C         -66.2940  -39.9468  -23.9596 C.3     1  UNL1        0.4200
     25 F         -66.0416  -38.9058  -24.8364 F       1  UNL1       -0.1658
     26 F         -66.7817  -39.4116  -22.7801 F       1  UNL1       -0.1658
     27 F         -67.2542  -40.7754  -24.5090 F       1  UNL1       -0.1658
     28 C         -63.6155  -45.7907  -28.5574 C.3     1  UNL1        0.1535
     29 C         -62.9154  -45.4944  -29.8571 C.2     1  UNL1        0.2443
     30 O         -63.5080  -45.7159  -30.9483 O.2     1  UNL1       -0.2730
     31 N         -61.5807  -44.9625  -29.8457 N.am    1  UNL1       -0.2825
     32 H         -61.0387  -44.9993  -28.9529 H       1  UNL1        0.1549
     33 C         -60.8993  -44.5070  -31.0229 C.ar    1  UNL1        0.0535
     34 C         -59.5625  -44.8546  -31.2710 C.ar    1  UNL1        0.0353
     35 C         -58.9430  -44.4089  -32.4413 C.ar    1  UNL1        0.1002
     36 N         -59.6354  -43.6540  -33.3350 N.ar    1  UNL1       -0.2422
     37 C         -60.9355  -43.3167  -33.1260 C.ar    1  UNL1        0.1002
     38 C         -61.5932  -43.7462  -31.9714 C.ar    1  UNL1        0.0353
     39 C         -64.7674  -44.8039  -28.3101 C.3     1  UNL1        0.0569
     40 C         -64.4721  -43.4689  -28.9387 C.ar    1  UNL1       -0.0017
     41 C         -65.1319  -42.9055  -30.0272 C.ar    1  UNL1        0.0681
     42 N         -64.5043  -41.7764  -30.4280 N.ar    1  UNL1       -0.3523
     43 C         -63.4446  -41.6305  -29.6137 C.ar    1  UNL1        0.0563
     44 C         -62.4640  -40.6410  -29.6736 C.ar    1  UNL1        0.0170
     45 C         -61.3985  -40.7142  -28.7581 C.ar    1  UNL1        0.0015
     46 C         -61.3373  -41.7626  -27.8139 C.ar    1  UNL1        0.0001
     47 C         -62.3420  -42.7461  -27.7749 C.ar    1  UNL1        0.0012
     48 C         -63.3879  -42.6460  -28.6939 C.ar    1  UNL1        0.0131
     49 H         -64.7698  -41.1664  -31.2328 H       1  UNL1        0.1660
@<TRIPOS>BOND
     1     1     2    2
     2     2     3   am
     3     3    28    1
     4    28    39    1
     5    39    40    1
     6    40    41   ar
     7    41    42   ar
     8    42    43   ar
     9    43    44   ar
    10    44    45   ar
    11    45    46   ar
    12    46    47   ar
    13    47    48   ar
    14    28    29    1
    15    29    30    2
    16    29    31   am
    17    31    33    1
    18    33    34   ar
    19    34    35   ar
    20    35    36   ar
    21    36    37   ar
    22    37    38   ar
    23     2     5    1
    24     5     6   ar
    25     6     7   ar
    26     7     8   ar
    27     8    12    1
    28    12    13    1
    29    13    14    1
    30    14    15    1
    31    15    18    1
    32    18    19   ar
    33    19    20   ar
    34    20    21   ar
    35    21    24    1
    36    24    25    1
    37    24    26    1
    38    24    27    1
    39    21    22   ar
    40    22    23   ar
    41    15    16    1
    42    16    17    1
    43     8     9   ar
    44     9    10   ar
    45    10    11    1
    46    48    40   ar
    47    38    33   ar
    48    10     5   ar
    49    48    43   ar
    50    17    12    1
    51    23    18   ar
    52     3     4    1
    53    42    49    1
    54    31    32    1
@<TRIPOS>MOLECULE
*****
 49 54 0 0 0
SMALL
GASTEIGER

@<TRIPOS>ATOM
      1 O         -66.5156  -43.9546  -31.3674 O.2     1  UNL1       -0.2701
      2 C         -65.5866  -43.8328  -30.5262 C.2     1  UNL1        0.2483
      3 N         -64.9298  -42.5636  -30.3605 N.am    1  UNL1       -0.2945
      4 H         -65.2334  -41.7682  -30.9674 H       1  UNL1        0.1501
      5 C         -65.1808  -44.9924  -29.7204 C.ar    1  UNL1        0.0808
      6 C         -65.0452  -44.8474  -28.3345 C.ar    1  UNL1        0.0080
      7 C         -64.3383  -45.7980  -27.5967 C.ar    1  UNL1        0.0148
      8 C         -63.7504  -46.9036  -28.2352 C.ar    1  UNL1        0.0502
      9 C         -63.9763  -47.0930  -29.6116 C.ar    1  UNL1        0.0443
     10 C         -64.6868  -46.1429  -30.3501 C.ar    1  UNL1        0.1457
     11 F         -64.7912  -46.2880  -31.6957 F       1  UNL1       -0.2040
     12 N         -62.8022  -47.7245  -27.5197 N.pl3   1  UNL1       -0.3040
     13 C         -63.2147  -48.3208  -26.2346 C.3     1  UNL1        0.1123
     14 C         -62.0671  -48.2861  -25.2170 C.3     1  UNL1        0.1136
     15 N         -61.2481  -47.0885  -25.4473 N.pl3   1  UNL1       -0.2897
     16 C         -60.6099  -46.9134  -26.7612 C.3     1  UNL1        0.1136
     17 C         -61.3673  -47.7020  -27.8428 C.3     1  UNL1        0.1123
     18 C         -61.2156  -46.0055  -24.5009 C.ar    1  UNL1        0.1318
     19 C         -62.2634  -45.8110  -23.5884 C.ar    1  UNL1        0.0343
     20 C         -62.2236  -44.7224  -22.7170 C.ar    1  UNL1        0.0083
     21 C         -61.1536  -43.8174  -22.7656 C.ar    1  UNL1        0.0906
     22 C         -60.1175  -44.0577  -23.6822 C.ar    1  UNL1        0.1041
     23 N         -60.1809  -45.1215  -24.5265 N.ar    1  UNL1       -0.2292
     24 C         -61.0788  -42.6637  -21.7988 C.3     1  UNL1        0.4200
     25 F         -61.0930  -41.4572  -22.4771 F       1  UNL1       -0.1658
     26 F         -59.9158  -42.7269  -21.0510 F       1  UNL1       -0.1658
     27 F         -62.1656  -42.7137  -20.9463 F       1  UNL1       -0.1658
     28 C         -63.7282  -42.4047  -29.5301 C.3     1  UNL1        0.1535
     29 C         -62.4942  -42.4921  -30.3885 C.2     1  UNL1        0.2443
     30 O         -61.8114  -41.4540  -30.6051 O.2     1  UNL1       -0.2730
     31 N         -62.1037  -43.7543  -30.9534 N.am    1  UNL1       -0.2825
     32 H         -62.7956  -44.5375  -30.9457 H       1  UNL1        0.1549
     33 C         -60.8669  -43.9618  -31.6498 C.ar    1  UNL1        0.0535
     34 C         -59.7599  -44.5415  -31.0112 C.ar    1  UNL1        0.0353
     35 C         -58.5812  -44.7471  -31.7324 C.ar    1  UNL1        0.1002
     36 N         -58.5139  -44.3972  -33.0443 N.ar    1  UNL1       -0.2422
     37 C         -59.5767  -43.8486  -33.6902 C.ar    1  UNL1        0.1002
     38 C         -60.7751  -43.6311  -33.0070 C.ar    1  UNL1        0.0353
     39 C         -63.7689  -41.0811  -28.7501 C.3     1  UNL1        0.0569
     40 C         -63.4287  -41.3036  -27.3013 C.ar    1  UNL1       -0.0017
     41 C         -62.3491  -42.0318  -26.8097 C.ar    1  UNL1        0.0681
     42 N         -62.4391  -42.1627  -25.4665 N.ar    1  UNL1       -0.3523
     43 C         -63.5743  -41.5386  -25.1071 C.ar    1  UNL1        0.0563
     44 C         -64.1229  -41.4551  -23.8278 C.ar    1  UNL1        0.0170
     45 C         -65.3624  -40.8057  -23.6845 C.ar    1  UNL1        0.0015
     46 C         -66.0187  -40.2604  -24.8098 C.ar    1  UNL1        0.0001
     47 C         -65.4406  -40.3574  -26.0883 C.ar    1  UNL1        0.0012
     48 C         -64.2090  -41.0051  -26.1992 C.ar    1  UNL1        0.0131
     49 H         -61.7790  -42.6791  -24.8437 H       1  UNL1        0.1660
@<TRIPOS>BOND
     1     1     2    2
     2     2     3   am
     3     3    28    1
     4    28    39    1
     5    39    40    1
     6    40    41   ar
     7    41    42   ar
     8    42    43   ar
     9    43    44   ar
    10    44    45   ar
    11    45    46   ar
    12    46    47   ar
    13    47    48   ar
    14    28    29    1
    15    29    30    2
    16    29    31   am
    17    31    33    1
    18    33    34   ar
    19    34    35   ar
    20    35    36   ar
    21    36    37   ar
    22    37    38   ar
    23     2     5    1
    24     5     6   ar
    25     6     7   ar
    26     7     8   ar
    27     8    12    1
    28    12    13    1
    29    13    14    1
    30    14    15    1
    31    15    18    1
    32    18    19   ar
    33    19    20   ar
    34    20    21   ar
    35    21    24    1
    36    24    25    1
    37    24    26    1
    38    24    27    1
    39    21    22   ar
    40    22    23   ar
    41    15    16    1
    42    16    17    1
    43     8     9   ar
    44     9    10   ar
    45    10    11    1
    46    48    40   ar
    47    38    33   ar
    48    10     5   ar
    49    48    43   ar
    50    17    12    1
    51    23    18   ar
    52     3     4    1
    53    42    49    1
    54    31    32    1
@<TRIPOS>MOLECULE
*****
 49 54 0 0 0
SMALL
GASTEIGER

@<TRIPOS>ATOM
      1 O         -59.9249  -41.7693  -27.6673 O.2     1  UNL1       -0.2701
      2 C         -60.6739  -42.5762  -27.0561 C.2     1  UNL1        0.2483
      3 N         -61.1583  -43.7539  -27.7253 N.am    1  UNL1       -0.2945
      4 H         -60.8866  -43.9006  -28.7243 H       1  UNL1        0.1501
      5 C         -61.0478  -42.3049  -25.6614 C.ar    1  UNL1        0.0808
      6 C         -60.0944  -42.4829  -24.6517 C.ar    1  UNL1        0.0080
      7 C         -60.4958  -42.5783  -23.3184 C.ar    1  UNL1        0.0148
      8 C         -61.8571  -42.5046  -22.9763 C.ar    1  UNL1        0.0502
      9 C         -62.7977  -42.2264  -23.9860 C.ar    1  UNL1        0.0443
     10 C         -62.3957  -42.1276  -25.3207 C.ar    1  UNL1        0.1457
     11 F         -63.3348  -41.9758  -26.2891 F       1  UNL1       -0.2040
     12 N         -62.2837  -42.8737  -21.6472 N.pl3   1  UNL1       -0.3040
     13 C         -63.7283  -42.8797  -21.3467 C.3     1  UNL1        0.1123
     14 C         -64.0009  -42.3362  -19.9382 C.3     1  UNL1        0.1136
     15 N         -63.0042  -41.3075  -19.6119 N.pl3   1  UNL1       -0.2897
     16 C         -61.5807  -41.6786  -19.6182 C.3     1  UNL1        0.1136
     17 C         -61.3422  -42.9035  -20.5173 C.3     1  UNL1        0.1123
     18 C         -63.3681  -39.9219  -19.4801 C.ar    1  UNL1        0.1318
     19 C         -64.3463  -39.5156  -18.5601 C.ar    1  UNL1        0.0343
     20 C         -64.7103  -38.1707  -18.4920 C.ar    1  UNL1        0.0083
     21 C         -64.1171  -37.2340  -19.3504 C.ar    1  UNL1        0.0906
     22 C         -63.1308  -37.6794  -20.2449 C.ar    1  UNL1        0.1041
     23 N         -62.7969  -38.9963  -20.2984 N.ar    1  UNL1       -0.2292
     24 C         -64.4707  -35.7721  -19.2544 C.3     1  UNL1        0.4200
     25 F         -64.2928  -35.3111  -17.9614 F       1  UNL1       -0.1658
     26 F         -65.7918  -35.5640  -19.6109 F       1  UNL1       -0.1658
     27 F         -63.6555  -35.0503  -20.1058 F       1  UNL1       -0.1658
     28 C         -62.1723  -44.6340  -27.1288 C.3     1  UNL1        0.1535
     29 C         -63.2921  -44.8666  -28.1082 C.2     1  UNL1        0.2443
     30 O         -64.1508  -45.7598  -27.8719 O.2     1  UNL1       -0.2730
     31 N         -63.3749  -44.0715  -29.3022 N.am    1  UNL1       -0.2825
     32 H         -62.5424  -43.5043  -29.5803 H       1  UNL1        0.1549
     33 C         -64.4860  -44.1164  -30.2084 C.ar    1  UNL1        0.0535
     34 C         -65.5868  -43.2599  -30.0540 C.ar    1  UNL1        0.0353
     35 C         -66.6379  -43.3203  -30.9724 C.ar    1  UNL1        0.1002
     36 N         -66.5867  -44.1952  -32.0116 N.ar    1  UNL1       -0.2422
     37 C         -65.5249  -45.0245  -32.1925 C.ar    1  UNL1        0.1002
     38 C         -64.4513  -44.9921  -31.3001 C.ar    1  UNL1        0.0353
     39 C         -61.5490  -45.9627  -26.6728 C.3     1  UNL1        0.0569
     40 C         -61.6546  -46.1184  -25.1798 C.ar    1  UNL1       -0.0017
     41 C         -62.8187  -46.0319  -24.4216 C.ar    1  UNL1        0.0681
     42 N         -62.5264  -46.0593  -23.1013 N.ar    1  UNL1       -0.3523
     43 C         -61.1873  -46.1451  -23.0183 C.ar    1  UNL1        0.0563
     44 C         -60.4117  -46.1453  -21.8595 C.ar    1  UNL1        0.0170
     45 C         -59.0128  -46.1767  -22.0040 C.ar    1  UNL1        0.0015
     46 C         -58.4267  -46.2068  -23.2885 C.ar    1  UNL1        0.0001
     47 C         -59.2340  -46.2081  -24.4403 C.ar    1  UNL1        0.0012
     48 C         -60.6187  -46.1791  -24.2657 C.ar    1  UNL1        0.0131
     49 H         -63.2039  -45.9877  -22.3100 H       1  UNL1        0.1660
@<TRIPOS>BOND
     1     1     2    2
     2     2     3   am
     3     3    28    1
     4    28    39    1
     5    39    40    1
     6    40    41   ar
     7    41    42   ar
     8    42    43   ar
     9    43    44   ar
    10    44    45   ar
    11    45    46   ar
    12    46    47   ar
    13    47    48   ar
    14    28    29    1
    15    29    30    2
    16    29    31   am
    17    31    33    1
    18    33    34   ar
    19    34    35   ar
    20    35    36   ar
    21    36    37   ar
    22    37    38   ar
    23     2     5    1
    24     5     6   ar
    25     6     7   ar
    26     7     8   ar
    27     8    12    1
    28    12    13    1
    29    13    14    1
    30    14    15    1
    31    15    18    1
    32    18    19   ar
    33    19    20   ar
    34    20    21   ar
    35    21    24    1
    36    24    25    1
    37    24    26    1
    38    24    27    1
    39    21    22   ar
    40    22    23   ar
    41    15    16    1
    42    16    17    1
    43     8     9   ar
    44     9    10   ar
    45    10    11    1
    46    48    40   ar
    47    38    33   ar
    48    10     5   ar
    49    48    43   ar
    50    17    12    1
    51    23    18   ar
    52     3     4    1
    53    42    49    1
    54    31    32    1
@<TRIPOS>MOLECULE
*****
 49 54 0 0 0
SMALL
GASTEIGER

@<TRIPOS>ATOM
      1 O         -58.3503  -43.5331  -22.5928 O.2     1  UNL1       -0.2701
      2 C         -59.5169  -43.0813  -22.7357 C.2     1  UNL1        0.2483
      3 N         -60.1073  -42.2768  -21.6995 N.am    1  UNL1       -0.2945
      4 H         -59.5496  -42.1024  -20.8324 H       1  UNL1        0.1501
      5 C         -60.2663  -43.3824  -23.9631 C.ar    1  UNL1        0.0808
      6 C         -60.3649  -42.4048  -24.9604 C.ar    1  UNL1        0.0080
      7 C         -61.3363  -42.5158  -25.9563 C.ar    1  UNL1        0.0148
      8 C         -62.2280  -43.6023  -25.9651 C.ar    1  UNL1        0.0502
      9 C         -62.0570  -44.6296  -25.0180 C.ar    1  UNL1        0.0443
     10 C         -61.0824  -44.5203  -24.0226 C.ar    1  UNL1        0.1457
     11 F         -61.0139  -45.4663  -23.0515 F       1  UNL1       -0.2040
     12 N         -63.3891  -43.5704  -26.8228 N.pl3   1  UNL1       -0.3040
     13 C         -63.7795  -44.8069  -27.5270 C.3     1  UNL1        0.1123
     14 C         -64.2579  -44.5022  -28.9524 C.3     1  UNL1        0.1136
     15 N         -63.5186  -43.3464  -29.4775 N.pl3   1  UNL1       -0.2897
     16 C         -63.6046  -42.0677  -28.7553 C.3     1  UNL1        0.1136
     17 C         -63.9731  -42.3002  -27.2803 C.3     1  UNL1        0.1123
     18 C         -62.5724  -43.4835  -30.5525 C.ar    1  UNL1        0.1318
     19 C         -61.2902  -44.0058  -30.3250 C.ar    1  UNL1        0.0343
     20 C         -60.3804  -44.0797  -31.3799 C.ar    1  UNL1        0.0083
     21 C         -60.7376  -43.6173  -32.6545 C.ar    1  UNL1        0.0906
     22 C         -62.0359  -43.1171  -32.8434 C.ar    1  UNL1        0.1041
     23 N         -62.9036  -43.0484  -31.7989 N.ar    1  UNL1       -0.2292
     24 C         -59.7779  -43.7337  -33.8108 C.3     1  UNL1        0.4200
     25 F         -58.8836  -42.6771  -33.8107 F       1  UNL1       -0.1658
     26 F         -60.4598  -43.7244  -35.0152 F       1  UNL1       -0.1658
     27 F         -59.0749  -44.9186  -33.7005 F       1  UNL1       -0.1658
     28 C         -61.5198  -41.8735  -21.7283 C.3     1  UNL1        0.1535
     29 C         -62.2642  -42.5250  -20.5931 C.2     1  UNL1        0.2443
     30 O         -61.7178  -42.6140  -19.4597 O.2     1  UNL1       -0.2730
     31 N         -63.5885  -43.0394  -20.8079 N.am    1  UNL1       -0.2825
     32 H         -63.9237  -43.1541  -21.7911 H       1  UNL1        0.1549
     33 C         -64.4275  -43.5324  -19.7540 C.ar    1  UNL1        0.0535
     34 C         -65.0015  -42.6636  -18.8132 C.ar    1  UNL1        0.0353
     35 C         -65.8313  -43.1825  -17.8161 C.ar    1  UNL1        0.1002
     36 N         -66.0869  -44.5168  -17.7670 N.ar    1  UNL1       -0.2422
     37 C         -65.5561  -45.3774  -18.6754 C.ar    1  UNL1        0.1002
     38 C         -64.7257  -44.8988  -19.6910 C.ar    1  UNL1        0.0353
     39 C         -61.6569  -40.3436  -21.6761 C.3     1  UNL1        0.0569
     40 C         -63.0967  -39.9414  -21.5040 C.ar    1  UNL1       -0.0017
     41 C         -63.6750  -39.4178  -20.3512 C.ar    1  UNL1        0.0681
     42 N         -65.0164  -39.3232  -20.4958 N.ar    1  UNL1       -0.3523
     43 C         -65.2928  -39.7982  -21.7227 C.ar    1  UNL1        0.0563
     44 C         -66.5508  -39.9551  -22.3034 C.ar    1  UNL1        0.0170
     45 C         -66.6173  -40.5371  -23.5823 C.ar    1  UNL1        0.0015
     46 C         -65.4386  -40.9449  -24.2449 C.ar    1  UNL1        0.0001
     47 C         -64.1827  -40.7722  -23.6359 C.ar    1  UNL1        0.0012
     48 C         -64.1478  -40.1897  -22.3678 C.ar    1  UNL1        0.0131
     49 H         -65.6993  -38.9863  -19.7814 H       1  UNL1        0.1660
@<TRIPOS>BOND
     1     1     2    2
     2     2     3   am
     3     3    28    1
     4    28    39    1
     5    39    40    1
     6    40    41   ar
     7    41    42   ar
     8    42    43   ar
     9    43    44   ar
    10    44    45   ar
    11    45    46   ar
    12    46    47   ar
    13    47    48   ar
    14    28    29    1
    15    29    30    2
    16    29    31   am
    17    31    33    1
    18    33    34   ar
    19    34    35   ar
    20    35    36   ar
    21    36    37   ar
    22    37    38   ar
    23     2     5    1
    24     5     6   ar
    25     6     7   ar
    26     7     8   ar
    27     8    12    1
    28    12    13    1
    29    13    14    1
    30    14    15    1
    31    15    18    1
    32    18    19   ar
    33    19    20   ar
    34    20    21   ar
    35    21    24    1
    36    24    25    1
    37    24    26    1
    38    24    27    1
    39    21    22   ar
    40    22    23   ar
    41    15    16    1
    42    16    17    1
    43     8     9   ar
    44     9    10   ar
    45    10    11    1
    46    48    40   ar
    47    38    33   ar
    48    10     5   ar
    49    48    43   ar
    50    17    12    1
    51    23    18   ar
    52     3     4    1
    53    42    49    1
    54    31    32    1
@<TRIPOS>MOLECULE
*****
 49 54 0 0 0
SMALL
GASTEIGER

@<TRIPOS>ATOM
      1 O         -64.3802  -41.1429  -27.0776 O.2     1  UNL1       -0.2701
      2 C         -63.7210  -41.9630  -27.7694 C.2     1  UNL1        0.2483
      3 N         -63.8844  -41.9914  -29.1984 N.am    1  UNL1       -0.2945
      4 H         -64.5724  -41.3325  -29.6293 H       1  UNL1        0.1501
      5 C         -62.7893  -42.8863  -27.1076 C.ar    1  UNL1        0.0808
      6 C         -63.2978  -44.0023  -26.4322 C.ar    1  UNL1        0.0080
      7 C         -62.5007  -44.6893  -25.5154 C.ar    1  UNL1        0.0148
      8 C         -61.1860  -44.2658  -25.2552 C.ar    1  UNL1        0.0502
      9 C         -60.6514  -43.2053  -26.0109 C.ar    1  UNL1        0.0443
     10 C         -61.4482  -42.5192  -26.9312 C.ar    1  UNL1        0.1457
     11 F         -60.9464  -41.4270  -27.5621 F       1  UNL1       -0.2040
     12 N         -60.4701  -44.8034  -24.1225 N.pl3   1  UNL1       -0.3040
     13 C         -61.1685  -45.7502  -23.2320 C.3     1  UNL1        0.1123
     14 C         -60.8049  -45.4967  -21.7633 C.3     1  UNL1        0.1136
     15 N         -60.5639  -44.0615  -21.5621 N.pl3   1  UNL1       -0.2897
     16 C         -59.5033  -43.4087  -22.3450 C.3     1  UNL1        0.1136
     17 C         -59.2230  -44.1911  -23.6391 C.3     1  UNL1        0.1123
     18 C         -61.4550  -43.2519  -20.7746 C.ar    1  UNL1        0.1318
     19 C         -62.8461  -43.4091  -20.8661 C.ar    1  UNL1        0.0343
     20 C         -63.6830  -42.5746  -20.1250 C.ar    1  UNL1        0.0083
     21 C         -63.1387  -41.5725  -19.3092 C.ar    1  UNL1        0.0906
     22 C         -61.7412  -41.4595  -19.2333 C.ar    1  UNL1        0.1041
     23 N         -60.9453  -42.2796  -19.9699 N.ar    1  UNL1       -0.2292
     24 C         -64.0321  -40.6951  -18.4704 C.3     1  UNL1        0.4200
     25 F         -65.1467  -40.3028  -19.1915 F       1  UNL1       -0.1658
     26 F         -63.3573  -39.5577  -18.0625 F       1  UNL1       -0.1658
     27 F         -64.4430  -41.3995  -17.3544 F       1  UNL1       -0.1658
     28 C         -63.2826  -43.0376  -30.0361 C.3     1  UNL1        0.1535
     29 C         -63.9929  -44.3466  -29.8139 C.2     1  UNL1        0.2443
     30 O         -65.2521  -44.3675  -29.7420 O.2     1  UNL1       -0.2730
     31 N         -63.2338  -45.5598  -29.6860 N.am    1  UNL1       -0.2825
     32 H         -62.2036  -45.4869  -29.5264 H       1  UNL1        0.1549
     33 C         -63.8283  -46.8640  -29.6288 C.ar    1  UNL1        0.0535
     34 C         -64.7589  -47.2831  -30.5920 C.ar    1  UNL1        0.0353
     35 C         -65.2969  -48.5700  -30.5126 C.ar    1  UNL1        0.1002
     36 N         -64.9120  -49.4103  -29.5158 N.ar    1  UNL1       -0.2422
     37 C         -64.0008  -49.0344  -28.5798 C.ar    1  UNL1        0.1002
     38 C         -63.4352  -47.7585  -28.6261 C.ar    1  UNL1        0.0353
     39 C         -63.3076  -42.6376  -31.5198 C.3     1  UNL1        0.0569
     40 C         -62.0425  -43.0689  -32.2112 C.ar    1  UNL1       -0.0017
     41 C         -61.8462  -43.1682  -33.5857 C.ar    1  UNL1        0.0681
     42 N         -60.6498  -43.7397  -33.8525 N.ar    1  UNL1       -0.3523
     43 C         -60.0959  -44.0179  -32.6595 C.ar    1  UNL1        0.0563
     44 C         -58.8839  -44.6651  -32.4220 C.ar    1  UNL1        0.0170
     45 C         -58.5222  -44.9152  -31.0858 C.ar    1  UNL1        0.0015
     46 C         -59.3702  -44.5177  -30.0287 C.ar    1  UNL1        0.0001
     47 C         -60.5863  -43.8644  -30.2979 C.ar    1  UNL1        0.0012
     48 C         -60.9172  -43.6276  -31.6332 C.ar    1  UNL1        0.0131
     49 H         -60.2573  -43.9557  -34.7957 H       1  UNL1        0.1660
@<TRIPOS>BOND
     1     1     2    2
     2     2     3   am
     3     3    28    1
     4    28    39    1
     5    39    40    1
     6    40    41   ar
     7    41    42   ar
     8    42    43   ar
     9    43    44   ar
    10    44    45   ar
    11    45    46   ar
    12    46    47   ar
    13    47    48   ar
    14    28    29    1
    15    29    30    2
    16    29    31   am
    17    31    33    1
    18    33    34   ar
    19    34    35   ar
    20    35    36   ar
    21    36    37   ar
    22    37    38   ar
    23     2     5    1
    24     5     6   ar
    25     6     7   ar
    26     7     8   ar
    27     8    12    1
    28    12    13    1
    29    13    14    1
    30    14    15    1
    31    15    18    1
    32    18    19   ar
    33    19    20   ar
    34    20    21   ar
    35    21    24    1
    36    24    25    1
    37    24    26    1
    38    24    27    1
    39    21    22   ar
    40    22    23   ar
    41    15    16    1
    42    16    17    1
    43     8     9   ar
    44     9    10   ar
    45    10    11    1
    46    48    40   ar
    47    38    33   ar
    48    10     5   ar
    49    48    43   ar
    50    17    12    1
    51    23    18   ar
    52     3     4    1
    53    42    49    1
    54    31    32    1
@<TRIPOS>MOLECULE
*****
 49 54 0 0 0
SMALL
GASTEIGER

@<TRIPOS>ATOM
      1 O         -63.8118  -48.9125  -27.2984 O.2     1  UNL1       -0.2701
      2 C         -63.5381  -47.6842  -27.3407 C.2     1  UNL1        0.2483
      3 N         -64.1805  -46.8384  -28.3110 N.am    1  UNL1       -0.2945
      4 H         -64.8541  -47.2777  -28.9792 H       1  UNL1        0.1501
      5 C         -62.5613  -47.1255  -26.3960 C.ar    1  UNL1        0.0808
      6 C         -63.0064  -46.6389  -25.1611 C.ar    1  UNL1        0.0080
      7 C         -62.1886  -45.7995  -24.4031 C.ar    1  UNL1        0.0148
      8 C         -60.9168  -45.4286  -24.8726 C.ar    1  UNL1        0.0502
      9 C         -60.4392  -46.0016  -26.0664 C.ar    1  UNL1        0.0443
     10 C         -61.2565  -46.8446  -26.8240 C.ar    1  UNL1        0.1457
     11 F         -60.8176  -47.2909  -28.0285 F       1  UNL1       -0.2040
     12 N         -60.1973  -44.3574  -24.2249 N.pl3   1  UNL1       -0.3040
     13 C         -59.5417  -44.6297  -22.9313 C.3     1  UNL1        0.1123
     14 C         -59.6906  -43.4386  -21.9760 C.3     1  UNL1        0.1136
     15 N         -60.9750  -42.7711  -22.2265 N.pl3   1  UNL1       -0.2897
     16 C         -61.2376  -42.2297  -23.5689 C.3     1  UNL1        0.1136
     17 C         -60.3839  -42.9538  -24.6236 C.3     1  UNL1        0.1123
     18 C         -62.0422  -42.8063  -21.2624 C.ar    1  UNL1        0.1318
     19 C         -62.9475  -43.8776  -21.2248 C.ar    1  UNL1        0.0343
     20 C         -63.9999  -43.8570  -20.3094 C.ar    1  UNL1        0.0083
     21 C         -64.1639  -42.7644  -19.4460 C.ar    1  UNL1        0.0906
     22 C         -63.2265  -41.7207  -19.5048 C.ar    1  UNL1        0.1041
     23 N         -62.2126  -41.7591  -20.4098 N.ar    1  UNL1       -0.2292
     24 C         -65.2709  -42.7528  -18.4233 C.3     1  UNL1        0.4200
     25 F         -64.7716  -42.4539  -17.1673 F       1  UNL1       -0.1658
     26 F         -65.8916  -43.9883  -18.3603 F       1  UNL1       -0.1658
     27 F         -66.2052  -41.7969  -18.7755 F       1  UNL1       -0.1658
     28 C         -63.7738  -45.4433  -28.5273 C.3     1  UNL1        0.1535
     29 C         -63.0007  -45.3263  -29.8141 C.2     1  UNL1        0.2443
     30 O         -63.5159  -45.7372  -30.8897 O.2     1  UNL1       -0.2730
     31 N         -61.6851  -44.7488  -29.8084 N.am    1  UNL1       -0.2825
     32 H         -61.2004  -44.6257  -28.8907 H       1  UNL1        0.1549
     33 C         -60.9430  -44.4564  -31.0006 C.ar    1  UNL1        0.0535
     34 C         -61.5179  -43.7341  -32.0576 C.ar    1  UNL1        0.0353
     35 C         -60.7528  -43.4509  -33.1918 C.ar    1  UNL1        0.1002
     36 N         -59.4596  -43.8638  -33.2632 N.ar    1  UNL1       -0.2422
     37 C         -58.8745  -44.5511  -32.2468 C.ar    1  UNL1        0.1002
     38 C         -59.6028  -44.8502  -31.0935 C.ar    1  UNL1        0.0353
     39 C         -64.9929  -44.5075  -28.5253 C.3     1  UNL1        0.0569
     40 C         -64.6456  -43.1756  -29.1336 C.ar    1  UNL1       -0.0017
     41 C         -65.2842  -42.5691  -30.2114 C.ar    1  UNL1        0.0681
     42 N         -64.6127  -41.4598  -30.5959 N.ar    1  UNL1       -0.3523
     43 C         -63.5465  -41.3693  -29.7821 C.ar    1  UNL1        0.0563
     44 C         -62.5272  -40.4190  -29.8289 C.ar    1  UNL1        0.0170
     45 C         -61.4637  -40.5492  -28.9173 C.ar    1  UNL1        0.0015
     46 C         -61.4428  -41.6142  -27.9899 C.ar    1  UNL1        0.0001
     47 C         -62.4860  -42.5572  -27.9639 C.ar    1  UNL1        0.0012
     48 C         -63.5288  -42.4007  -28.8786 C.ar    1  UNL1        0.0131
     49 H         -64.8551  -40.8270  -31.3903 H       1  UNL1        0.1660
@<TRIPOS>BOND
     1     1     2    2
     2     2     3   am
     3     3    28    1
     4    28    39    1
     5    39    40    1
     6    40    41   ar
     7    41    42   ar
     8    42    43   ar
     9    43    44   ar
    10    44    45   ar
    11    45    46   ar
    12    46    47   ar
    13    47    48   ar
    14    28    29    1
    15    29    30    2
    16    29    31   am
    17    31    33    1
    18    33    34   ar
    19    34    35   ar
    20    35    36   ar
    21    36    37   ar
    22    37    38   ar
    23     2     5    1
    24     5     6   ar
    25     6     7   ar
    26     7     8   ar
    27     8    12    1
    28    12    13    1
    29    13    14    1
    30    14    15    1
    31    15    18    1
    32    18    19   ar
    33    19    20   ar
    34    20    21   ar
    35    21    24    1
    36    24    25    1
    37    24    26    1
    38    24    27    1
    39    21    22   ar
    40    22    23   ar
    41    15    16    1
    42    16    17    1
    43     8     9   ar
    44     9    10   ar
    45    10    11    1
    46    48    40   ar
    47    38    33   ar
    48    10     5   ar
    49    48    43   ar
    50    17    12    1
    51    23    18   ar
    52     3     4    1
    53    42    49    1
    54    31    32    1
@<TRIPOS>MOLECULE
*****
 49 54 0 0 0
SMALL
GASTEIGER

@<TRIPOS>ATOM
      1 O         -62.9790  -49.0309  -26.3418 O.2     1  UNL1       -0.2701
      2 C         -62.6594  -47.8151  -26.4148 C.2     1  UNL1        0.2483
      3 N         -62.9812  -47.0578  -27.5948 N.am    1  UNL1       -0.2945
      4 H         -63.4625  -47.5508  -28.3813 H       1  UNL1        0.1501
      5 C         -61.9577  -47.1806  -25.2907 C.ar    1  UNL1        0.0808
      6 C         -62.6913  -46.7718  -24.1706 C.ar    1  UNL1        0.0080
      7 C         -62.1368  -45.8703  -23.2610 C.ar    1  UNL1        0.0148
      8 C         -60.8432  -45.3586  -23.4623 C.ar    1  UNL1        0.0502
      9 C         -60.0770  -45.8508  -24.5357 C.ar    1  UNL1        0.0443
     10 C         -60.6309  -46.7560  -25.4449 C.ar    1  UNL1        0.1457
     11 F         -59.9136  -47.1260  -26.5364 F       1  UNL1       -0.2040
     12 N         -60.3869  -44.2341  -22.6800 N.pl3   1  UNL1       -0.3040
     13 C         -60.8057  -44.1411  -21.2682 C.3     1  UNL1        0.1123
     14 C         -61.1241  -42.6910  -20.8818 C.3     1  UNL1        0.1136
     15 N         -61.6763  -41.9867  -22.0467 N.pl3   1  UNL1       -0.2897
     16 C         -60.8595  -41.8950  -23.2669 C.3     1  UNL1        0.1136
     17 C         -59.8251  -43.0321  -23.3153 C.3     1  UNL1        0.1123
     18 C         -63.0500  -41.5616  -22.0878 C.ar    1  UNL1        0.1318
     19 C         -63.7157  -41.3837  -23.3100 C.ar    1  UNL1        0.0343
     20 C         -65.0326  -40.9237  -23.3154 C.ar    1  UNL1        0.0083
     21 C         -65.6807  -40.6225  -22.1090 C.ar    1  UNL1        0.0906
     22 C         -64.9845  -40.8301  -20.9075 C.ar    1  UNL1        0.1041
     23 N         -63.6991  -41.2727  -20.9268 N.ar    1  UNL1       -0.2292
     24 C         -67.1176  -40.1677  -22.1016 C.3     1  UNL1        0.4200
     25 F         -67.8424  -40.8572  -21.1448 F       1  UNL1       -0.1658
     26 F         -67.7069  -40.3884  -23.3343 F       1  UNL1       -0.1658
     27 F         -67.1652  -38.8163  -21.8151 F       1  UNL1       -0.1658
     28 C         -62.4801  -45.6939  -27.8125 C.3     1  UNL1        0.1535
     29 C         -62.3449  -45.4247  -29.2878 C.2     1  UNL1        0.2443
     30 O         -63.1966  -45.8992  -30.0881 O.2     1  UNL1       -0.2730
     31 N         -61.2497  -44.6311  -29.7728 N.am    1  UNL1       -0.2825
     32 H         -60.4489  -44.4426  -29.1283 H       1  UNL1        0.1549
     33 C         -61.1286  -44.1960  -31.1343 C.ar    1  UNL1        0.0535
     34 C         -59.9592  -44.4326  -31.8732 C.ar    1  UNL1        0.0353
     35 C         -59.8911  -44.0126  -33.2039 C.ar    1  UNL1        0.1002
     36 N         -60.9542  -43.3897  -33.7782 N.ar    1  UNL1       -0.2422
     37 C         -62.1037  -43.1626  -33.0893 C.ar    1  UNL1        0.1002
     38 C         -62.2148  -43.5713  -31.7586 C.ar    1  UNL1        0.0353
     39 C         -63.3946  -44.6573  -27.1408 C.3     1  UNL1        0.0569
     40 C         -63.1630  -43.2867  -27.7173 C.ar    1  UNL1       -0.0017
     41 C         -62.2705  -42.3310  -27.2403 C.ar    1  UNL1        0.0681
     42 N         -62.4377  -41.1593  -27.8947 N.ar    1  UNL1       -0.3523
     43 C         -63.4391  -41.3608  -28.7688 C.ar    1  UNL1        0.0563
     44 C         -64.0102  -40.4235  -29.6288 C.ar    1  UNL1        0.0170
     45 C         -65.1002  -40.8329  -30.4182 C.ar    1  UNL1        0.0015
     46 C         -65.5897  -42.1548  -30.3315 C.ar    1  UNL1        0.0001
     47 C         -64.9925  -43.0799  -29.4565 C.ar    1  UNL1        0.0012
     48 C         -63.9112  -42.6457  -28.6878 C.ar    1  UNL1        0.0131
     49 H         -61.9189  -40.2693  -27.7244 H       1  UNL1        0.1660
@<TRIPOS>BOND
     1     1     2    2
     2     2     3   am
     3     3    28    1
     4    28    39    1
     5    39    40    1
     6    40    41   ar
     7    41    42   ar
     8    42    43   ar
     9    43    44   ar
    10    44    45   ar
    11    45    46   ar
    12    46    47   ar
    13    47    48   ar
    14    28    29    1
    15    29    30    2
    16    29    31   am
    17    31    33    1
    18    33    34   ar
    19    34    35   ar
    20    35    36   ar
    21    36    37   ar
    22    37    38   ar
    23     2     5    1
    24     5     6   ar
    25     6     7   ar
    26     7     8   ar
    27     8    12    1
    28    12    13    1
    29    13    14    1
    30    14    15    1
    31    15    18    1
    32    18    19   ar
    33    19    20   ar
    34    20    21   ar
    35    21    24    1
    36    24    25    1
    37    24    26    1
    38    24    27    1
    39    21    22   ar
    40    22    23   ar
    41    15    16    1
    42    16    17    1
    43     8     9   ar
    44     9    10   ar
    45    10    11    1
    46    48    40   ar
    47    38    33   ar
    48    10     5   ar
    49    48    43   ar
    50    17    12    1
    51    23    18   ar
    52     3     4    1
    53    42    49    1
    54    31    32    1
