@<TRIPOS>MOLECULE
*****
 46 51 0 0 0
SMALL
GASTEIGER

@<TRIPOS>ATOM
      1 C         -63.8375  -50.7919  -24.2091 C.ar    1  UNL1        0.0702
      2 C         -63.0391  -51.7811  -23.6147 C.ar    1  UNL1        0.0191
      3 C         -63.5998  -53.0030  -23.2393 C.ar    1  UNL1        0.0356
      4 C         -64.9657  -53.2417  -23.4694 C.ar    1  UNL1        0.1318
      5 N         -65.7117  -52.2748  -24.0743 N.ar    1  UNL1       -0.2279
      6 C         -65.1867  -51.0785  -24.4488 C.ar    1  UNL1        0.1149
      7 N         -65.5825  -54.4934  -23.0973 N.pl3   1  UNL1       -0.2932
      8 C         -65.1199  -55.2020  -21.8941 C.3     1  UNL1        0.0923
      9 C         -66.2767  -55.9848  -21.2683 C.3     1  UNL1        0.0252
     10 C         -66.8914  -57.0120  -22.2534 C.3     1  UNL1        0.0472
     11 C         -66.6794  -56.6234  -23.7384 C.3     1  UNL1        0.0252
     12 C         -66.6168  -55.1057  -23.9494 C.3     1  UNL1        0.0923
     13 C         -68.3882  -57.2335  -21.9509 C.3     1  UNL1        0.2054
     14 O         -69.1303  -56.0210  -22.0967 O.3     1  UNL1       -0.4755
     15 C         -70.1713  -55.8026  -23.0144 C.ar    1  UNL1        0.1388
     16 C         -71.3967  -56.4334  -22.7784 C.ar    1  UNL1        0.0369
     17 C         -72.4676  -56.2518  -23.6541 C.ar    1  UNL1        0.0033
     18 C         -72.3254  -55.4379  -24.7796 C.ar    1  UNL1        0.0066
     19 C         -71.1026  -54.7958  -25.0428 C.ar    1  UNL1        0.0785
     20 C         -70.0315  -54.9746  -24.1466 C.ar    1  UNL1        0.0433
     21 C         -70.9379  -53.9210  -26.2300 C.2     1  UNL1        0.3381
     22 O         -71.3274  -54.3200  -27.3597 O.2     1  UNL1       -0.2451
     23 O         -70.3728  -52.6499  -26.1327 O.3     1  UNL1       -0.4771
     24 H         -70.1340  -52.2255  -25.2460 H       1  UNL1        0.2954
     25 C         -63.5945  -48.9057  -25.8909 C.2     1  UNL1        0.2839
     26 O         -64.1650  -49.5607  -26.8042 O.2     1  UNL1       -0.2665
     27 N         -63.2912  -49.5310  -24.6333 N.am    1  UNL1       -0.2766
     28 H         -62.5668  -49.0850  -24.0260 H       1  UNL1        0.1553
     29 C         -62.0808  -43.2460  -27.2036 C.ar    1  UNL1       -0.0001
     30 C         -61.8358  -43.2400  -25.8079 C.ar    1  UNL1        0.0031
     31 C         -62.0623  -44.3940  -25.0377 C.ar    1  UNL1        0.0375
     32 C         -62.5217  -45.5342  -25.6905 C.ar    1  UNL1        0.1452
     33 O         -62.7930  -46.7008  -25.1586 O.2     1  UNL1       -0.4492
     34 C         -63.1990  -47.5040  -26.1262 C.ar    1  UNL1        0.1946
     35 C         -63.1911  -46.8234  -27.3490 C.ar    1  UNL1        0.0202
     36 C         -63.5795  -47.3542  -28.6960 C.3     1  UNL1        0.0345
     37 C         -62.7492  -45.5512  -27.0417 C.ar    1  UNL1        0.0337
     38 C         -62.5338  -44.4236  -27.8356 C.ar    1  UNL1        0.0028
     39 C         -62.8614  -41.3770  -28.7232 C.ar    1  UNL1       -0.0222
     40 C         -62.5459  -40.2369  -29.4845 C.ar    1  UNL1       -0.0043
     41 C         -61.2396  -39.7454  -29.5229 C.ar    1  UNL1       -0.0003
     42 C         -60.2273  -40.3928  -28.8153 C.ar    1  UNL1       -0.0000
     43 C         -60.5177  -41.5333  -28.0651 C.ar    1  UNL1       -0.0003
     44 C         -61.8284  -42.0337  -28.0065 C.ar    1  UNL1       -0.0040
     45 C         -64.9837  -41.4573  -30.0448 C.3     1  UNL1        0.0050
     46 C         -64.2738  -41.9158  -28.7748 C.3     1  UNL1        0.0264
@<TRIPOS>BOND
     1    45    46    1
     2    46    39    1
     3    39    40   ar
     4    40    41   ar
     5    41    42   ar
     6    42    43   ar
     7    43    44   ar
     8    44    29    1
     9    29    30   ar
    10    30    31   ar
    11    31    32   ar
    12    32    33   ar
    13    33    34   ar
    14    34    25    1
    15    25    26    2
    16    25    27   am
    17    27     1    1
    18     1     2   ar
    19     2     3   ar
    20     3     4   ar
    21     4     7    1
    22     7     8    1
    23     8     9    1
    24     9    10    1
    25    10    13    1
    26    13    14    1
    27    14    15    1
    28    15    16   ar
    29    16    17   ar
    30    17    18   ar
    31    18    19   ar
    32    19    21    1
    33    21    22    2
    34    21    23    1
    35    19    20   ar
    36    10    11    1
    37    11    12    1
    38     4     5   ar
    39     5     6   ar
    40    34    35   ar
    41    35    36    1
    42    35    37   ar
    43    37    38   ar
    44    44    39   ar
    45    38    29   ar
    46    37    32   ar
    47     6     1   ar
    48    12     7    1
    49    20    15   ar
    50    27    28    1
    51    23    24    1
@<TRIPOS>MOLECULE
*****
 46 51 0 0 0
SMALL
GASTEIGER

@<TRIPOS>ATOM
      1 C         -63.7117  -50.5404  -24.3093 C.ar    1  UNL1        0.0702
      2 C         -62.9074  -51.5405  -23.7417 C.ar    1  UNL1        0.0191
      3 C         -63.4716  -52.7554  -23.3489 C.ar    1  UNL1        0.0356
      4 C         -64.8472  -52.9760  -23.5346 C.ar    1  UNL1        0.1318
      5 N         -65.5998  -51.9989  -24.1143 N.ar    1  UNL1       -0.2279
      6 C         -65.0717  -50.8091  -24.5051 C.ar    1  UNL1        0.1149
      7 N         -65.4679  -54.2199  -23.1433 N.pl3   1  UNL1       -0.2932
      8 C         -64.7957  -55.0922  -22.1681 C.3     1  UNL1        0.0923
      9 C         -65.8341  -55.8659  -21.3522 C.3     1  UNL1        0.0252
     10 C         -66.7595  -56.7295  -22.2473 C.3     1  UNL1        0.0472
     11 C         -66.8772  -56.1852  -23.6934 C.3     1  UNL1        0.0252
     12 C         -66.7287  -54.6606  -23.7653 C.3     1  UNL1        0.0923
     13 C         -68.1530  -56.8872  -21.6036 C.3     1  UNL1        0.2054
     14 O         -68.6966  -55.6196  -21.2299 O.3     1  UNL1       -0.4755
     15 C         -69.3512  -55.3329  -20.0205 C.ar    1  UNL1        0.1388
     16 C         -68.8182  -55.8678  -18.8436 C.ar    1  UNL1        0.0369
     17 C         -69.4239  -55.6153  -17.6123 C.ar    1  UNL1        0.0033
     18 C         -70.5733  -54.8256  -17.5430 C.ar    1  UNL1        0.0066
     19 C         -71.1325  -54.2796  -18.7117 C.ar    1  UNL1        0.0785
     20 C         -70.5069  -54.5291  -19.9481 C.ar    1  UNL1        0.0433
     21 C         -72.3486  -53.4315  -18.6539 C.2     1  UNL1        0.3381
     22 O         -73.4288  -53.9157  -18.2227 O.2     1  UNL1       -0.2451
     23 O         -72.3316  -52.0951  -19.0520 O.3     1  UNL1       -0.4771
     24 H         -71.4801  -51.6136  -19.3096 H       1  UNL1        0.2954
     25 C         -63.5027  -48.6535  -25.9948 C.2     1  UNL1        0.2839
     26 O         -64.1152  -49.2979  -26.8882 O.2     1  UNL1       -0.2665
     27 N         -63.1631  -49.2864  -24.7503 N.am    1  UNL1       -0.2766
     28 H         -62.4108  -48.8524  -24.1687 H       1  UNL1        0.1553
     29 C         -61.9553  -43.0129  -27.3499 C.ar    1  UNL1       -0.0001
     30 C         -61.6636  -43.0129  -25.9632 C.ar    1  UNL1        0.0031
     31 C         -61.8801  -44.1651  -25.1874 C.ar    1  UNL1        0.0375
     32 C         -62.3770  -45.2975  -25.8260 C.ar    1  UNL1        0.1452
     33 O         -62.6465  -46.4612  -25.2868 O.2     1  UNL1       -0.4492
     34 C         -63.0958  -47.2570  -26.2413 C.ar    1  UNL1        0.1946
     35 C         -63.1194  -46.5744  -27.4628 C.ar    1  UNL1        0.0202
     36 C         -63.5602  -47.0973  -28.7967 C.3     1  UNL1        0.0345
     37 C         -62.6499  -45.3089  -27.1688 C.ar    1  UNL1        0.0337
     38 C         -62.4455  -44.1831  -27.9679 C.ar    1  UNL1        0.0028
     39 C         -62.7237  -41.2243  -28.9691 C.ar    1  UNL1       -0.0222
     40 C         -62.4177  -40.0816  -29.7303 C.ar    1  UNL1       -0.0043
     41 C         -61.1441  -39.5117  -29.6789 C.ar    1  UNL1       -0.0003
     42 C         -60.1540  -40.0824  -28.8798 C.ar    1  UNL1       -0.0000
     43 C         -60.4340  -41.2242  -28.1277 C.ar    1  UNL1       -0.0003
     44 C         -61.7131  -41.8028  -28.1591 C.ar    1  UNL1       -0.0040
     45 C         -64.9441  -41.0637  -30.1099 C.3     1  UNL1        0.0050
     46 C         -64.0929  -41.8496  -29.1174 C.3     1  UNL1        0.0264
@<TRIPOS>BOND
     1    45    46    1
     2    46    39    1
     3    39    40   ar
     4    40    41   ar
     5    41    42   ar
     6    42    43   ar
     7    43    44   ar
     8    44    29    1
     9    29    30   ar
    10    30    31   ar
    11    31    32   ar
    12    32    33   ar
    13    33    34   ar
    14    34    25    1
    15    25    26    2
    16    25    27   am
    17    27     1    1
    18     1     2   ar
    19     2     3   ar
    20     3     4   ar
    21     4     7    1
    22     7     8    1
    23     8     9    1
    24     9    10    1
    25    10    13    1
    26    13    14    1
    27    14    15    1
    28    15    16   ar
    29    16    17   ar
    30    17    18   ar
    31    18    19   ar
    32    19    21    1
    33    21    22    2
    34    21    23    1
    35    19    20   ar
    36    10    11    1
    37    11    12    1
    38     4     5   ar
    39     5     6   ar
    40    34    35   ar
    41    35    36    1
    42    35    37   ar
    43    37    38   ar
    44    44    39   ar
    45    38    29   ar
    46    37    32   ar
    47     6     1   ar
    48    12     7    1
    49    20    15   ar
    50    27    28    1
    51    23    24    1
@<TRIPOS>MOLECULE
*****
 46 51 0 0 0
SMALL
GASTEIGER

@<TRIPOS>ATOM
      1 C         -64.4020  -52.0166  -24.6521 C.ar    1  UNL1        0.0702
      2 C         -63.6780  -52.5374  -23.5686 C.ar    1  UNL1        0.0191
      3 C         -64.2336  -53.5385  -22.7702 C.ar    1  UNL1        0.0356
      4 C         -65.5174  -54.0299  -23.0634 C.ar    1  UNL1        0.1318
      5 N         -66.1869  -53.5267  -24.1385 N.ar    1  UNL1       -0.2279
      6 C         -65.6652  -52.5528  -24.9298 C.ar    1  UNL1        0.1149
      7 N         -66.1259  -55.0664  -22.2626 N.pl3   1  UNL1       -0.2932
      8 C         -65.5737  -55.3774  -20.9352 C.3     1  UNL1        0.0923
      9 C         -66.6870  -55.8626  -20.0038 C.3     1  UNL1        0.0252
     10 C         -67.4092  -57.1183  -20.5563 C.3     1  UNL1        0.0472
     11 C         -67.3217  -57.2330  -22.0991 C.3     1  UNL1        0.0252
     12 C         -67.2450  -55.8662  -22.7903 C.3     1  UNL1        0.0923
     13 C         -68.8776  -57.1582  -20.0839 C.3     1  UNL1        0.2054
     14 O         -69.2948  -55.8864  -19.5834 O.3     1  UNL1       -0.4755
     15 C         -69.8866  -55.6524  -18.3311 C.ar    1  UNL1        0.1388
     16 C         -71.1281  -55.0097  -18.3023 C.ar    1  UNL1        0.0369
     17 C         -71.7652  -54.7527  -17.0879 C.ar    1  UNL1        0.0033
     18 C         -71.1666  -55.1336  -15.8854 C.ar    1  UNL1        0.0066
     19 C         -69.9165  -55.7770  -15.8859 C.ar    1  UNL1        0.0785
     20 C         -69.2872  -56.0438  -17.1168 C.ar    1  UNL1        0.0433
     21 C         -69.2710  -56.1956  -14.6171 C.2     1  UNL1        0.3381
     22 O         -69.7778  -57.1255  -13.9347 O.2     1  UNL1       -0.2451
     23 O         -68.0990  -55.5964  -14.1568 O.3     1  UNL1       -0.4771
     24 H         -67.5826  -54.9184  -14.7019 H       1  UNL1        0.2954
     25 C         -64.0625  -49.5939  -25.3307 C.2     1  UNL1        0.2839
     26 O         -64.9564  -49.1814  -24.5435 O.2     1  UNL1       -0.2665
     27 N         -63.8535  -51.0038  -25.5131 N.am    1  UNL1       -0.2766
     28 H         -63.3423  -51.3169  -26.3694 H       1  UNL1        0.1553
     29 C         -60.9499  -45.7768  -28.7640 C.ar    1  UNL1       -0.0001
     30 C         -60.4370  -45.4240  -27.4909 C.ar    1  UNL1        0.0031
     31 C         -60.8933  -46.0747  -26.3314 C.ar    1  UNL1        0.0375
     32 C         -61.8501  -47.0748  -26.4782 C.ar    1  UNL1        0.1452
     33 O         -62.4007  -47.7944  -25.5314 O.2     1  UNL1       -0.4492
     34 C         -63.2543  -48.6282  -26.0992 C.ar    1  UNL1        0.1946
     35 C         -63.2581  -48.4397  -27.4859 C.ar    1  UNL1        0.0202
     36 C         -64.0774  -49.1685  -28.5078 C.3     1  UNL1        0.0345
     37 C         -62.3418  -47.4298  -27.7071 C.ar    1  UNL1        0.0337
     38 C         -61.9098  -46.8050  -28.8778 C.ar    1  UNL1        0.0028
     39 C         -61.2252  -44.1185  -30.6576 C.ar    1  UNL1       -0.0222
     40 C         -60.7006  -43.5248  -31.8200 C.ar    1  UNL1       -0.0043
     41 C         -59.4345  -43.8780  -32.2909 C.ar    1  UNL1       -0.0003
     42 C         -58.6808  -44.8390  -31.6179 C.ar    1  UNL1       -0.0000
     43 C         -59.1895  -45.4494  -30.4706 C.ar    1  UNL1       -0.0003
     44 C         -60.4561  -45.0971  -29.9772 C.ar    1  UNL1       -0.0040
     45 C         -63.6408  -44.1490  -31.3066 C.3     1  UNL1        0.0050
     46 C         -62.6314  -43.7600  -30.2310 C.3     1  UNL1        0.0264
@<TRIPOS>BOND
     1    45    46    1
     2    46    39    1
     3    39    40   ar
     4    40    41   ar
     5    41    42   ar
     6    42    43   ar
     7    43    44   ar
     8    44    29    1
     9    29    30   ar
    10    30    31   ar
    11    31    32   ar
    12    32    33   ar
    13    33    34   ar
    14    34    25    1
    15    25    26    2
    16    25    27   am
    17    27     1    1
    18     1     2   ar
    19     2     3   ar
    20     3     4   ar
    21     4     7    1
    22     7     8    1
    23     8     9    1
    24     9    10    1
    25    10    13    1
    26    13    14    1
    27    14    15    1
    28    15    16   ar
    29    16    17   ar
    30    17    18   ar
    31    18    19   ar
    32    19    21    1
    33    21    22    2
    34    21    23    1
    35    19    20   ar
    36    10    11    1
    37    11    12    1
    38     4     5   ar
    39     5     6   ar
    40    34    35   ar
    41    35    36    1
    42    35    37   ar
    43    37    38   ar
    44    44    39   ar
    45    38    29   ar
    46    37    32   ar
    47     6     1   ar
    48    12     7    1
    49    20    15   ar
    50    27    28    1
    51    23    24    1
@<TRIPOS>MOLECULE
*****
 46 51 0 0 0
SMALL
GASTEIGER

@<TRIPOS>ATOM
      1 C         -64.3665  -51.9659  -24.7912 C.ar    1  UNL1        0.0702
      2 C         -63.7457  -52.3170  -23.5826 C.ar    1  UNL1        0.0191
      3 C         -64.2857  -53.3266  -22.7842 C.ar    1  UNL1        0.0356
      4 C         -65.4483  -53.9970  -23.2019 C.ar    1  UNL1        0.1318
      5 N         -66.0147  -53.6557  -24.3935 N.ar    1  UNL1       -0.2279
      6 C         -65.5057  -52.6769  -25.1872 C.ar    1  UNL1        0.1149
      7 N         -66.0364  -55.0481  -22.4051 N.pl3   1  UNL1       -0.2932
      8 C         -65.4724  -55.3597  -21.0828 C.3     1  UNL1        0.0923
      9 C         -66.5732  -55.8684  -20.1489 C.3     1  UNL1        0.0252
     10 C         -67.2789  -57.1312  -20.7063 C.3     1  UNL1        0.0472
     11 C         -67.1979  -57.2341  -22.2503 C.3     1  UNL1        0.0252
     12 C         -67.1459  -55.8615  -22.9325 C.3     1  UNL1        0.0923
     13 C         -68.7440  -57.1970  -20.2265 C.3     1  UNL1        0.2054
     14 O         -69.3343  -55.8962  -20.1873 O.3     1  UNL1       -0.4755
     15 C         -70.6682  -55.6113  -19.8513 C.ar    1  UNL1        0.1388
     16 C         -71.6511  -56.5298  -20.2329 C.ar    1  UNL1        0.0369
     17 C         -72.9926  -56.3014  -19.9246 C.ar    1  UNL1        0.0033
     18 C         -73.3685  -55.1488  -19.2321 C.ar    1  UNL1        0.0066
     19 C         -72.4009  -54.2068  -18.8409 C.ar    1  UNL1        0.0785
     20 C         -71.0482  -54.4521  -19.1450 C.ar    1  UNL1        0.0433
     21 C         -72.7831  -52.9811  -18.0971 C.2     1  UNL1        0.3381
     22 O         -72.8294  -53.0024  -16.8382 O.2     1  UNL1       -0.2451
     23 O         -73.0821  -51.7874  -18.7529 O.3     1  UNL1       -0.4771
     24 H         -72.9655  -51.6693  -19.7508 H       1  UNL1        0.2954
     25 C         -64.0025  -49.5393  -25.4428 C.2     1  UNL1        0.2839
     26 O         -64.8633  -49.1230  -24.6216 O.2     1  UNL1       -0.2665
     27 N         -63.8261  -50.9497  -25.6534 N.am    1  UNL1       -0.2766
     28 H         -63.3479  -51.2586  -26.5300 H       1  UNL1        0.1553
     29 C         -60.9176  -45.7354  -28.9156 C.ar    1  UNL1       -0.0001
     30 C         -60.3944  -45.3779  -27.6481 C.ar    1  UNL1        0.0031
     31 C         -60.8413  -46.0241  -26.4824 C.ar    1  UNL1        0.0375
     32 C         -61.7993  -47.0247  -26.6177 C.ar    1  UNL1        0.1452
     33 O         -62.3423  -47.7407  -25.6638 O.2     1  UNL1       -0.4492
     34 C         -63.2005  -48.5765  -26.2214 C.ar    1  UNL1        0.1946
     35 C         -63.2155  -48.3932  -27.6088 C.ar    1  UNL1        0.0202
     36 C         -64.0432  -49.1258  -28.6213 C.3     1  UNL1        0.0345
     37 C         -62.3010  -47.3843  -27.8412 C.ar    1  UNL1        0.0337
     38 C         -61.8785  -46.7639  -29.0178 C.ar    1  UNL1        0.0028
     39 C         -61.2620  -44.1962  -30.8964 C.ar    1  UNL1       -0.0222
     40 C         -60.7414  -43.6012  -32.0600 C.ar    1  UNL1       -0.0043
     41 C         -59.4236  -43.8412  -32.4540 C.ar    1  UNL1       -0.0003
     42 C         -58.6119  -44.6898  -31.7019 C.ar    1  UNL1       -0.0000
     43 C         -59.1143  -45.3004  -30.5519 C.ar    1  UNL1       -0.0003
     44 C         -60.4337  -45.0603  -30.1353 C.ar    1  UNL1       -0.0040
     45 C         -63.0674  -42.4846  -30.6344 C.3     1  UNL1        0.0050
     46 C         -62.7172  -43.9672  -30.5533 C.3     1  UNL1        0.0264
@<TRIPOS>BOND
     1    45    46    1
     2    46    39    1
     3    39    40   ar
     4    40    41   ar
     5    41    42   ar
     6    42    43   ar
     7    43    44   ar
     8    44    29    1
     9    29    30   ar
    10    30    31   ar
    11    31    32   ar
    12    32    33   ar
    13    33    34   ar
    14    34    25    1
    15    25    26    2
    16    25    27   am
    17    27     1    1
    18     1     2   ar
    19     2     3   ar
    20     3     4   ar
    21     4     7    1
    22     7     8    1
    23     8     9    1
    24     9    10    1
    25    10    13    1
    26    13    14    1
    27    14    15    1
    28    15    16   ar
    29    16    17   ar
    30    17    18   ar
    31    18    19   ar
    32    19    21    1
    33    21    22    2
    34    21    23    1
    35    19    20   ar
    36    10    11    1
    37    11    12    1
    38     4     5   ar
    39     5     6   ar
    40    34    35   ar
    41    35    36    1
    42    35    37   ar
    43    37    38   ar
    44    44    39   ar
    45    38    29   ar
    46    37    32   ar
    47     6     1   ar
    48    12     7    1
    49    20    15   ar
    50    27    28    1
    51    23    24    1
@<TRIPOS>MOLECULE
*****
 46 51 0 0 0
SMALL
GASTEIGER

@<TRIPOS>ATOM
      1 C         -64.2955  -51.8753  -24.6902 C.ar    1  UNL1        0.0702
      2 C         -63.5978  -52.3445  -23.5666 C.ar    1  UNL1        0.0191
      3 C         -64.1566  -53.3348  -22.7572 C.ar    1  UNL1        0.0356
      4 C         -65.4168  -53.8675  -23.0791 C.ar    1  UNL1        0.1318
      5 N         -66.0600  -53.4143  -24.1919 N.ar    1  UNL1       -0.2279
      6 C         -65.5345  -52.4517  -24.9946 C.ar    1  UNL1        0.1149
      7 N         -66.0277  -54.8945  -22.2680 N.pl3   1  UNL1       -0.2932
      8 C         -65.8185  -54.8908  -20.8120 C.3     1  UNL1        0.0923
      9 C         -67.0408  -55.4804  -20.1043 C.3     1  UNL1        0.0252
     10 C         -67.3449  -56.9287  -20.5663 C.3     1  UNL1        0.0472
     11 C         -66.8143  -57.2302  -21.9907 C.3     1  UNL1        0.0252
     12 C         -66.7948  -55.9879  -22.8897 C.3     1  UNL1        0.0923
     13 C         -68.8549  -57.2302  -20.4664 C.3     1  UNL1        0.2054
     14 O         -69.6351  -56.0804  -20.7999 O.3     1  UNL1       -0.4755
     15 C         -70.4427  -55.9407  -21.9407 C.ar    1  UNL1        0.1388
     16 C         -71.7026  -56.5471  -21.9305 C.ar    1  UNL1        0.0369
     17 C         -72.5496  -56.4405  -23.0342 C.ar    1  UNL1        0.0033
     18 C         -72.1454  -55.7272  -24.1643 C.ar    1  UNL1        0.0066
     19 C         -70.8818  -55.1119  -24.2025 C.ar    1  UNL1        0.0785
     20 C         -70.0393  -55.2139  -23.0791 C.ar    1  UNL1        0.0433
     21 C         -70.4409  -54.3432  -25.3927 C.2     1  UNL1        0.3381
     22 O         -71.2992  -53.8573  -26.1765 O.2     1  UNL1       -0.2451
     23 O         -69.0913  -54.1254  -25.6675 O.3     1  UNL1       -0.4771
     24 H         -68.3542  -54.3959  -25.0296 H       1  UNL1        0.2954
     25 C         -63.9655  -49.4639  -25.4123 C.2     1  UNL1        0.2839
     26 O         -64.8753  -49.0434  -24.6479 O.2     1  UNL1       -0.2665
     27 N         -63.7418  -50.8753  -25.5628 N.am    1  UNL1       -0.2766
     28 H         -63.2144  -51.2012  -26.4043 H       1  UNL1        0.1553
     29 C         -60.8453  -45.6748  -28.8697 C.ar    1  UNL1       -0.0001
     30 C         -60.2981  -45.3475  -27.6041 C.ar    1  UNL1        0.0031
     31 C         -60.7435  -46.0016  -26.4422 C.ar    1  UNL1        0.0375
     32 C         -61.7244  -46.9794  -26.5794 C.ar    1  UNL1        0.1452
     33 O         -62.2701  -47.6979  -25.6290 O.2     1  UNL1       -0.4492
     34 C         -63.1533  -48.5068  -26.1873 C.ar    1  UNL1        0.1946
     35 C         -63.1825  -48.3025  -27.5715 C.ar    1  UNL1        0.0202
     36 C         -64.0388  -49.0021  -28.5835 C.3     1  UNL1        0.0345
     37 C         -62.2496  -47.3099  -27.8012 C.ar    1  UNL1        0.0337
     38 C         -61.8292  -46.6810  -28.9741 C.ar    1  UNL1        0.0028
     39 C         -61.1452  -44.0237  -30.7658 C.ar    1  UNL1       -0.0222
     40 C         -60.6309  -43.4263  -31.9309 C.ar    1  UNL1       -0.0043
     41 C         -59.3622  -43.7660  -32.4048 C.ar    1  UNL1       -0.0003
     42 C         -58.5955  -44.7169  -31.7322 C.ar    1  UNL1       -0.0000
     43 C         -59.0938  -45.3308  -30.5821 C.ar    1  UNL1       -0.0003
     44 C         -60.3629  -44.9920  -30.0857 C.ar    1  UNL1       -0.0040
     45 C         -63.5369  -43.8819  -31.4850 C.3     1  UNL1        0.0050
     46 C         -62.5541  -43.6804  -30.3357 C.3     1  UNL1        0.0264
@<TRIPOS>BOND
     1    45    46    1
     2    46    39    1
     3    39    40   ar
     4    40    41   ar
     5    41    42   ar
     6    42    43   ar
     7    43    44   ar
     8    44    29    1
     9    29    30   ar
    10    30    31   ar
    11    31    32   ar
    12    32    33   ar
    13    33    34   ar
    14    34    25    1
    15    25    26    2
    16    25    27   am
    17    27     1    1
    18     1     2   ar
    19     2     3   ar
    20     3     4   ar
    21     4     7    1
    22     7     8    1
    23     8     9    1
    24     9    10    1
    25    10    13    1
    26    13    14    1
    27    14    15    1
    28    15    16   ar
    29    16    17   ar
    30    17    18   ar
    31    18    19   ar
    32    19    21    1
    33    21    22    2
    34    21    23    1
    35    19    20   ar
    36    10    11    1
    37    11    12    1
    38     4     5   ar
    39     5     6   ar
    40    34    35   ar
    41    35    36    1
    42    35    37   ar
    43    37    38   ar
    44    44    39   ar
    45    38    29   ar
    46    37    32   ar
    47     6     1   ar
    48    12     7    1
    49    20    15   ar
    50    27    28    1
    51    23    24    1
@<TRIPOS>MOLECULE
*****
 46 51 0 0 0
SMALL
GASTEIGER

@<TRIPOS>ATOM
      1 C         -64.7879  -52.8306  -24.6227 C.ar    1  UNL1        0.0702
      2 C         -65.6752  -53.3502  -23.6678 C.ar    1  UNL1        0.0191
      3 C         -66.6983  -54.2155  -24.0587 C.ar    1  UNL1        0.0356
      4 C         -66.8289  -54.5722  -25.4120 C.ar    1  UNL1        0.1318
      5 N         -65.9362  -54.0757  -26.3142 N.ar    1  UNL1       -0.2279
      6 C         -64.9321  -53.2328  -25.9560 C.ar    1  UNL1        0.1149
      7 N         -67.8728  -55.4660  -25.8558 N.pl3   1  UNL1       -0.2932
      8 C         -68.6297  -56.2476  -24.8659 C.3     1  UNL1        0.0923
      9 C         -70.0560  -56.4883  -25.3662 C.3     1  UNL1        0.0252
     10 C         -70.0835  -57.2340  -26.7252 C.3     1  UNL1        0.0472
     11 C         -68.7916  -57.0223  -27.5543 C.3     1  UNL1        0.0252
     12 C         -68.1372  -55.6604  -27.2921 C.3     1  UNL1        0.0923
     13 C         -71.3321  -56.8394  -27.5415 C.3     1  UNL1        0.2054
     14 O         -71.3541  -55.4354  -27.8070 O.3     1  UNL1       -0.4755
     15 C         -72.4653  -54.7039  -28.2580 C.ar    1  UNL1        0.1388
     16 C         -72.9544  -54.9775  -29.5391 C.ar    1  UNL1        0.0369
     17 C         -74.0570  -54.2843  -30.0399 C.ar    1  UNL1        0.0033
     18 C         -74.6834  -53.3060  -29.2654 C.ar    1  UNL1        0.0066
     19 C         -74.2088  -53.0080  -27.9759 C.ar    1  UNL1        0.0785
     20 C         -73.1038  -53.7217  -27.4741 C.ar    1  UNL1        0.0433
     21 C         -74.8686  -51.9771  -27.1372 C.2     1  UNL1        0.3381
     22 O         -75.3507  -52.2962  -26.0177 O.2     1  UNL1       -0.2451
     23 O         -74.9606  -50.6469  -27.5454 O.3     1  UNL1       -0.4771
     24 H         -74.5070  -50.3001  -28.3805 H       1  UNL1        0.2954
     25 C         -63.5646  -50.6086  -24.7299 C.2     1  UNL1        0.2839
     26 O         -64.2557  -50.2022  -25.7026 O.2     1  UNL1       -0.2665
     27 N         -63.7057  -51.9576  -24.2556 N.am    1  UNL1       -0.2766
     28 H         -62.9330  -52.3568  -23.6759 H       1  UNL1        0.1553
     29 C         -59.5618  -46.7433  -22.4752 C.ar    1  UNL1       -0.0001
     30 C         -59.6915  -47.6223  -21.3713 C.ar    1  UNL1        0.0031
     31 C         -60.5605  -48.7255  -21.4345 C.ar    1  UNL1        0.0375
     32 C         -61.2743  -48.9269  -22.6122 C.ar    1  UNL1        0.1452
     33 O         -62.1286  -49.8865  -22.8707 O.2     1  UNL1       -0.4492
     34 C         -62.5775  -49.7105  -24.1010 C.ar    1  UNL1        0.1946
     35 C         -61.9842  -48.5780  -24.6702 C.ar    1  UNL1        0.0202
     36 C         -62.2104  -48.0159  -26.0413 C.3     1  UNL1        0.0345
     37 C         -61.1451  -48.0882  -23.6882 C.ar    1  UNL1        0.0337
     38 C         -60.2908  -46.9849  -23.6591 C.ar    1  UNL1        0.0028
     39 C         -59.1034  -44.2606  -22.2812 C.ar    1  UNL1       -0.0222
     40 C         -58.1669  -43.2118  -22.2394 C.ar    1  UNL1       -0.0043
     41 C         -56.7974  -43.4770  -22.3008 C.ar    1  UNL1       -0.0003
     42 C         -56.3438  -44.7902  -22.4201 C.ar    1  UNL1       -0.0000
     43 C         -57.2577  -45.8435  -22.4769 C.ar    1  UNL1       -0.0003
     44 C         -58.6378  -45.5948  -22.4047 C.ar    1  UNL1       -0.0040
     45 C         -60.9052  -42.9616  -23.4317 C.3     1  UNL1        0.0050
     46 C         -60.5766  -43.9179  -22.2894 C.3     1  UNL1        0.0264
@<TRIPOS>BOND
     1    45    46    1
     2    46    39    1
     3    39    40   ar
     4    40    41   ar
     5    41    42   ar
     6    42    43   ar
     7    43    44   ar
     8    44    29    1
     9    29    30   ar
    10    30    31   ar
    11    31    32   ar
    12    32    33   ar
    13    33    34   ar
    14    34    25    1
    15    25    26    2
    16    25    27   am
    17    27     1    1
    18     1     2   ar
    19     2     3   ar
    20     3     4   ar
    21     4     7    1
    22     7     8    1
    23     8     9    1
    24     9    10    1
    25    10    13    1
    26    13    14    1
    27    14    15    1
    28    15    16   ar
    29    16    17   ar
    30    17    18   ar
    31    18    19   ar
    32    19    21    1
    33    21    22    2
    34    21    23    1
    35    19    20   ar
    36    10    11    1
    37    11    12    1
    38     4     5   ar
    39     5     6   ar
    40    34    35   ar
    41    35    36    1
    42    35    37   ar
    43    37    38   ar
    44    44    39   ar
    45    38    29   ar
    46    37    32   ar
    47     6     1   ar
    48    12     7    1
    49    20    15   ar
    50    27    28    1
    51    23    24    1
@<TRIPOS>MOLECULE
*****
 46 51 0 0 0
SMALL
GASTEIGER

@<TRIPOS>ATOM
      1 C         -62.6038  -41.1783  -20.9890 C.ar    1  UNL1        0.0702
      2 C         -63.4232  -41.1086  -19.8519 C.ar    1  UNL1        0.0191
      3 C         -63.7967  -39.8684  -19.3316 C.ar    1  UNL1        0.0356
      4 C         -63.3569  -38.6898  -19.9585 C.ar    1  UNL1        0.1318
      5 N         -62.5857  -38.7863  -21.0780 N.ar    1  UNL1       -0.2279
      6 C         -62.2108  -39.9827  -21.6024 C.ar    1  UNL1        0.1149
      7 N         -63.7232  -37.3879  -19.4520 N.pl3   1  UNL1       -0.2932
      8 C         -62.7991  -36.2560  -19.6211 C.3     1  UNL1        0.0923
      9 C         -63.5863  -34.9495  -19.7459 C.3     1  UNL1        0.0252
     10 C         -64.4860  -34.6857  -18.5112 C.3     1  UNL1        0.0472
     11 C         -64.8829  -35.9856  -17.7668 C.3     1  UNL1        0.0252
     12 C         -64.9770  -37.1973  -18.7021 C.3     1  UNL1        0.0923
     13 C         -65.7374  -33.8748  -18.9080 C.3     1  UNL1        0.2054
     14 O         -66.7555  -33.9734  -17.9100 O.3     1  UNL1       -0.4755
     15 C         -68.1394  -33.9088  -18.1420 C.ar    1  UNL1        0.1388
     16 C         -68.6477  -34.5696  -19.2645 C.ar    1  UNL1        0.0369
     17 C         -70.0144  -34.5424  -19.5446 C.ar    1  UNL1        0.0033
     18 C         -70.8904  -33.8508  -18.7057 C.ar    1  UNL1        0.0066
     19 C         -70.4048  -33.1739  -17.5731 C.ar    1  UNL1        0.0785
     20 C         -69.0260  -33.2178  -17.2913 C.ar    1  UNL1        0.0433
     21 C         -71.3238  -32.4415  -16.6672 C.2     1  UNL1        0.3381
     22 O         -72.4698  -32.1107  -17.0728 O.2     1  UNL1       -0.2451
     23 O         -70.9620  -32.1165  -15.3602 O.3     1  UNL1       -0.4771
     24 H         -70.1024  -32.4395  -14.9359 H       1  UNL1        0.2954
     25 C         -60.9264  -43.0393  -21.3988 C.2     1  UNL1        0.2839
     26 O         -59.9685  -42.3655  -20.9328 O.2     1  UNL1       -0.2665
     27 N         -62.2194  -42.4364  -21.5699 N.am    1  UNL1       -0.2766
     28 H         -62.8929  -42.8975  -22.2228 H       1  UNL1        0.1553
     29 C         -60.3979  -48.8128  -22.9591 C.ar    1  UNL1       -0.0001
     30 C         -59.1329  -48.3351  -23.3832 C.ar    1  UNL1        0.0031
     31 C         -58.7890  -46.9817  -23.2208 C.ar    1  UNL1        0.0375
     32 C         -59.7225  -46.1384  -22.6254 C.ar    1  UNL1        0.1452
     33 O         -59.5978  -44.8559  -22.3862 O.2     1  UNL1       -0.4492
     34 C         -60.7113  -44.4400  -21.8089 C.ar    1  UNL1        0.1946
     35 C         -61.6049  -45.5076  -21.6664 C.ar    1  UNL1        0.0202
     36 C         -62.9793  -45.4790  -21.0688 C.3     1  UNL1        0.0345
     37 C         -60.9429  -46.5955  -22.2017 C.ar    1  UNL1        0.0337
     38 C         -61.3155  -47.9327  -22.3469 C.ar    1  UNL1        0.0028
     39 C         -61.8871  -50.6549  -23.8536 C.ar    1  UNL1       -0.0222
     40 C         -62.1699  -52.0294  -23.9521 C.ar    1  UNL1       -0.0043
     41 C         -61.3324  -52.9734  -23.3548 C.ar    1  UNL1       -0.0003
     42 C         -60.2101  -52.5591  -22.6382 C.ar    1  UNL1       -0.0000
     43 C         -59.9201  -51.1993  -22.5175 C.ar    1  UNL1       -0.0003
     44 C         -60.7457  -50.2376  -23.1221 C.ar    1  UNL1       -0.0040
     45 C         -64.2502  -50.2928  -24.5899 C.3     1  UNL1        0.0050
     46 C         -62.8653  -49.6682  -24.4514 C.3     1  UNL1        0.0264
@<TRIPOS>BOND
     1    45    46    1
     2    46    39    1
     3    39    40   ar
     4    40    41   ar
     5    41    42   ar
     6    42    43   ar
     7    43    44   ar
     8    44    29    1
     9    29    30   ar
    10    30    31   ar
    11    31    32   ar
    12    32    33   ar
    13    33    34   ar
    14    34    25    1
    15    25    26    2
    16    25    27   am
    17    27     1    1
    18     1     2   ar
    19     2     3   ar
    20     3     4   ar
    21     4     7    1
    22     7     8    1
    23     8     9    1
    24     9    10    1
    25    10    13    1
    26    13    14    1
    27    14    15    1
    28    15    16   ar
    29    16    17   ar
    30    17    18   ar
    31    18    19   ar
    32    19    21    1
    33    21    22    2
    34    21    23    1
    35    19    20   ar
    36    10    11    1
    37    11    12    1
    38     4     5   ar
    39     5     6   ar
    40    34    35   ar
    41    35    36    1
    42    35    37   ar
    43    37    38   ar
    44    44    39   ar
    45    38    29   ar
    46    37    32   ar
    47     6     1   ar
    48    12     7    1
    49    20    15   ar
    50    27    28    1
    51    23    24    1
@<TRIPOS>MOLECULE
*****
 46 51 0 0 0
SMALL
GASTEIGER

@<TRIPOS>ATOM
      1 C         -64.1899  -51.4081  -24.3061 C.ar    1  UNL1        0.0702
      2 C         -62.9904  -51.7805  -23.6801 C.ar    1  UNL1        0.0191
      3 C         -61.9607  -50.8505  -23.5279 C.ar    1  UNL1        0.0356
      4 C         -62.1352  -49.5364  -23.9951 C.ar    1  UNL1        0.1318
      5 N         -63.3207  -49.1938  -24.5735 N.ar    1  UNL1       -0.2279
      6 C         -64.3369  -50.0823  -24.7313 C.ar    1  UNL1        0.1149
      7 N         -61.0946  -48.5449  -23.8546 N.pl3   1  UNL1       -0.2932
      8 C         -60.7789  -47.6577  -24.9846 C.3     1  UNL1        0.0923
      9 C         -60.2883  -46.3032  -24.4678 C.3     1  UNL1        0.0252
     10 C         -59.0339  -46.4379  -23.5668 C.3     1  UNL1        0.0472
     11 C         -58.9256  -47.8274  -22.8894 C.3     1  UNL1        0.0252
     12 C         -60.2953  -48.4621  -22.6197 C.3     1  UNL1        0.0923
     13 C         -58.9899  -45.3086  -22.5162 C.3     1  UNL1        0.2054
     14 O         -59.1815  -44.0293  -23.1235 O.3     1  UNL1       -0.4755
     15 C         -60.2539  -43.1566  -22.8755 C.ar    1  UNL1        0.1388
     16 C         -61.1325  -42.8816  -23.9280 C.ar    1  UNL1        0.0369
     17 C         -62.2171  -42.0242  -23.7402 C.ar    1  UNL1        0.0033
     18 C         -62.4354  -41.4284  -22.4965 C.ar    1  UNL1        0.0066
     19 C         -61.5644  -41.6842  -21.4229 C.ar    1  UNL1        0.0785
     20 C         -60.4802  -42.5609  -21.6181 C.ar    1  UNL1        0.0433
     21 C         -61.7874  -41.0655  -20.0928 C.2     1  UNL1        0.3381
     22 O         -61.4841  -41.7016  -19.0484 O.2     1  UNL1       -0.2451
     23 O         -62.3142  -39.7813  -19.9592 O.3     1  UNL1       -0.4771
     24 H         -62.4829  -39.1758  -20.7519 H       1  UNL1        0.2954
     25 C         -65.5692  -53.3965  -23.5388 C.2     1  UNL1        0.2839
     26 O         -64.7152  -53.7378  -22.6769 O.2     1  UNL1       -0.2665
     27 N         -65.2832  -52.3299  -24.4581 N.am    1  UNL1       -0.2766
     28 H         -65.8521  -52.2708  -25.3330 H       1  UNL1        0.1553
     29 C         -70.9072  -56.1431  -23.6322 C.ar    1  UNL1       -0.0001
     30 C         -70.3061  -56.7531  -24.7612 C.ar    1  UNL1        0.0031
     31 C         -69.0004  -56.4066  -25.1502 C.ar    1  UNL1        0.0375
     32 C         -68.3225  -55.4595  -24.3883 C.ar    1  UNL1        0.1452
     33 O         -67.1096  -55.0026  -24.5819 O.2     1  UNL1       -0.4492
     34 C         -66.8513  -54.1203  -23.6327 C.ar    1  UNL1        0.1946
     35 C         -67.9537  -53.9981  -22.7792 C.ar    1  UNL1        0.0202
     36 C         -68.0898  -53.1104  -21.5791 C.3     1  UNL1        0.0345
     37 C         -68.8926  -54.8742  -23.2882 C.ar    1  UNL1        0.0337
     38 C         -70.1860  -55.1961  -22.8742 C.ar    1  UNL1        0.0028
     39 C         -73.3506  -56.5645  -24.1460 C.ar    1  UNL1       -0.0222
     40 C         -74.6320  -56.9152  -23.6837 C.ar    1  UNL1       -0.0043
     41 C         -74.8419  -57.2344  -22.3407 C.ar    1  UNL1       -0.0003
     42 C         -73.7802  -57.1934  -21.4376 C.ar    1  UNL1       -0.0000
     43 C         -72.5041  -56.8345  -21.8742 C.ar    1  UNL1       -0.0003
     44 C         -72.2737  -56.5220  -23.2237 C.ar    1  UNL1       -0.0040
     45 C         -73.9448  -54.8583  -25.8761 C.3     1  UNL1        0.0050
     46 C         -73.1887  -56.1525  -25.5923 C.3     1  UNL1        0.0264
@<TRIPOS>BOND
     1    45    46    1
     2    46    39    1
     3    39    40   ar
     4    40    41   ar
     5    41    42   ar
     6    42    43   ar
     7    43    44   ar
     8    44    29    1
     9    29    30   ar
    10    30    31   ar
    11    31    32   ar
    12    32    33   ar
    13    33    34   ar
    14    34    25    1
    15    25    26    2
    16    25    27   am
    17    27     1    1
    18     1     2   ar
    19     2     3   ar
    20     3     4   ar
    21     4     7    1
    22     7     8    1
    23     8     9    1
    24     9    10    1
    25    10    13    1
    26    13    14    1
    27    14    15    1
    28    15    16   ar
    29    16    17   ar
    30    17    18   ar
    31    18    19   ar
    32    19    21    1
    33    21    22    2
    34    21    23    1
    35    19    20   ar
    36    10    11    1
    37    11    12    1
    38     4     5   ar
    39     5     6   ar
    40    34    35   ar
    41    35    36    1
    42    35    37   ar
    43    37    38   ar
    44    44    39   ar
    45    38    29   ar
    46    37    32   ar
    47     6     1   ar
    48    12     7    1
    49    20    15   ar
    50    27    28    1
    51    23    24    1
@<TRIPOS>MOLECULE
*****
 46 51 0 0 0
SMALL
GASTEIGER

@<TRIPOS>ATOM
      1 C         -62.1558  -45.1800  -22.6962 C.ar    1  UNL1        0.0702
      2 C         -62.4967  -45.8490  -23.8818 C.ar    1  UNL1        0.0191
      3 C         -62.1150  -47.1781  -24.0717 C.ar    1  UNL1        0.0356
      4 C         -61.3968  -47.8464  -23.0651 C.ar    1  UNL1        0.1318
      5 N         -61.1037  -47.1820  -21.9118 N.ar    1  UNL1       -0.2279
      6 C         -61.4660  -45.8885  -21.7051 C.ar    1  UNL1        0.1149
      7 N         -60.9855  -49.2217  -23.2229 N.pl3   1  UNL1       -0.2932
      8 C         -60.3002  -49.9067  -22.1161 C.3     1  UNL1        0.0923
      9 C         -60.6265  -51.4019  -22.1415 C.3     1  UNL1        0.0252
     10 C         -60.2162  -52.0698  -23.4791 C.3     1  UNL1        0.0472
     11 C         -60.1720  -51.0703  -24.6624 C.3     1  UNL1        0.0252
     12 C         -61.1767  -49.9224  -24.5047 C.3     1  UNL1        0.0923
     13 C         -61.1393  -53.2635  -23.8014 C.3     1  UNL1        0.2054
     14 O         -62.0832  -53.4857  -22.7517 O.3     1  UNL1       -0.4755
     15 C         -63.4533  -53.7442  -22.9226 C.ar    1  UNL1        0.1388
     16 C         -64.1656  -52.9400  -23.8177 C.ar    1  UNL1        0.0369
     17 C         -65.5284  -53.1512  -24.0303 C.ar    1  UNL1        0.0033
     18 C         -66.1970  -54.1692  -23.3476 C.ar    1  UNL1        0.0066
     19 C         -65.5055  -54.9891  -22.4386 C.ar    1  UNL1        0.0785
     20 C         -64.1278  -54.7768  -22.2402 C.ar    1  UNL1        0.0433
     21 C         -66.1997  -56.0805  -21.7115 C.2     1  UNL1        0.3381
     22 O         -66.6547  -57.0667  -22.3501 O.2     1  UNL1       -0.2451
     23 O         -66.3539  -56.0577  -20.3258 O.3     1  UNL1       -0.4771
     24 H         -65.9254  -55.3523  -19.7409 H       1  UNL1        0.2954
     25 C         -63.3953  -43.4110  -21.3623 C.2     1  UNL1        0.2839
     26 O         -64.0413  -44.2692  -20.7029 O.2     1  UNL1       -0.2665
     27 N         -62.5534  -43.8196  -22.4526 N.am    1  UNL1       -0.2766
     28 H         -62.2816  -43.0988  -23.1590 H       1  UNL1        0.1553
     29 C         -64.2890  -37.6559  -19.9036 C.ar    1  UNL1       -0.0001
     30 C         -62.9908  -37.5604  -20.4638 C.ar    1  UNL1        0.0031
     31 C         -62.3402  -38.7041  -20.9587 C.ar    1  UNL1        0.0375
     32 C         -63.0142  -39.9198  -20.8883 C.ar    1  UNL1        0.1452
     33 O         -62.5860  -41.0915  -21.2899 O.2     1  UNL1       -0.4492
     34 C         -63.5342  -41.9777  -21.0414 C.ar    1  UNL1        0.1946
     35 C         -64.6344  -41.3487  -20.4477 C.ar    1  UNL1        0.0202
     36 C         -65.9195  -41.9783  -20.0017 C.3     1  UNL1        0.0345
     37 C         -64.2744  -40.0180  -20.3590 C.ar    1  UNL1        0.0337
     38 C         -64.9488  -38.9026  -19.8602 C.ar    1  UNL1        0.0028
     39 C         -64.3152  -35.5117  -18.5571 C.ar    1  UNL1       -0.0222
     40 C         -65.0307  -34.3920  -18.0954 C.ar    1  UNL1       -0.0043
     41 C         -66.3606  -34.1923  -18.4710 C.ar    1  UNL1       -0.0003
     42 C         -66.9996  -35.1142  -19.2994 C.ar    1  UNL1       -0.0000
     43 C         -66.3109  -36.2386  -19.7568 C.ar    1  UNL1       -0.0003
     44 C         -64.9696  -36.4481  -19.3979 C.ar    1  UNL1       -0.0040
     45 C         -61.8962  -35.0272  -18.9711 C.3     1  UNL1        0.0050
     46 C         -62.9023  -35.7249  -18.0610 C.3     1  UNL1        0.0264
@<TRIPOS>BOND
     1    45    46    1
     2    46    39    1
     3    39    40   ar
     4    40    41   ar
     5    41    42   ar
     6    42    43   ar
     7    43    44   ar
     8    44    29    1
     9    29    30   ar
    10    30    31   ar
    11    31    32   ar
    12    32    33   ar
    13    33    34   ar
    14    34    25    1
    15    25    26    2
    16    25    27   am
    17    27     1    1
    18     1     2   ar
    19     2     3   ar
    20     3     4   ar
    21     4     7    1
    22     7     8    1
    23     8     9    1
    24     9    10    1
    25    10    13    1
    26    13    14    1
    27    14    15    1
    28    15    16   ar
    29    16    17   ar
    30    17    18   ar
    31    18    19   ar
    32    19    21    1
    33    21    22    2
    34    21    23    1
    35    19    20   ar
    36    10    11    1
    37    11    12    1
    38     4     5   ar
    39     5     6   ar
    40    34    35   ar
    41    35    36    1
    42    35    37   ar
    43    37    38   ar
    44    44    39   ar
    45    38    29   ar
    46    37    32   ar
    47     6     1   ar
    48    12     7    1
    49    20    15   ar
    50    27    28    1
    51    23    24    1
