@<TRIPOS>MOLECULE
*****
 45 50 0 0 0
SMALL
GASTEIGER

@<TRIPOS>ATOM
      1 C          60.6788   89.7807    9.4497 C.ar    1  UNL1        0.0702
      2 C          59.8061   90.3647   10.3808 C.ar    1  UNL1        0.0191
      3 C          59.6354   89.7856   11.6394 C.ar    1  UNL1        0.0356
      4 C          60.3215   88.6026   11.9571 C.ar    1  UNL1        0.1318
      5 N          61.1565   88.0505   11.0335 N.ar    1  UNL1       -0.2279
      6 C          61.3383   88.5970    9.8024 C.ar    1  UNL1        0.1149
      7 N          60.1878   87.9881   13.2527 N.pl3   1  UNL1       -0.2932
      8 C          60.0272   88.7929   14.4720 C.3     1  UNL1        0.0923
      9 C          61.0068   88.3314   15.5647 C.3     1  UNL1        0.0252
     10 C          61.3154   86.8107   15.5156 C.3     1  UNL1        0.0472
     11 C          60.2026   86.0309   14.7879 C.3     1  UNL1        0.0252
     12 C          60.0737   86.5246   13.3389 C.3     1  UNL1        0.0923
     13 C          61.5485   86.2544   16.9337 C.3     1  UNL1        0.2054
     14 O          62.1965   84.9817   16.8911 O.3     1  UNL1       -0.4754
     15 C          63.1283   84.5702   15.9238 C.ar    1  UNL1        0.1410
     16 C          64.3599   85.2228   15.7262 C.ar    1  UNL1        0.0665
     17 C          65.2466   84.7691   14.7471 C.ar    1  UNL1        0.1434
     18 F          66.4301   85.4041   14.5610 F       1  UNL1       -0.2041
     19 C          64.9191   83.6628   13.9599 C.ar    1  UNL1        0.0363
     20 C          63.6965   82.9949   14.1463 C.ar    1  UNL1        0.0807
     21 C          62.8096   83.4583   15.1341 C.ar    1  UNL1        0.0435
     22 C          63.3438   81.8213   13.3169 C.2     1  UNL1        0.3382
     23 O          63.8365   81.6822   12.1645 O.2     1  UNL1       -0.2451
     24 O          62.4631   80.8577   13.8020 O.3     1  UNL1       -0.4771
     25 H          62.2150   80.0507   13.2422 H       1  UNL1        0.2954
     26 C          59.9751   90.0903    7.0286 C.2     1  UNL1        0.2839
     27 O          58.9990   89.3034    7.1521 O.2     1  UNL1       -0.2665
     28 N          60.8635   90.3296    8.1344 N.am    1  UNL1       -0.2766
     29 H          61.6653   90.9837    8.0024 H       1  UNL1        0.1553
     30 C          57.7472   91.3808    5.0646 C.3     1  UNL1        0.0345
     31 C          59.2329   91.3112    4.8802 C.ar    1  UNL1        0.0202
     32 C          60.1926   90.7350    5.7220 C.ar    1  UNL1        0.1946
     33 O          61.3896   90.8232    5.1690 O.2     1  UNL1       -0.4492
     34 C          61.2595   91.4485    4.0244 C.ar    1  UNL1        0.1452
     35 C          62.2625   91.7663    3.1152 C.ar    1  UNL1        0.0375
     36 C          61.8965   92.4456    1.9398 C.ar    1  UNL1        0.0031
     37 C          60.5411   92.7945    1.6915 C.ar    1  UNL1        0.0002
     38 C          59.5510   92.4500    2.6430 C.ar    1  UNL1        0.0028
     39 C          59.9511   91.7782    3.7981 C.ar    1  UNL1        0.0337
     40 C          60.1661   93.5121    0.4467 C.ar    1  UNL1        0.0000
     41 C          61.0493   93.5546   -0.6489 C.ar    1  UNL1        0.0000
     42 C          60.6939   94.2320   -1.8194 C.ar    1  UNL1        0.0000
     43 C          59.4561   94.8724   -1.9104 C.ar    1  UNL1        0.0000
     44 C          58.5711   94.8373   -0.8307 C.ar    1  UNL1        0.0000
     45 C          58.9216   94.1623    0.3426 C.ar    1  UNL1        0.0000
@<TRIPOS>BOND
     1    30    31    1
     2    31    32   ar
     3    32    26    1
     4    26    27    2
     5    26    28   am
     6    28     1    1
     7     1     2   ar
     8     2     3   ar
     9     3     4   ar
    10     4     7    1
    11     7     8    1
    12     8     9    1
    13     9    10    1
    14    10    13    1
    15    13    14    1
    16    14    15    1
    17    15    16   ar
    18    16    17   ar
    19    17    18    1
    20    17    19   ar
    21    19    20   ar
    22    20    22    1
    23    22    23    2
    24    22    24    1
    25    20    21   ar
    26    10    11    1
    27    11    12    1
    28     4     5   ar
    29     5     6   ar
    30    32    33   ar
    31    33    34   ar
    32    34    35   ar
    33    35    36   ar
    34    36    37   ar
    35    37    40    1
    36    40    41   ar
    37    41    42   ar
    38    42    43   ar
    39    43    44   ar
    40    44    45   ar
    41    37    38   ar
    42    38    39   ar
    43    39    31   ar
    44     6     1   ar
    45    39    34   ar
    46    12     7    1
    47    45    40   ar
    48    21    15   ar
    49    28    29    1
    50    24    25    1
@<TRIPOS>MOLECULE
*****
 45 50 0 0 0
SMALL
GASTEIGER

@<TRIPOS>ATOM
      1 C          60.9443   89.7828    9.3994 C.ar    1  UNL1        0.0702
      2 C          61.3163   90.5107   10.5401 C.ar    1  UNL1        0.0191
      3 C          61.1796   89.9434   11.8082 C.ar    1  UNL1        0.0356
      4 C          60.6437   88.6519   11.9359 C.ar    1  UNL1        0.1318
      5 N          60.2823   87.9689   10.8142 N.ar    1  UNL1       -0.2279
      6 C          60.4068   88.5012    9.5699 C.ar    1  UNL1        0.1149
      7 N          60.5079   88.0251   13.2253 N.pl3   1  UNL1       -0.2932
      8 C          60.6549   88.7909   14.4712 C.3     1  UNL1        0.0923
      9 C          61.6120   88.0775   15.4416 C.3     1  UNL1        0.0252
     10 C          61.5669   86.5298   15.3279 C.3     1  UNL1        0.0472
     11 C          60.2405   86.0466   14.7091 C.3     1  UNL1        0.0252
     12 C          60.0793   86.6202   13.2931 C.3     1  UNL1        0.0923
     13 C          61.8120   85.8738   16.7006 C.3     1  UNL1        0.2054
     14 O          62.6828   84.7467   16.5883 O.3     1  UNL1       -0.4754
     15 C          62.9607   84.0424   15.4049 C.ar    1  UNL1        0.1410
     16 C          63.9451   84.4542   14.4867 C.ar    1  UNL1        0.0665
     17 C          64.1762   83.7140   13.3250 C.ar    1  UNL1        0.1434
     18 F          65.1245   84.1178   12.4440 F       1  UNL1       -0.2041
     19 C          63.4348   82.5584   13.0683 C.ar    1  UNL1        0.0363
     20 C          62.4516   82.1285   13.9761 C.ar    1  UNL1        0.0807
     21 C          62.2253   82.8796   15.1430 C.ar    1  UNL1        0.0435
     22 C          61.6635   80.9044   13.7111 C.2     1  UNL1        0.3382
     23 O          60.4124   80.9037   13.8684 O.2     1  UNL1       -0.2451
     24 O          62.2971   79.7400   13.2846 O.3     1  UNL1       -0.4771
     25 H          61.7669   78.8966   13.1006 H       1  UNL1        0.2954
     26 C          60.0577   90.1523    7.0477 C.2     1  UNL1        0.2839
     27 O          59.0609   89.4076    7.2451 O.2     1  UNL1       -0.2665
     28 N          61.0442   90.3390    8.0780 N.am    1  UNL1       -0.2766
     29 H          61.8608   90.9588    7.8855 H       1  UNL1        0.1553
     30 C          57.6989   91.3279    5.1662 C.3     1  UNL1        0.0345
     31 C          59.1783   91.3294    4.9269 C.ar    1  UNL1        0.0202
     32 C          60.1953   90.8027    5.7331 C.ar    1  UNL1        0.1946
     33 O          61.3653   90.9468    5.1359 O.2     1  UNL1       -0.4492
     34 C          61.1628   91.5615    3.9961 C.ar    1  UNL1        0.1452
     35 C          62.1149   91.9244    3.0498 C.ar    1  UNL1        0.0375
     36 C          61.6733   92.5817    1.8880 C.ar    1  UNL1        0.0031
     37 C          60.2943   92.8641    1.6897 C.ar    1  UNL1        0.0002
     38 C          59.3580   92.4752    2.6778 C.ar    1  UNL1        0.0028
     39 C          59.8325   91.8271    3.8181 C.ar    1  UNL1        0.0337
     40 C          59.8392   93.5589    0.4588 C.ar    1  UNL1        0.0000
     41 C          58.4795   93.5511    0.0934 C.ar    1  UNL1        0.0000
     42 C          58.0542   94.2053   -1.0669 C.ar    1  UNL1        0.0000
     43 C          58.9778   94.8738   -1.8735 C.ar    1  UNL1        0.0000
     44 C          60.3293   94.8890   -1.5217 C.ar    1  UNL1        0.0000
     45 C          60.7605   94.2357   -0.3631 C.ar    1  UNL1        0.0000
@<TRIPOS>BOND
     1    30    31    1
     2    31    32   ar
     3    32    26    1
     4    26    27    2
     5    26    28   am
     6    28     1    1
     7     1     2   ar
     8     2     3   ar
     9     3     4   ar
    10     4     7    1
    11     7     8    1
    12     8     9    1
    13     9    10    1
    14    10    13    1
    15    13    14    1
    16    14    15    1
    17    15    16   ar
    18    16    17   ar
    19    17    18    1
    20    17    19   ar
    21    19    20   ar
    22    20    22    1
    23    22    23    2
    24    22    24    1
    25    20    21   ar
    26    10    11    1
    27    11    12    1
    28     4     5   ar
    29     5     6   ar
    30    32    33   ar
    31    33    34   ar
    32    34    35   ar
    33    35    36   ar
    34    36    37   ar
    35    37    40    1
    36    40    41   ar
    37    41    42   ar
    38    42    43   ar
    39    43    44   ar
    40    44    45   ar
    41    37    38   ar
    42    38    39   ar
    43    39    31   ar
    44     6     1   ar
    45    39    34   ar
    46    12     7    1
    47    45    40   ar
    48    21    15   ar
    49    28    29    1
    50    24    25    1
@<TRIPOS>MOLECULE
*****
 45 50 0 0 0
SMALL
GASTEIGER

@<TRIPOS>ATOM
      1 C          60.9861   89.4494    9.1858 C.ar    1  UNL1        0.0702
      2 C          59.9701   89.7873   10.0930 C.ar    1  UNL1        0.0191
      3 C          59.9218   89.1791   11.3485 C.ar    1  UNL1        0.0356
      4 C          60.8794   88.2098   11.6867 C.ar    1  UNL1        0.1318
      5 N          61.8507   87.8930   10.7858 N.ar    1  UNL1       -0.2279
      6 C          61.9173   88.4724    9.5582 C.ar    1  UNL1        0.1149
      7 N          60.8750   87.5767   12.9803 N.pl3   1  UNL1       -0.2932
      8 C          61.5724   88.1716   14.1292 C.3     1  UNL1        0.0923
      9 C          62.4553   87.1270   14.8334 C.3     1  UNL1        0.0252
     10 C          61.8800   85.6865   14.7678 C.3     1  UNL1        0.0472
     11 C          60.3581   85.6959   14.5239 C.3     1  UNL1        0.0252
     12 C          60.0426   86.3822   13.1861 C.3     1  UNL1        0.0923
     13 C          62.2341   84.8981   16.0437 C.3     1  UNL1        0.2054
     14 O          62.8913   83.6694   15.7281 O.3     1  UNL1       -0.4754
     15 C          62.6980   82.9152   14.5588 C.ar    1  UNL1        0.1410
     16 C          61.8107   81.8241   14.4941 C.ar    1  UNL1        0.0665
     17 C          61.6609   81.1097   13.3033 C.ar    1  UNL1        0.1434
     18 F          60.8061   80.0586   13.2490 F       1  UNL1       -0.2041
     19 C          62.3875   81.4751   12.1678 C.ar    1  UNL1        0.0363
     20 C          63.2740   82.5650   12.2116 C.ar    1  UNL1        0.0807
     21 C          63.4189   83.2787   13.4145 C.ar    1  UNL1        0.0435
     22 C          64.0458   82.9585   11.0120 C.2     1  UNL1        0.3382
     23 O          65.3066   82.9605   11.0358 O.2     1  UNL1       -0.2451
     24 O          63.3861   83.3309    9.8435 O.3     1  UNL1       -0.4771
     25 H          63.9050   83.6021    9.0168 H       1  UNL1        0.2954
     26 C          59.9423   90.1195    6.9689 C.2     1  UNL1        0.2839
     27 O          58.8320   89.6069    7.2716 O.2     1  UNL1       -0.2665
     28 N          61.0571   90.0321    7.8740 N.am    1  UNL1       -0.2766
     29 H          61.9653   90.4630    7.5957 H       1  UNL1        0.1553
     30 C          57.5662   91.2444    5.0781 C.3     1  UNL1        0.0345
     31 C          59.0469   91.2900    4.8511 C.ar    1  UNL1        0.0202
     32 C          60.0719   90.7853    5.6612 C.ar    1  UNL1        0.1946
     33 O          61.2422   90.9679    5.0750 O.2     1  UNL1       -0.4492
     34 C          61.0314   91.5868    3.9389 C.ar    1  UNL1        0.1452
     35 C          61.9804   91.9850    3.0038 C.ar    1  UNL1        0.0375
     36 C          61.5296   92.6398    1.8441 C.ar    1  UNL1        0.0031
     37 C          60.1448   92.8846    1.6368 C.ar    1  UNL1        0.0002
     38 C          59.2120   92.4605    2.6137 C.ar    1  UNL1        0.0028
     39 C          59.6956   91.8160    3.7522 C.ar    1  UNL1        0.0337
     40 C          59.6801   93.5772    0.4082 C.ar    1  UNL1        0.0000
     41 C          60.5967   94.2400   -0.4301 C.ar    1  UNL1        0.0000
     42 C          60.1559   94.8922   -1.5858 C.ar    1  UNL1        0.0000
     43 C          58.7994   94.8899   -1.9181 C.ar    1  UNL1        0.0000
     44 C          57.8803   94.2358   -1.0948 C.ar    1  UNL1        0.0000
     45 C          58.3152   93.5828    0.0626 C.ar    1  UNL1        0.0000
@<TRIPOS>BOND
     1    30    31    1
     2    31    32   ar
     3    32    26    1
     4    26    27    2
     5    26    28   am
     6    28     1    1
     7     1     2   ar
     8     2     3   ar
     9     3     4   ar
    10     4     7    1
    11     7     8    1
    12     8     9    1
    13     9    10    1
    14    10    13    1
    15    13    14    1
    16    14    15    1
    17    15    16   ar
    18    16    17   ar
    19    17    18    1
    20    17    19   ar
    21    19    20   ar
    22    20    22    1
    23    22    23    2
    24    22    24    1
    25    20    21   ar
    26    10    11    1
    27    11    12    1
    28     4     5   ar
    29     5     6   ar
    30    32    33   ar
    31    33    34   ar
    32    34    35   ar
    33    35    36   ar
    34    36    37   ar
    35    37    40    1
    36    40    41   ar
    37    41    42   ar
    38    42    43   ar
    39    43    44   ar
    40    44    45   ar
    41    37    38   ar
    42    38    39   ar
    43    39    31   ar
    44     6     1   ar
    45    39    34   ar
    46    12     7    1
    47    45    40   ar
    48    21    15   ar
    49    28    29    1
    50    24    25    1
@<TRIPOS>MOLECULE
*****
 45 50 0 0 0
SMALL
GASTEIGER

@<TRIPOS>ATOM
      1 C          61.9111   87.0969   10.5200 C.ar    1  UNL1        0.0702
      2 C          60.9279   87.4276    9.5748 C.ar    1  UNL1        0.0191
      3 C          60.0471   86.4499    9.1093 C.ar    1  UNL1        0.0356
      4 C          60.1683   85.1302    9.5727 C.ar    1  UNL1        0.1318
      5 N          61.1360   84.8324   10.4839 N.ar    1  UNL1       -0.2279
      6 C          62.0040   85.7680   10.9511 C.ar    1  UNL1        0.1149
      7 N          59.2644   84.0991    9.1322 N.pl3   1  UNL1       -0.2932
      8 C          57.9114   83.9728    9.6922 C.3     1  UNL1        0.0923
      9 C          57.6275   82.5207   10.1133 C.3     1  UNL1        0.0252
     10 C          58.3432   81.4683    9.2242 C.3     1  UNL1        0.0472
     11 C          58.7046   82.0473    7.8422 C.3     1  UNL1        0.0252
     12 C          59.6566   83.2422    8.0035 C.3     1  UNL1        0.0923
     13 C          57.4860   80.1951    9.0871 C.3     1  UNL1        0.2054
     14 O          57.7305   79.2873   10.1631 O.3     1  UNL1       -0.4754
     15 C          58.6083   79.5094   11.2371 C.ar    1  UNL1        0.1410
     16 C          58.2043   79.4180   12.5826 C.ar    1  UNL1        0.0665
     17 C          59.1220   79.6513   13.6093 C.ar    1  UNL1        0.1434
     18 F          58.7252   79.5636   14.9030 F       1  UNL1       -0.2041
     19 C          60.4474   79.9732   13.3083 C.ar    1  UNL1        0.0363
     20 C          60.8706   80.0636   11.9711 C.ar    1  UNL1        0.0807
     21 C          59.9403   79.8274   10.9435 C.ar    1  UNL1        0.0435
     22 C          62.2736   80.4028   11.6450 C.2     1  UNL1        0.3382
     23 O          62.6570   80.4497   10.4446 O.2     1  UNL1       -0.2451
     24 O          63.1851   80.6740   12.6623 O.3     1  UNL1       -0.4771
     25 H          64.1478   80.9071   12.4498 H       1  UNL1        0.2954
     26 C          62.5643   89.0277   12.0362 C.2     1  UNL1        0.2839
     27 O          61.4065   89.1092   12.5263 O.2     1  UNL1       -0.2665
     28 N          62.8540   88.0667   11.0056 N.am    1  UNL1       -0.2766
     29 H          63.8207   88.0237   10.6160 H       1  UNL1        0.1553
     30 C          64.4340   88.6913   14.6586 C.3     1  UNL1        0.0345
     31 C          64.4220   89.8007   13.6511 C.ar    1  UNL1        0.0202
     32 C          63.5988   89.9537   12.5283 C.ar    1  UNL1        0.1946
     33 O          63.8575   91.1044   11.9321 O.2     1  UNL1       -0.4492
     34 C          64.8224   91.6937   12.5953 C.ar    1  UNL1        0.1452
     35 C          65.4149   92.9201   12.3153 C.ar    1  UNL1        0.0375
     36 C          66.4420   93.3662   13.1657 C.ar    1  UNL1        0.0031
     37 C          66.8585   92.5847   14.2777 C.ar    1  UNL1        0.0002
     38 C          66.2267   91.3427   14.5278 C.ar    1  UNL1        0.0028
     39 C          65.2133   90.9315   13.6620 C.ar    1  UNL1        0.0337
     40 C          67.9443   93.0657   15.1692 C.ar    1  UNL1        0.0000
     41 C          68.1185   94.4425   15.4066 C.ar    1  UNL1        0.0000
     42 C          69.1426   94.8925   16.2457 C.ar    1  UNL1        0.0000
     43 C          70.0017   93.9766   16.8567 C.ar    1  UNL1        0.0000
     44 C          69.8391   92.6082   16.6294 C.ar    1  UNL1        0.0000
     45 C          68.8175   92.1526   15.7905 C.ar    1  UNL1        0.0000
@<TRIPOS>BOND
     1    30    31    1
     2    31    32   ar
     3    32    26    1
     4    26    27    2
     5    26    28   am
     6    28     1    1
     7     1     2   ar
     8     2     3   ar
     9     3     4   ar
    10     4     7    1
    11     7     8    1
    12     8     9    1
    13     9    10    1
    14    10    13    1
    15    13    14    1
    16    14    15    1
    17    15    16   ar
    18    16    17   ar
    19    17    18    1
    20    17    19   ar
    21    19    20   ar
    22    20    22    1
    23    22    23    2
    24    22    24    1
    25    20    21   ar
    26    10    11    1
    27    11    12    1
    28     4     5   ar
    29     5     6   ar
    30    32    33   ar
    31    33    34   ar
    32    34    35   ar
    33    35    36   ar
    34    36    37   ar
    35    37    40    1
    36    40    41   ar
    37    41    42   ar
    38    42    43   ar
    39    43    44   ar
    40    44    45   ar
    41    37    38   ar
    42    38    39   ar
    43    39    31   ar
    44     6     1   ar
    45    39    34   ar
    46    12     7    1
    47    45    40   ar
    48    21    15   ar
    49    28    29    1
    50    24    25    1
@<TRIPOS>MOLECULE
*****
 45 50 0 0 0
SMALL
GASTEIGER

@<TRIPOS>ATOM
      1 C          59.9730   88.1409    8.2616 C.ar    1  UNL1        0.0702
      2 C          59.2357   86.9598    8.4374 C.ar    1  UNL1        0.0191
      3 C          59.2497   86.3023    9.6686 C.ar    1  UNL1        0.0356
      4 C          60.0259   86.8155   10.7199 C.ar    1  UNL1        0.1318
      5 N          60.7395   87.9588   10.5221 N.ar    1  UNL1       -0.2279
      6 C          60.7404   88.6156    9.3322 C.ar    1  UNL1        0.1149
      7 N          60.0483   86.1773   12.0107 N.pl3   1  UNL1       -0.2932
      8 C          59.1086   86.5608   13.0738 C.3     1  UNL1        0.0923
      9 C          59.8520   86.8074   14.3978 C.3     1  UNL1        0.0252
     10 C          61.1086   85.9132   14.5768 C.3     1  UNL1        0.0472
     11 C          61.0277   84.6436   13.7066 C.3     1  UNL1        0.0252
     12 C          60.9393   85.0268   12.2215 C.3     1  UNL1        0.0923
     13 C          61.3193   85.5577   16.0613 C.3     1  UNL1        0.2054
     14 O          62.1696   86.5078   16.7061 O.3     1  UNL1       -0.4754
     15 C          62.6470   87.6987   16.1342 C.ar    1  UNL1        0.1410
     16 C          63.0134   88.8197   16.9031 C.ar    1  UNL1        0.0665
     17 C          63.4804   89.9783   16.2783 C.ar    1  UNL1        0.1434
     18 F          63.8293   91.0548   17.0252 F       1  UNL1       -0.2041
     19 C          63.5905   90.0314   14.8870 C.ar    1  UNL1        0.0363
     20 C          63.2348   88.9204   14.1030 C.ar    1  UNL1        0.0807
     21 C          62.7654   87.7580   14.7400 C.ar    1  UNL1        0.0435
     22 C          63.3503   88.9693   12.6285 C.2     1  UNL1        0.3382
     23 O          63.5892   90.0599   12.0423 O.2     1  UNL1       -0.2451
     24 O          63.1964   87.8095   11.8733 O.3     1  UNL1       -0.4771
     25 H          63.2734   87.8321   10.8634 H       1  UNL1        0.2954
     26 C          59.8258   90.2544    6.8599 C.2     1  UNL1        0.2839
     27 O          59.5496   90.9674    7.8612 O.2     1  UNL1       -0.2665
     28 N          60.0070   88.8345    7.0033 N.am    1  UNL1       -0.2766
     29 H          60.2320   88.2685    6.1565 H       1  UNL1        0.1553
     30 C          57.4150   91.3010    4.9682 C.3     1  UNL1        0.0345
     31 C          58.8931   91.3791    4.7334 C.ar    1  UNL1        0.0202
     32 C          59.9336   90.9080    5.5442 C.ar    1  UNL1        0.1946
     33 O          61.0964   91.1116    4.9503 O.2     1  UNL1       -0.4492
     34 C          60.8659   91.7123    3.8083 C.ar    1  UNL1        0.1452
     35 C          61.8008   92.1221    2.8642 C.ar    1  UNL1        0.0375
     36 C          61.3293   92.7528    1.6993 C.ar    1  UNL1        0.0031
     37 C          59.9381   92.9625    1.4961 C.ar    1  UNL1        0.0002
     38 C          59.0202   92.5276    2.4822 C.ar    1  UNL1        0.0028
     39 C          59.5242   91.9077    3.6256 C.ar    1  UNL1        0.0337
     40 C          59.4515   93.6297    0.2620 C.ar    1  UNL1        0.0000
     41 C          58.0744   93.6870   -0.0255 C.ar    1  UNL1        0.0000
     42 C          57.6192   94.3151   -1.1889 C.ar    1  UNL1        0.0000
     43 C          58.5301   94.8925   -2.0762 C.ar    1  UNL1        0.0000
     44 C          59.8986   94.8425   -1.8023 C.ar    1  UNL1        0.0000
     45 C          60.3596   94.2150   -0.6409 C.ar    1  UNL1        0.0000
@<TRIPOS>BOND
     1    30    31    1
     2    31    32   ar
     3    32    26    1
     4    26    27    2
     5    26    28   am
     6    28     1    1
     7     1     2   ar
     8     2     3   ar
     9     3     4   ar
    10     4     7    1
    11     7     8    1
    12     8     9    1
    13     9    10    1
    14    10    13    1
    15    13    14    1
    16    14    15    1
    17    15    16   ar
    18    16    17   ar
    19    17    18    1
    20    17    19   ar
    21    19    20   ar
    22    20    22    1
    23    22    23    2
    24    22    24    1
    25    20    21   ar
    26    10    11    1
    27    11    12    1
    28     4     5   ar
    29     5     6   ar
    30    32    33   ar
    31    33    34   ar
    32    34    35   ar
    33    35    36   ar
    34    36    37   ar
    35    37    40    1
    36    40    41   ar
    37    41    42   ar
    38    42    43   ar
    39    43    44   ar
    40    44    45   ar
    41    37    38   ar
    42    38    39   ar
    43    39    31   ar
    44     6     1   ar
    45    39    34   ar
    46    12     7    1
    47    45    40   ar
    48    21    15   ar
    49    28    29    1
    50    24    25    1
