@<TRIPOS>MOLECULE
*****
 62 66 0 0 0
SMALL
GASTEIGER

@<TRIPOS>ATOM
      1 C         -19.3007   -8.5099   -7.8763 C.ar    1  UNL1        0.0548
      2 C         -19.0121   -9.7685   -8.4301 C.ar    1  UNL1        0.0077
      3 C         -19.2915  -10.0320   -9.7728 C.ar    1  UNL1        0.0390
      4 C         -19.8664   -9.0525  -10.5882 C.ar    1  UNL1        0.1598
      5 C         -20.0996   -7.7633  -10.0580 C.ar    1  UNL1        0.0993
      6 C         -19.8341   -7.5093   -8.7060 C.ar    1  UNL1        0.0235
      7 N         -19.9845   -8.4999   -5.4271 N.am    1  UNL1       -0.3040
      8 C         -19.0109   -8.2172   -6.4522 C.2     1  UNL1        0.2458
      9 O         -17.9039   -7.6962   -6.1481 O.2     1  UNL1       -0.2701
     10 H         -20.9595   -8.7100   -5.7398 H       1  UNL1        0.1496
     11 C         -19.2024   -7.1107   -3.5327 C.3     1  UNL1        0.0196
     12 C         -19.7074   -8.4976   -3.9766 C.3     1  UNL1        0.0572
     13 C         -20.9751   -8.8837   -3.1896 C.3     1  UNL1        0.0196
     14 C         -18.6085   -9.5375   -3.6737 C.3     1  UNL1        0.0196
     15 N         -20.5652   -6.6929  -10.8815 N.pl3   1  UNL1       -0.2120
     16 H         -20.4849   -6.7960  -11.9177 H       1  UNL1        0.1738
     17 S         -21.7887   -5.6236  -10.2861 S.O2    1  UNL1        0.0745
     18 O         -21.5720   -4.2427  -10.8360 O.2     1  UNL1       -0.1499
     19 O         -21.7165   -5.5489   -8.7866 O.2     1  UNL1       -0.1499
     20 C         -23.3771   -6.2207  -10.7914 C.ar    1  UNL1        0.1358
     21 C         -24.0484   -5.5437  -11.8130 C.ar    1  UNL1        0.0207
     22 C         -25.3063   -5.9606  -12.2329 C.ar    1  UNL1       -0.0026
     23 C         -25.9498   -7.0389  -11.6102 C.ar    1  UNL1       -0.0154
     24 C         -25.2712   -7.7669  -10.5981 C.ar    1  UNL1        0.0834
     25 C         -23.9650   -7.3682  -10.2134 C.ar    1  UNL1        0.0824
     26 CL        -23.0251   -8.3682   -9.0950 Cl      1  UNL1       -0.0806
     27 C         -25.9171   -8.9358   -9.9482 C.2     1  UNL1        0.3386
     28 O         -25.5491  -10.1063  -10.2363 O.2     1  UNL1       -0.2451
     29 O         -26.9221   -8.7518   -9.0033 O.3     1  UNL1       -0.4771
     30 H         -27.3645   -9.5434   -8.5524 H       1  UNL1        0.2954
     31 C         -27.3266   -7.4329  -12.0960 C.3     1  UNL1        0.0226
     32 C         -27.3748   -8.1350  -13.4496 C.3     1  UNL1        0.0047
     33 C         -27.8131   -6.6889  -13.3341 C.3     1  UNL1        0.0047
     34 O         -20.1809   -9.3983  -11.9117 O.3     1  UNL1       -0.4513
     35 C         -21.4619   -9.7151  -12.3901 C.ar    1  UNL1        0.1580
     36 C         -22.1523   -8.7373  -13.1156 C.ar    1  UNL1        0.0677
     37 C         -23.4536   -8.9673  -13.5668 C.ar    1  UNL1        0.1398
     38 F         -24.1166   -7.9733  -14.2105 F       1  UNL1       -0.2044
     39 C         -24.0701  -10.2072  -13.3357 C.ar    1  UNL1        0.0175
     40 C         -23.3610  -11.2104  -12.6569 C.ar    1  UNL1        0.0130
     41 C         -22.0610  -10.9798  -12.1942 C.ar    1  UNL1        0.0919
     42 CL        -21.2001  -12.3246  -11.4545 Cl      1  UNL1       -0.0791
     43 C         -25.5017  -10.4436  -13.7355 C.3     1  UNL1        0.1382
     44 C         -25.5920  -11.6808  -14.5694 C.2     1  UNL1        0.3234
     45 O         -25.9189  -12.7771  -14.0386 O.2     1  UNL1       -0.2497
     46 O         -25.2868  -11.6043  -15.9327 O.3     1  UNL1       -0.4215
     47 C         -24.0849  -12.1094  -16.5086 C.3     1  UNL1        0.3207
     48 O         -23.3752  -12.8006  -15.4998 O.3     1  UNL1       -0.3070
     49 C         -22.3192  -13.5515  -16.0747 C.3     1  UNL1        0.2456
     50 C         -21.3360  -12.6655  -16.9020 C.3     1  UNL1        0.1781
     51 O         -21.3526  -13.0879  -18.2423 O.3     1  UNL1       -0.3790
     52 C         -21.7095  -11.1685  -16.8177 C.3     1  UNL1        0.1733
     53 O         -21.3484  -10.6872  -15.5471 O.3     1  UNL1       -0.3793
     54 C         -23.2263  -10.9382  -17.0535 C.3     1  UNL1        0.2106
     55 O         -23.4967  -10.7065  -18.4142 O.3     1  UNL1       -0.3766
     56 H         -20.5359  -12.7234  -18.6740 H       1  UNL1        0.2106
     57 H         -21.2819   -9.6991  -15.6191 H       1  UNL1        0.2105
     58 H         -23.2430  -11.5216  -18.9188 H       1  UNL1        0.2107
     59 C         -21.5913  -14.2756  -14.9758 C.2     1  UNL1        0.3439
     60 O         -20.5213  -13.7990  -14.5128 O.2     1  UNL1       -0.2475
     61 O         -22.1040  -15.4506  -14.4321 O.3     1  UNL1       -0.4785
     62 H         -22.9686  -15.8550  -14.7700 H       1  UNL1        0.2951
@<TRIPOS>BOND
     1    11    12    1
     2    12    13    1
     3    12    14    1
     4    12     7    1
     5     7     8   am
     6     8     9    2
     7     8     1    1
     8     1     2   ar
     9     2     3   ar
    10     3     4   ar
    11     4    34    1
    12    34    35    1
    13    35    36   ar
    14    36    37   ar
    15    37    38    1
    16    37    39   ar
    17    39    43    1
    18    43    44    1
    19    44    45    2
    20    44    46    1
    21    46    47    1
    22    47    48    1
    23    48    49    1
    24    49    59    1
    25    59    60    2
    26    59    61    1
    27    49    50    1
    28    50    51    1
    29    50    52    1
    30    52    53    1
    31    52    54    1
    32    54    55    1
    33    39    40   ar
    34    40    41   ar
    35    41    42    1
    36     4     5   ar
    37     5    15    1
    38    15    17    1
    39    17    18    2
    40    17    19    2
    41    17    20    1
    42    20    21   ar
    43    21    22   ar
    44    22    23   ar
    45    23    31    1
    46    31    32    1
    47    32    33    1
    48    23    24   ar
    49    24    27    1
    50    27    28    2
    51    27    29    1
    52    24    25   ar
    53    25    26    1
    54     5     6   ar
    55     6     1   ar
    56    41    35   ar
    57    25    20   ar
    58    54    47    1
    59    33    31    1
    60     7    10    1
    61    61    62    1
    62    51    56    1
    63    53    57    1
    64    55    58    1
    65    15    16    1
    66    29    30    1
@<TRIPOS>MOLECULE
*****
 62 66 0 0 0
SMALL
GASTEIGER

@<TRIPOS>ATOM
      1 C         -26.9095   -6.2089  -13.8659 C.ar    1  UNL1        0.0548
      2 C         -27.4657   -6.9039  -12.7789 C.ar    1  UNL1        0.0077
      3 C         -26.6817   -7.7758  -12.0203 C.ar    1  UNL1        0.0390
      4 C         -25.3332   -7.9766  -12.3301 C.ar    1  UNL1        0.1598
      5 C         -24.7483   -7.2328  -13.3799 C.ar    1  UNL1        0.0993
      6 C         -25.5431   -6.3728  -14.1491 C.ar    1  UNL1        0.0235
      7 N         -29.1525   -5.4782  -14.8156 N.am    1  UNL1       -0.3040
      8 C         -27.7306   -5.2816  -14.6808 C.2     1  UNL1        0.2458
      9 O         -27.1643   -4.3244  -15.2745 O.2     1  UNL1       -0.2701
     10 H         -29.5385   -6.3986  -14.5051 H       1  UNL1        0.1496
     11 C         -29.9264   -3.1320  -14.6524 C.3     1  UNL1        0.0196
     12 C         -30.0926   -4.4847  -15.3722 C.3     1  UNL1        0.0572
     13 C         -29.8596   -4.3183  -16.8866 C.3     1  UNL1        0.0196
     14 C         -31.5366   -4.9813  -15.1516 C.3     1  UNL1        0.0196
     15 N         -23.3482   -7.3058  -13.6536 N.pl3   1  UNL1       -0.2120
     16 H         -22.6843   -7.2513  -12.8492 H       1  UNL1        0.1738
     17 S         -22.7952   -8.1117  -15.0817 S.O2    1  UNL1        0.0745
     18 O         -21.3085   -7.9465  -15.2183 O.2     1  UNL1       -0.1499
     19 O         -23.4483   -7.5091  -16.2940 O.2     1  UNL1       -0.1499
     20 C         -23.1925   -9.8333  -14.9671 C.ar    1  UNL1        0.1358
     21 C         -24.4490  -10.1950  -14.4741 C.ar    1  UNL1        0.0207
     22 C         -24.8024  -11.5333  -14.3461 C.ar    1  UNL1       -0.0026
     23 C         -23.8908  -12.5497  -14.6634 C.ar    1  UNL1       -0.0154
     24 C         -22.6238  -12.2074  -15.2040 C.ar    1  UNL1        0.0834
     25 C         -22.2918  -10.8395  -15.3828 C.ar    1  UNL1        0.0824
     26 CL        -20.8023  -10.3909  -16.2279 Cl      1  UNL1       -0.0806
     27 C         -21.6541  -13.2669  -15.5822 C.2     1  UNL1        0.3386
     28 O         -21.5717  -13.6546  -16.7787 O.2     1  UNL1       -0.2451
     29 O         -20.8155  -13.8303  -14.6252 O.3     1  UNL1       -0.4771
     30 H         -20.1485  -14.5501  -14.8758 H       1  UNL1        0.2954
     31 C         -24.3246  -13.9871  -14.4833 C.3     1  UNL1        0.0226
     32 C         -25.1770  -14.5669  -15.6080 C.3     1  UNL1        0.0047
     33 C         -25.8226  -14.1912  -14.2895 C.3     1  UNL1        0.0047
     34 O         -24.6147   -8.9123  -11.5696 O.3     1  UNL1       -0.4513
     35 C         -23.4061   -8.6645  -10.9003 C.ar    1  UNL1        0.1580
     36 C         -23.3039   -7.4926  -10.1418 C.ar    1  UNL1        0.0677
     37 C         -22.1092   -7.1571   -9.5014 C.ar    1  UNL1        0.1398
     38 F         -22.0260   -5.9814   -8.8285 F       1  UNL1       -0.2044
     39 C         -21.0049   -8.0208   -9.5741 C.ar    1  UNL1        0.0175
     40 C         -21.1202   -9.2240  -10.2876 C.ar    1  UNL1        0.0130
     41 C         -22.3123   -9.5581  -10.9392 C.ar    1  UNL1        0.0919
     42 CL        -22.4121  -11.1346  -11.7148 Cl      1  UNL1       -0.0791
     43 C         -19.6830   -7.6360   -8.9661 C.3     1  UNL1        0.1382
     44 C         -19.5564   -8.2514   -7.6098 C.2     1  UNL1        0.3234
     45 O         -19.2175   -9.4607   -7.4948 O.2     1  UNL1       -0.2497
     46 O         -19.8415   -7.4737   -6.4822 O.3     1  UNL1       -0.4215
     47 C         -19.1317   -7.5688   -5.2499 C.3     1  UNL1        0.3207
     48 O         -17.7980   -7.9360   -5.5422 O.3     1  UNL1       -0.3070
     49 C         -16.9857   -7.7770   -4.3915 C.3     1  UNL1        0.2456
     50 C         -17.5069   -8.6003   -3.1724 C.3     1  UNL1        0.1781
     51 O         -17.8392   -7.7185   -2.1297 O.3     1  UNL1       -0.3790
     52 C         -18.7362   -9.4579   -3.5477 C.3     1  UNL1        0.1733
     53 O         -18.3025  -10.5493   -4.3205 O.3     1  UNL1       -0.3793
     54 C         -19.7898   -8.6398   -4.3414 C.3     1  UNL1        0.2106
     55 O         -20.7325   -8.0556   -3.4762 O.3     1  UNL1       -0.3766
     56 H         -17.8851   -8.2558   -1.2958 H       1  UNL1        0.2106
     57 H         -19.0133  -11.2409   -4.2709 H       1  UNL1        0.2105
     58 H         -20.2521   -7.4194   -2.8865 H       1  UNL1        0.2107
     59 C         -15.5768   -8.1709   -4.7402 C.2     1  UNL1        0.3439
     60 O         -15.2305   -9.3803   -4.6774 O.2     1  UNL1       -0.2475
     61 O         -14.6546   -7.2207   -5.1710 O.3     1  UNL1       -0.4785
     62 H         -14.9020   -6.2418   -5.2469 H       1  UNL1        0.2951
@<TRIPOS>BOND
     1    11    12    1
     2    12    13    1
     3    12    14    1
     4    12     7    1
     5     7     8   am
     6     8     9    2
     7     8     1    1
     8     1     2   ar
     9     2     3   ar
    10     3     4   ar
    11     4    34    1
    12    34    35    1
    13    35    36   ar
    14    36    37   ar
    15    37    38    1
    16    37    39   ar
    17    39    43    1
    18    43    44    1
    19    44    45    2
    20    44    46    1
    21    46    47    1
    22    47    48    1
    23    48    49    1
    24    49    59    1
    25    59    60    2
    26    59    61    1
    27    49    50    1
    28    50    51    1
    29    50    52    1
    30    52    53    1
    31    52    54    1
    32    54    55    1
    33    39    40   ar
    34    40    41   ar
    35    41    42    1
    36     4     5   ar
    37     5    15    1
    38    15    17    1
    39    17    18    2
    40    17    19    2
    41    17    20    1
    42    20    21   ar
    43    21    22   ar
    44    22    23   ar
    45    23    31    1
    46    31    32    1
    47    32    33    1
    48    23    24   ar
    49    24    27    1
    50    27    28    2
    51    27    29    1
    52    24    25   ar
    53    25    26    1
    54     5     6   ar
    55     6     1   ar
    56    41    35   ar
    57    25    20   ar
    58    54    47    1
    59    33    31    1
    60     7    10    1
    61    61    62    1
    62    51    56    1
    63    53    57    1
    64    55    58    1
    65    15    16    1
    66    29    30    1
@<TRIPOS>MOLECULE
*****
 62 66 0 0 0
SMALL
GASTEIGER

@<TRIPOS>ATOM
      1 C         -20.0397   -7.7608   -8.2656 C.ar    1  UNL1        0.0548
      2 C         -20.6380   -6.5200   -8.5420 C.ar    1  UNL1        0.0077
      3 C         -21.1062   -6.2301   -9.8253 C.ar    1  UNL1        0.0390
      4 C         -20.9847   -7.1648  -10.8579 C.ar    1  UNL1        0.1598
      5 C         -20.4445   -8.4397  -10.5745 C.ar    1  UNL1        0.0993
      6 C         -19.9600   -8.7193   -9.2899 C.ar    1  UNL1        0.0235
      7 N         -18.1560   -7.8558   -6.5600 N.am    1  UNL1       -0.3040
      8 C         -19.5367   -8.0812   -6.9083 C.2     1  UNL1        0.2458
      9 O         -20.3309   -8.5748   -6.0627 O.2     1  UNL1       -0.2701
     10 H         -17.4905   -7.6684   -7.3440 H       1  UNL1        0.1496
     11 C         -18.6316   -7.2748   -4.2006 C.3     1  UNL1        0.0196
     12 C         -17.6165   -7.8870   -5.1857 C.3     1  UNL1        0.0572
     13 C         -17.2786   -9.3342   -4.7769 C.3     1  UNL1        0.0196
     14 C         -16.3214   -7.0500   -5.1355 C.3     1  UNL1        0.0196
     15 N         -20.4159   -9.4722  -11.5612 N.pl3   1  UNL1       -0.2120
     16 H         -19.8024   -9.3405  -12.3961 H       1  UNL1        0.1738
     17 S         -20.7998  -11.0984  -11.1110 S.O2    1  UNL1        0.0745
     18 O         -21.7012  -11.0966   -9.9094 O.2     1  UNL1       -0.1499
     19 O         -19.5422  -11.8402  -10.7537 O.2     1  UNL1       -0.1499
     20 C         -21.6162  -11.8977  -12.4635 C.ar    1  UNL1        0.1358
     21 C         -20.9300  -12.8973  -13.1583 C.ar    1  UNL1        0.0207
     22 C         -21.5192  -13.5418  -14.2398 C.ar    1  UNL1       -0.0026
     23 C         -22.7949  -13.1718  -14.6875 C.ar    1  UNL1       -0.0154
     24 C         -23.5273  -12.1877  -13.9733 C.ar    1  UNL1        0.0834
     25 C         -22.9398  -11.5736  -12.8371 C.ar    1  UNL1        0.0824
     26 CL        -23.8988  -10.4873  -11.8201 Cl      1  UNL1       -0.0806
     27 C         -24.8953  -11.8041  -14.4059 C.2     1  UNL1        0.3386
     28 O         -25.0662  -10.8163  -15.1698 O.2     1  UNL1       -0.2451
     29 O         -26.0001  -12.5396  -13.9873 O.3     1  UNL1       -0.4771
     30 H         -26.9358  -12.2872  -14.2814 H       1  UNL1        0.2954
     31 C         -23.3755  -13.8941  -15.8825 C.3     1  UNL1        0.0226
     32 C         -24.3924  -14.9863  -15.5656 C.3     1  UNL1        0.0047
     33 C         -22.9905  -15.3643  -15.9994 C.3     1  UNL1        0.0047
     34 O         -21.4174   -6.7907  -12.1397 O.3     1  UNL1       -0.4513
     35 C         -22.7460   -6.8140  -12.5918 C.ar    1  UNL1        0.1580
     36 C         -23.6580   -5.9356  -11.9954 C.ar    1  UNL1        0.0677
     37 C         -25.0068   -5.9512  -12.3567 C.ar    1  UNL1        0.1398
     38 F         -25.8746   -5.1309  -11.7117 F       1  UNL1       -0.2044
     39 C         -25.4564   -6.8222  -13.3616 C.ar    1  UNL1        0.0175
     40 C         -24.5351   -7.6659  -14.0014 C.ar    1  UNL1        0.0130
     41 C         -23.1850   -7.6604  -13.6346 C.ar    1  UNL1        0.0919
     42 CL        -22.0763   -8.6641  -14.5620 Cl      1  UNL1       -0.0791
     43 C         -26.9192   -6.9170  -13.7030 C.3     1  UNL1        0.1382
     44 C         -27.2787   -5.8388  -14.6739 C.2     1  UNL1        0.3234
     45 O         -26.3949   -5.0376  -15.0828 O.2     1  UNL1       -0.2497
     46 O         -28.6070   -5.7224  -15.0978 O.3     1  UNL1       -0.4215
     47 C         -29.3503   -4.5069  -15.0611 C.3     1  UNL1        0.3207
     48 O         -30.7193   -4.8367  -14.9344 O.3     1  UNL1       -0.3070
     49 C         -31.4722   -3.6782  -14.6178 C.3     1  UNL1        0.2456
     50 C         -31.2963   -2.5427  -15.6740 C.3     1  UNL1        0.1781
     51 O         -30.7265   -1.4190  -15.0513 O.3     1  UNL1       -0.3790
     52 C         -30.4089   -2.9957  -16.8552 C.3     1  UNL1        0.1733
     53 O         -31.1532   -3.8713  -17.6650 O.3     1  UNL1       -0.3793
     54 C         -29.1168   -3.7041  -16.3675 C.3     1  UNL1        0.2106
     55 O         -28.0642   -2.7842  -16.2116 O.3     1  UNL1       -0.3766
     56 H         -30.8903   -0.6407  -15.6458 H       1  UNL1        0.2106
     57 H         -30.7144   -3.8867  -18.5556 H       1  UNL1        0.2105
     58 H         -28.3264   -2.1371  -15.5074 H       1  UNL1        0.2107
     59 C         -32.9190   -4.0669  -14.4860 C.2     1  UNL1        0.3439
     60 O         -33.8149   -3.3156  -14.9544 O.2     1  UNL1       -0.2475
     61 O         -33.2844   -5.2691  -13.8858 O.3     1  UNL1       -0.4785
     62 H         -32.5905   -5.9040  -13.5108 H       1  UNL1        0.2951
@<TRIPOS>BOND
     1    11    12    1
     2    12    13    1
     3    12    14    1
     4    12     7    1
     5     7     8   am
     6     8     9    2
     7     8     1    1
     8     1     2   ar
     9     2     3   ar
    10     3     4   ar
    11     4    34    1
    12    34    35    1
    13    35    36   ar
    14    36    37   ar
    15    37    38    1
    16    37    39   ar
    17    39    43    1
    18    43    44    1
    19    44    45    2
    20    44    46    1
    21    46    47    1
    22    47    48    1
    23    48    49    1
    24    49    59    1
    25    59    60    2
    26    59    61    1
    27    49    50    1
    28    50    51    1
    29    50    52    1
    30    52    53    1
    31    52    54    1
    32    54    55    1
    33    39    40   ar
    34    40    41   ar
    35    41    42    1
    36     4     5   ar
    37     5    15    1
    38    15    17    1
    39    17    18    2
    40    17    19    2
    41    17    20    1
    42    20    21   ar
    43    21    22   ar
    44    22    23   ar
    45    23    31    1
    46    31    32    1
    47    32    33    1
    48    23    24   ar
    49    24    27    1
    50    27    28    2
    51    27    29    1
    52    24    25   ar
    53    25    26    1
    54     5     6   ar
    55     6     1   ar
    56    41    35   ar
    57    25    20   ar
    58    54    47    1
    59    33    31    1
    60     7    10    1
    61    61    62    1
    62    51    56    1
    63    53    57    1
    64    55    58    1
    65    15    16    1
    66    29    30    1
@<TRIPOS>MOLECULE
*****
 62 66 0 0 0
SMALL
GASTEIGER

@<TRIPOS>ATOM
      1 C         -29.1409   -3.5132  -16.6603 C.ar    1  UNL1        0.0548
      2 C         -28.7593   -3.5729  -18.0112 C.ar    1  UNL1        0.0077
      3 C         -27.4550   -3.9268  -18.3633 C.ar    1  UNL1        0.0390
      4 C         -26.5056   -4.2232  -17.3808 C.ar    1  UNL1        0.1598
      5 C         -26.8970   -4.2302  -16.0228 C.ar    1  UNL1        0.0993
      6 C         -28.2016   -3.8573  -15.6737 C.ar    1  UNL1        0.0235
      7 N         -31.2415   -3.8945  -15.2788 N.am    1  UNL1       -0.3040
      8 C         -30.5215   -3.1374  -16.2723 C.2     1  UNL1        0.2458
      9 O         -31.0696   -2.1537  -16.8391 O.2     1  UNL1       -0.2701
     10 H         -30.8465   -4.8236  -15.0080 H       1  UNL1        0.1496
     11 C         -32.2625   -2.1682  -13.8269 C.3     1  UNL1        0.0196
     12 C         -32.4969   -3.4606  -14.6335 C.3     1  UNL1        0.0572
     13 C         -33.5940   -3.2397  -15.6932 C.3     1  UNL1        0.0196
     14 C         -32.9697   -4.5630  -13.6631 C.3     1  UNL1        0.0196
     15 N         -26.0013   -4.6495  -14.9921 N.pl3   1  UNL1       -0.2120
     16 H         -25.1989   -4.0258  -14.7514 H       1  UNL1        0.1738
     17 S         -26.5572   -5.7326  -13.7622 S.O2    1  UNL1        0.0745
     18 O         -27.5959   -6.6584  -14.3283 O.2     1  UNL1       -0.1499
     19 O         -27.1839   -4.9533  -12.6401 O.2     1  UNL1       -0.1499
     20 C         -25.1869   -6.6772  -13.1582 C.ar    1  UNL1        0.1358
     21 C         -24.0600   -5.9934  -12.6942 C.ar    1  UNL1        0.0207
     22 C         -22.9504   -6.6887  -12.2280 C.ar    1  UNL1       -0.0026
     23 C         -22.9175   -8.0897  -12.2565 C.ar    1  UNL1       -0.0154
     24 C         -24.0652   -8.8065  -12.6852 C.ar    1  UNL1        0.0834
     25 C         -25.2140   -8.0890  -13.1080 C.ar    1  UNL1        0.0824
     26 CL        -26.7179   -8.9522  -13.4648 Cl      1  UNL1       -0.0806
     27 C         -24.0684  -10.2917  -12.6903 C.2     1  UNL1        0.3386
     28 O         -24.5797  -10.9288  -11.7305 O.2     1  UNL1       -0.2451
     29 O         -23.5234  -10.9950  -13.7603 O.3     1  UNL1       -0.4771
     30 H         -23.5257  -12.0077  -13.7733 H       1  UNL1        0.2954
     31 C         -21.6744   -8.7905  -11.7559 C.3     1  UNL1        0.0226
     32 C         -21.5496   -8.9146  -10.2405 C.3     1  UNL1        0.0047
     33 C         -20.6990   -7.9068  -10.9871 C.3     1  UNL1        0.0047
     34 O         -25.1958   -4.5107  -17.7956 O.3     1  UNL1       -0.4513
     35 C         -24.5711   -5.7651  -17.7154 C.ar    1  UNL1        0.1580
     36 C         -23.8444   -6.0638  -16.5570 C.ar    1  UNL1        0.0677
     37 C         -23.1494   -7.2692  -16.4397 C.ar    1  UNL1        0.1398
     38 F         -22.4024   -7.4977  -15.3299 F       1  UNL1       -0.2044
     39 C         -23.2105   -8.2203  -17.4706 C.ar    1  UNL1        0.0175
     40 C         -23.9832   -7.9485  -18.6104 C.ar    1  UNL1        0.0130
     41 C         -24.6722   -6.7373  -18.7357 C.ar    1  UNL1        0.0919
     42 CL        -25.7083   -6.5218  -20.1417 Cl      1  UNL1       -0.0791
     43 C         -22.3985   -9.4857  -17.4022 C.3     1  UNL1        0.1382
     44 C         -23.2790  -10.6259  -17.0034 C.2     1  UNL1        0.3234
     45 O         -24.2312  -10.4364  -16.1986 O.2     1  UNL1       -0.2497
     46 O         -23.0140  -11.9000  -17.5173 O.3     1  UNL1       -0.4215
     47 C         -23.1375  -13.1034  -16.7637 C.3     1  UNL1        0.3207
     48 O         -24.0800  -12.8782  -15.7341 O.3     1  UNL1       -0.3070
     49 C         -24.4452  -14.1078  -15.1307 C.3     1  UNL1        0.2456
     50 C         -23.2161  -14.8846  -14.5633 C.3     1  UNL1        0.1781
     51 O         -23.1020  -16.1162  -15.2305 O.3     1  UNL1       -0.3790
     52 C         -21.9085  -14.0769  -14.7229 C.3     1  UNL1        0.1733
     53 O         -21.9063  -13.0360  -13.7780 O.3     1  UNL1       -0.3793
     54 C         -21.7650  -13.4877  -16.1517 C.3     1  UNL1        0.2106
     55 O         -21.0675  -14.3712  -16.9951 O.3     1  UNL1       -0.3766
     56 H         -22.5193  -16.6971  -14.6746 H       1  UNL1        0.2106
     57 H         -20.9626  -12.7484  -13.6651 H       1  UNL1        0.2105
     58 H         -21.6016  -15.2030  -17.0742 H       1  UNL1        0.2107
     59 C         -25.4500  -13.8308  -14.0466 C.2     1  UNL1        0.3439
     60 O         -26.6631  -14.1169  -14.2285 O.2     1  UNL1       -0.2475
     61 O         -25.0532  -13.2960  -12.8237 O.3     1  UNL1       -0.4785
     62 H         -24.0846  -13.0670  -12.6373 H       1  UNL1        0.2951
@<TRIPOS>BOND
     1    11    12    1
     2    12    13    1
     3    12    14    1
     4    12     7    1
     5     7     8   am
     6     8     9    2
     7     8     1    1
     8     1     2   ar
     9     2     3   ar
    10     3     4   ar
    11     4    34    1
    12    34    35    1
    13    35    36   ar
    14    36    37   ar
    15    37    38    1
    16    37    39   ar
    17    39    43    1
    18    43    44    1
    19    44    45    2
    20    44    46    1
    21    46    47    1
    22    47    48    1
    23    48    49    1
    24    49    59    1
    25    59    60    2
    26    59    61    1
    27    49    50    1
    28    50    51    1
    29    50    52    1
    30    52    53    1
    31    52    54    1
    32    54    55    1
    33    39    40   ar
    34    40    41   ar
    35    41    42    1
    36     4     5   ar
    37     5    15    1
    38    15    17    1
    39    17    18    2
    40    17    19    2
    41    17    20    1
    42    20    21   ar
    43    21    22   ar
    44    22    23   ar
    45    23    31    1
    46    31    32    1
    47    32    33    1
    48    23    24   ar
    49    24    27    1
    50    27    28    2
    51    27    29    1
    52    24    25   ar
    53    25    26    1
    54     5     6   ar
    55     6     1   ar
    56    41    35   ar
    57    25    20   ar
    58    54    47    1
    59    33    31    1
    60     7    10    1
    61    61    62    1
    62    51    56    1
    63    53    57    1
    64    55    58    1
    65    15    16    1
    66    29    30    1
@<TRIPOS>MOLECULE
*****
 62 66 0 0 0
SMALL
GASTEIGER

@<TRIPOS>ATOM
      1 C         -26.8263   -6.2433  -14.3419 C.ar    1  UNL1        0.0548
      2 C         -27.2137   -7.0946  -13.2935 C.ar    1  UNL1        0.0077
      3 C         -26.3337   -8.0633  -12.8062 C.ar    1  UNL1        0.0390
      4 C         -25.0554   -8.2070  -13.3540 C.ar    1  UNL1        0.1598
      5 C         -24.6329   -7.3128  -14.3636 C.ar    1  UNL1        0.0993
      6 C         -25.5255   -6.3543  -14.8612 C.ar    1  UNL1        0.0235
      7 N         -29.1559   -5.4925  -15.0318 N.am    1  UNL1       -0.3040
      8 C         -27.7510   -5.2118  -14.8699 C.2     1  UNL1        0.2458
      9 O         -27.2883   -4.0855  -15.1967 O.2     1  UNL1       -0.2701
     10 H         -29.4527   -6.4928  -14.9710 H       1  UNL1        0.1496
     11 C         -30.0413   -3.2946  -14.3136 C.3     1  UNL1        0.0196
     12 C         -30.1949   -4.4759  -15.2917 C.3     1  UNL1        0.0572
     13 C         -30.1058   -3.9808  -16.7486 C.3     1  UNL1        0.0196
     14 C         -31.5842   -5.1114  -15.0758 C.3     1  UNL1        0.0196
     15 N         -23.2957   -7.3350  -14.8658 N.pl3   1  UNL1       -0.2120
     16 H         -22.5162   -7.1217  -14.2043 H       1  UNL1        0.1738
     17 S         -22.9160   -8.3032  -16.2489 S.O2    1  UNL1        0.0745
     18 O         -21.4980   -8.0507  -16.6756 O.2     1  UNL1       -0.1499
     19 O         -23.8223   -7.9398  -17.3916 O.2     1  UNL1       -0.1499
     20 C         -23.1145  -10.0127  -15.8328 C.ar    1  UNL1        0.1358
     21 C         -24.2288  -10.6938  -16.3301 C.ar    1  UNL1        0.0207
     22 C         -24.4407  -12.0313  -16.0166 C.ar    1  UNL1       -0.0026
     23 C         -23.5685  -12.7139  -15.1575 C.ar    1  UNL1       -0.0154
     24 C         -22.4084  -12.0552  -14.6728 C.ar    1  UNL1        0.0834
     25 C         -22.1708  -10.7060  -15.0420 C.ar    1  UNL1        0.0824
     26 CL        -20.6426   -9.9236  -14.6099 Cl      1  UNL1       -0.0806
     27 C         -21.4497  -12.7680  -13.7904 C.2     1  UNL1        0.3386
     28 O         -21.4334  -12.5359  -12.5517 O.2     1  UNL1       -0.2451
     29 O         -20.5719  -13.7104  -14.3176 O.3     1  UNL1       -0.4771
     30 H         -19.9180  -14.2039  -13.7220 H       1  UNL1        0.2954
     31 C         -23.8625  -14.1620  -14.8359 C.3     1  UNL1        0.0226
     32 C         -23.3363  -15.1829  -15.8402 C.3     1  UNL1        0.0047
     33 C         -24.8160  -14.8581  -15.8001 C.3     1  UNL1        0.0047
     34 O         -24.2407   -9.2396  -12.8638 O.3     1  UNL1       -0.4513
     35 C         -23.2816   -9.1097  -11.8472 C.ar    1  UNL1        0.1580
     36 C         -22.0238   -8.6016  -12.1922 C.ar    1  UNL1        0.0677
     37 C         -21.0064   -8.5042  -11.2408 C.ar    1  UNL1        0.1398
     38 F         -19.7800   -8.0681  -11.6250 F       1  UNL1       -0.2044
     39 C         -21.2504   -8.8743   -9.9087 C.ar    1  UNL1        0.0175
     40 C         -22.5267   -9.3321   -9.5463 C.ar    1  UNL1        0.0130
     41 C         -23.5453   -9.4409  -10.4991 C.ar    1  UNL1        0.0919
     42 CL        -25.1462   -9.9137   -9.9420 Cl      1  UNL1       -0.0791
     43 C         -20.1435   -8.8607   -8.8890 C.3     1  UNL1        0.1382
     44 C         -20.0676   -7.5120   -8.2489 C.2     1  UNL1        0.3234
     45 O         -20.9411   -6.6402   -8.5086 O.2     1  UNL1       -0.2497
     46 O         -19.0055   -7.2305   -7.3827 O.3     1  UNL1       -0.4215
     47 C         -18.7185   -7.9811   -6.2056 C.3     1  UNL1        0.3207
     48 O         -19.9198   -8.1191   -5.4728 O.3     1  UNL1       -0.3070
     49 C         -19.7553   -9.0807   -4.4445 C.3     1  UNL1        0.2456
     50 C         -18.5822   -8.7282   -3.4773 C.3     1  UNL1        0.1781
     51 O         -17.6123   -9.7433   -3.5410 O.3     1  UNL1       -0.3790
     52 C         -17.9424   -7.3666   -3.8300 C.3     1  UNL1        0.1733
     53 O         -18.8153   -6.3423   -3.4235 O.3     1  UNL1       -0.3793
     54 C         -17.6579   -7.2396   -5.3506 C.3     1  UNL1        0.2106
     55 O         -16.3603   -7.6850   -5.6609 O.3     1  UNL1       -0.3766
     56 H         -17.0407   -9.6527   -2.7340 H       1  UNL1        0.2106
     57 H         -18.2744   -5.5131   -3.3474 H       1  UNL1        0.2105
     58 H         -16.3059   -8.6485   -5.4329 H       1  UNL1        0.2107
     59 C         -21.0510   -9.2044   -3.6912 C.2     1  UNL1        0.3439
     60 O         -22.0951   -8.6679   -4.1478 O.2     1  UNL1       -0.2475
     61 O         -21.1242   -9.9391   -2.5105 O.3     1  UNL1       -0.4785
     62 H         -20.3083  -10.3954   -2.1216 H       1  UNL1        0.2951
@<TRIPOS>BOND
     1    11    12    1
     2    12    13    1
     3    12    14    1
     4    12     7    1
     5     7     8   am
     6     8     9    2
     7     8     1    1
     8     1     2   ar
     9     2     3   ar
    10     3     4   ar
    11     4    34    1
    12    34    35    1
    13    35    36   ar
    14    36    37   ar
    15    37    38    1
    16    37    39   ar
    17    39    43    1
    18    43    44    1
    19    44    45    2
    20    44    46    1
    21    46    47    1
    22    47    48    1
    23    48    49    1
    24    49    59    1
    25    59    60    2
    26    59    61    1
    27    49    50    1
    28    50    51    1
    29    50    52    1
    30    52    53    1
    31    52    54    1
    32    54    55    1
    33    39    40   ar
    34    40    41   ar
    35    41    42    1
    36     4     5   ar
    37     5    15    1
    38    15    17    1
    39    17    18    2
    40    17    19    2
    41    17    20    1
    42    20    21   ar
    43    21    22   ar
    44    22    23   ar
    45    23    31    1
    46    31    32    1
    47    32    33    1
    48    23    24   ar
    49    24    27    1
    50    27    28    2
    51    27    29    1
    52    24    25   ar
    53    25    26    1
    54     5     6   ar
    55     6     1   ar
    56    41    35   ar
    57    25    20   ar
    58    54    47    1
    59    33    31    1
    60     7    10    1
    61    61    62    1
    62    51    56    1
    63    53    57    1
    64    55    58    1
    65    15    16    1
    66    29    30    1
@<TRIPOS>MOLECULE
*****
 62 66 0 0 0
SMALL
GASTEIGER

@<TRIPOS>ATOM
      1 C         -20.0755   -7.8045   -8.2856 C.ar    1  UNL1        0.0548
      2 C         -20.7162   -6.5885   -8.5767 C.ar    1  UNL1        0.0077
      3 C         -21.1765   -6.3222   -9.8680 C.ar    1  UNL1        0.0390
      4 C         -21.0049   -7.2563  -10.8941 C.ar    1  UNL1        0.1598
      5 C         -20.4209   -8.5085  -10.5965 C.ar    1  UNL1        0.0993
      6 C         -19.9449   -8.7638   -9.3038 C.ar    1  UNL1        0.0235
      7 N         -18.1961   -7.8915   -6.5748 N.am    1  UNL1       -0.3040
      8 C         -19.5804   -8.0994   -6.9196 C.2     1  UNL1        0.2458
      9 O         -20.3849   -8.5561   -6.0631 O.2     1  UNL1       -0.2701
     10 H         -17.5262   -7.7368   -7.3621 H       1  UNL1        0.1496
     11 C         -18.6462   -7.2061   -4.2385 C.3     1  UNL1        0.0196
     12 C         -17.6591   -7.8977   -5.1992 C.3     1  UNL1        0.0572
     13 C         -17.3863   -9.3430   -4.7385 C.3     1  UNL1        0.0196
     14 C         -16.3279   -7.1180   -5.1763 C.3     1  UNL1        0.0196
     15 N         -20.3391   -9.5437  -11.5776 N.pl3   1  UNL1       -0.2120
     16 H         -19.6884   -9.4099  -12.3834 H       1  UNL1        0.1738
     17 S         -20.7319  -11.1713  -11.1404 S.O2    1  UNL1        0.0745
     18 O         -21.6385  -11.1740   -9.9427 O.2     1  UNL1       -0.1499
     19 O         -19.4792  -11.9210  -10.7831 O.2     1  UNL1       -0.1499
     20 C         -21.5460  -11.9575  -12.5021 C.ar    1  UNL1        0.1358
     21 C         -20.8760  -12.9816  -13.1768 C.ar    1  UNL1        0.0207
     22 C         -21.4636  -13.6174  -14.2643 C.ar    1  UNL1       -0.0026
     23 C         -22.7197  -13.2147  -14.7382 C.ar    1  UNL1       -0.0154
     24 C         -23.4366  -12.2047  -14.0448 C.ar    1  UNL1        0.0834
     25 C         -22.8527  -11.5988  -12.9024 C.ar    1  UNL1        0.0824
     26 CL        -23.7987  -10.4778  -11.9112 Cl      1  UNL1       -0.0806
     27 C         -24.7850  -11.7857  -14.5054 C.2     1  UNL1        0.3386
     28 O         -24.9072  -10.8678  -15.3605 O.2     1  UNL1       -0.2451
     29 O         -25.9255  -12.4120  -14.0118 O.3     1  UNL1       -0.4771
     30 H         -26.8484  -12.1351  -14.3241 H       1  UNL1        0.2954
     31 C         -23.2988  -13.9295  -15.9385 C.3     1  UNL1        0.0226
     32 C         -24.3497  -14.9921  -15.6323 C.3     1  UNL1        0.0047
     33 C         -22.9511  -15.4101  -16.0394 C.3     1  UNL1        0.0047
     34 O         -21.4328   -6.9046  -12.1838 O.3     1  UNL1       -0.4513
     35 C         -22.7648   -6.8904  -12.6262 C.ar    1  UNL1        0.1580
     36 C         -23.6649   -6.0414  -11.9719 C.ar    1  UNL1        0.0677
     37 C         -25.0163   -6.0246  -12.3231 C.ar    1  UNL1        0.1398
     38 F         -25.8724   -5.2369  -11.6241 F       1  UNL1       -0.2044
     39 C         -25.4806   -6.8311  -13.3742 C.ar    1  UNL1        0.0175
     40 C         -24.5712   -7.6430  -14.0698 C.ar    1  UNL1        0.0130
     41 C         -23.2186   -7.6701  -13.7137 C.ar    1  UNL1        0.0919
     42 CL        -22.1252   -8.6261  -14.7072 Cl      1  UNL1       -0.0791
     43 C         -26.9466   -6.8936  -13.7093 C.3     1  UNL1        0.1382
     44 C         -27.3483   -5.6514  -14.4374 C.2     1  UNL1        0.3234
     45 O         -26.4717   -4.9320  -14.9889 O.2     1  UNL1       -0.2497
     46 O         -28.7004   -5.2936  -14.4744 O.3     1  UNL1       -0.4215
     47 C         -29.3756   -4.8555  -15.6506 C.3     1  UNL1        0.3207
     48 O         -28.5019   -4.0016  -16.3623 O.3     1  UNL1       -0.3070
     49 C         -29.0102   -3.7592  -17.6631 C.3     1  UNL1        0.2456
     50 C         -30.4463   -3.1484  -17.6405 C.3     1  UNL1        0.1781
     51 O         -31.3322   -4.0314  -18.2815 O.3     1  UNL1       -0.3790
     52 C         -30.9272   -2.8765  -16.1975 C.3     1  UNL1        0.1733
     53 O         -30.2510   -1.7466  -15.7051 O.3     1  UNL1       -0.3793
     54 C         -30.6681   -4.0898  -15.2647 C.3     1  UNL1        0.2106
     55 O         -31.7772   -4.9546  -15.2405 O.3     1  UNL1       -0.3766
     56 H         -32.1479   -3.5130  -18.5095 H       1  UNL1        0.2106
     57 H         -30.7865   -1.3958  -14.9460 H       1  UNL1        0.2105
     58 H         -31.9052   -5.3122  -16.1565 H       1  UNL1        0.2107
     59 C         -28.0551   -2.8538  -18.3909 C.2     1  UNL1        0.3439
     60 O         -26.8487   -3.1909  -18.5219 O.2     1  UNL1       -0.2475
     61 O         -28.4936   -1.6604  -18.9589 O.3     1  UNL1       -0.4785
     62 H         -29.4591   -1.3644  -18.8853 H       1  UNL1        0.2951
@<TRIPOS>BOND
     1    11    12    1
     2    12    13    1
     3    12    14    1
     4    12     7    1
     5     7     8   am
     6     8     9    2
     7     8     1    1
     8     1     2   ar
     9     2     3   ar
    10     3     4   ar
    11     4    34    1
    12    34    35    1
    13    35    36   ar
    14    36    37   ar
    15    37    38    1
    16    37    39   ar
    17    39    43    1
    18    43    44    1
    19    44    45    2
    20    44    46    1
    21    46    47    1
    22    47    48    1
    23    48    49    1
    24    49    59    1
    25    59    60    2
    26    59    61    1
    27    49    50    1
    28    50    51    1
    29    50    52    1
    30    52    53    1
    31    52    54    1
    32    54    55    1
    33    39    40   ar
    34    40    41   ar
    35    41    42    1
    36     4     5   ar
    37     5    15    1
    38    15    17    1
    39    17    18    2
    40    17    19    2
    41    17    20    1
    42    20    21   ar
    43    21    22   ar
    44    22    23   ar
    45    23    31    1
    46    31    32    1
    47    32    33    1
    48    23    24   ar
    49    24    27    1
    50    27    28    2
    51    27    29    1
    52    24    25   ar
    53    25    26    1
    54     5     6   ar
    55     6     1   ar
    56    41    35   ar
    57    25    20   ar
    58    54    47    1
    59    33    31    1
    60     7    10    1
    61    61    62    1
    62    51    56    1
    63    53    57    1
    64    55    58    1
    65    15    16    1
    66    29    30    1
@<TRIPOS>MOLECULE
*****
 62 66 0 0 0
SMALL
GASTEIGER

@<TRIPOS>ATOM
      1 C         -28.5491   -5.1664  -14.9993 C.ar    1  UNL1        0.0548
      2 C         -27.5850   -4.4018  -15.6773 C.ar    1  UNL1        0.0077
      3 C         -26.2244   -4.6682  -15.5100 C.ar    1  UNL1        0.0390
      4 C         -25.7967   -5.6953  -14.6633 C.ar    1  UNL1        0.1598
      5 C         -26.7596   -6.5121  -14.0284 C.ar    1  UNL1        0.0993
      6 C         -28.1229   -6.2296  -14.1855 C.ar    1  UNL1        0.0235
      7 N         -30.6282   -3.8028  -14.4661 N.am    1  UNL1       -0.3040
      8 C         -29.9967   -4.8934  -15.1663 C.2     1  UNL1        0.2458
      9 O         -30.6776   -5.6430  -15.9172 O.2     1  UNL1       -0.2701
     10 H         -30.0888   -3.3587  -13.6887 H       1  UNL1        0.1496
     11 C         -32.0551   -2.7781  -16.2109 C.3     1  UNL1        0.0196
     12 C         -31.9796   -3.2833  -14.7567 C.3     1  UNL1        0.0572
     13 C         -33.0367   -4.3784  -14.5141 C.3     1  UNL1        0.0196
     14 C         -32.2764   -2.0998  -13.8124 C.3     1  UNL1        0.0196
     15 N         -26.3768   -7.6517  -13.2568 N.pl3   1  UNL1       -0.2120
     16 H         -25.8089   -8.3947  -13.7217 H       1  UNL1        0.1738
     17 S         -26.2457   -7.5168  -11.5365 S.O2    1  UNL1        0.0745
     18 O         -27.0473   -8.6021  -10.8763 O.2     1  UNL1       -0.1499
     19 O         -26.7894   -6.1903  -11.0850 O.2     1  UNL1       -0.1499
     20 C         -24.5443   -7.6693  -11.0705 C.ar    1  UNL1        0.1358
     21 C         -24.0511   -8.9388  -10.7578 C.ar    1  UNL1        0.0207
     22 C         -22.7280   -9.1093  -10.3674 C.ar    1  UNL1       -0.0026
     23 C         -21.8719   -8.0077  -10.2328 C.ar    1  UNL1       -0.0154
     24 C         -22.3384   -6.7139  -10.5836 C.ar    1  UNL1        0.0834
     25 C         -23.6747   -6.5562  -11.0338 C.ar    1  UNL1        0.0824
     26 CL        -24.2227   -4.9922  -11.6565 Cl      1  UNL1       -0.0806
     27 C         -21.4398   -5.5356  -10.4845 C.2     1  UNL1        0.3386
     28 O         -20.9147   -5.0483  -11.5215 O.2     1  UNL1       -0.2451
     29 O         -21.1813   -4.9470   -9.2502 O.3     1  UNL1       -0.4771
     30 H         -20.5731   -4.1406   -9.1747 H       1  UNL1        0.2954
     31 C         -20.4488   -8.2531   -9.7838 C.3     1  UNL1        0.0226
     32 C         -19.5043   -8.8020  -10.8487 C.3     1  UNL1        0.0047
     33 C         -20.0223   -9.7162   -9.7568 C.3     1  UNL1        0.0047
     34 O         -24.4154   -5.8731  -14.4885 O.3     1  UNL1       -0.4513
     35 C         -23.6614   -6.9475  -14.9858 C.ar    1  UNL1        0.1580
     36 C         -23.0869   -7.8292  -14.0630 C.ar    1  UNL1        0.0677
     37 C         -22.2755   -8.8825  -14.4898 C.ar    1  UNL1        0.1398
     38 F         -21.6824   -9.6785  -13.5643 F       1  UNL1       -0.2044
     39 C         -22.0636   -9.0970  -15.8609 C.ar    1  UNL1        0.0175
     40 C         -22.6826   -8.2487  -16.7921 C.ar    1  UNL1        0.0130
     41 C         -23.4877   -7.1861  -16.3676 C.ar    1  UNL1        0.0919
     42 CL        -24.3181   -6.2405  -17.5976 Cl      1  UNL1       -0.0791
     43 C         -21.1227  -10.1706  -16.3376 C.3     1  UNL1        0.1382
     44 C         -21.8022  -11.5002  -16.2683 C.2     1  UNL1        0.3234
     45 O         -22.3360  -11.9905  -17.3003 O.2     1  UNL1       -0.2497
     46 O         -21.8544  -12.1727  -15.0425 O.3     1  UNL1       -0.4215
     47 C         -22.9898  -12.9011  -14.5823 C.3     1  UNL1        0.3207
     48 O         -23.4884  -13.6611  -15.6653 O.3     1  UNL1       -0.3070
     49 C         -24.4374  -14.6061  -15.2010 C.3     1  UNL1        0.2456
     50 C         -25.6207  -13.9385  -14.4329 C.3     1  UNL1        0.1781
     51 O         -25.6328  -14.4079  -13.1083 O.3     1  UNL1       -0.3790
     52 C         -25.5097  -12.3973  -14.4437 C.3     1  UNL1        0.1733
     53 O         -25.8514  -11.9322  -15.7256 O.3     1  UNL1       -0.3793
     54 C         -24.0791  -11.9194  -14.0771 C.3     1  UNL1        0.2106
     55 O         -23.9581  -11.7023  -12.6927 O.3     1  UNL1       -0.3766
     56 H         -26.5312  -14.2081  -12.7354 H       1  UNL1        0.2106
     57 H         -26.0952  -10.9742  -15.6314 H       1  UNL1        0.2105
     58 H         -24.1030  -12.5695  -12.2341 H       1  UNL1        0.2107
     59 C         -24.9413  -15.3977  -16.3763 C.2     1  UNL1        0.3439
     60 O         -24.1218  -15.9386  -17.1652 O.2     1  UNL1       -0.2475
     61 O         -26.3063  -15.5758  -16.5859 O.3     1  UNL1       -0.4785
     62 H         -26.9933  -15.1674  -15.9643 H       1  UNL1        0.2951
@<TRIPOS>BOND
     1    11    12    1
     2    12    13    1
     3    12    14    1
     4    12     7    1
     5     7     8   am
     6     8     9    2
     7     8     1    1
     8     1     2   ar
     9     2     3   ar
    10     3     4   ar
    11     4    34    1
    12    34    35    1
    13    35    36   ar
    14    36    37   ar
    15    37    38    1
    16    37    39   ar
    17    39    43    1
    18    43    44    1
    19    44    45    2
    20    44    46    1
    21    46    47    1
    22    47    48    1
    23    48    49    1
    24    49    59    1
    25    59    60    2
    26    59    61    1
    27    49    50    1
    28    50    51    1
    29    50    52    1
    30    52    53    1
    31    52    54    1
    32    54    55    1
    33    39    40   ar
    34    40    41   ar
    35    41    42    1
    36     4     5   ar
    37     5    15    1
    38    15    17    1
    39    17    18    2
    40    17    19    2
    41    17    20    1
    42    20    21   ar
    43    21    22   ar
    44    22    23   ar
    45    23    31    1
    46    31    32    1
    47    32    33    1
    48    23    24   ar
    49    24    27    1
    50    27    28    2
    51    27    29    1
    52    24    25   ar
    53    25    26    1
    54     5     6   ar
    55     6     1   ar
    56    41    35   ar
    57    25    20   ar
    58    54    47    1
    59    33    31    1
    60     7    10    1
    61    61    62    1
    62    51    56    1
    63    53    57    1
    64    55    58    1
    65    15    16    1
    66    29    30    1
@<TRIPOS>MOLECULE
*****
 62 66 0 0 0
SMALL
GASTEIGER

@<TRIPOS>ATOM
      1 C         -28.5280   -3.7757  -16.7058 C.ar    1  UNL1        0.0548
      2 C         -28.0790   -3.8308  -18.0359 C.ar    1  UNL1        0.0077
      3 C         -26.7915   -4.2846  -18.3302 C.ar    1  UNL1        0.0390
      4 C         -25.9255   -4.6874  -17.3092 C.ar    1  UNL1        0.1598
      5 C         -26.3902   -4.6980  -15.9745 C.ar    1  UNL1        0.0993
      6 C         -27.6764   -4.2251  -15.6826 C.ar    1  UNL1        0.0235
      7 N         -30.7428   -4.0386  -15.4842 N.am    1  UNL1       -0.3040
      8 C         -29.8917   -3.2945  -16.3789 C.2     1  UNL1        0.2458
      9 O         -30.3086   -2.2305  -16.9115 O.2     1  UNL1       -0.2701
     10 H         -30.4531   -5.0158  -15.2524 H       1  UNL1        0.1496
     11 C         -32.6593   -4.6182  -14.0278 C.3     1  UNL1        0.0196
     12 C         -31.9941   -3.5273  -14.8897 C.3     1  UNL1        0.0572
     13 C         -31.7089   -2.2730  -14.0406 C.3     1  UNL1        0.0196
     14 C         -32.9666   -3.1395  -16.0229 C.3     1  UNL1        0.0196
     15 N         -25.5906   -5.2198  -14.9119 N.pl3   1  UNL1       -0.2120
     16 H         -24.6540   -4.7902  -14.7419 H       1  UNL1        0.1738
     17 S         -26.3532   -6.0085  -13.5736 S.O2    1  UNL1        0.0745
     18 O         -27.3852   -6.9790  -14.0730 O.2     1  UNL1       -0.1499
     19 O         -27.0438   -4.9925  -12.7075 O.2     1  UNL1       -0.1499
     20 C         -25.1273   -6.8766  -12.6363 C.ar    1  UNL1        0.1358
     21 C         -23.7900   -6.7671  -13.0267 C.ar    1  UNL1        0.0207
     22 C         -22.7917   -7.4444  -12.3362 C.ar    1  UNL1       -0.0026
     23 C         -23.1079   -8.2890  -11.2632 C.ar    1  UNL1       -0.0154
     24 C         -24.4539   -8.3846  -10.8229 C.ar    1  UNL1        0.0834
     25 C         -25.4596   -7.6468  -11.4993 C.ar    1  UNL1        0.0824
     26 CL        -27.1084   -7.5981  -10.8564 Cl      1  UNL1       -0.0806
     27 C         -24.8095   -9.2444   -9.6654 C.2     1  UNL1        0.3386
     28 O         -25.3935  -10.3462   -9.8484 O.2     1  UNL1       -0.2451
     29 O         -24.4876   -8.8521   -8.3696 O.3     1  UNL1       -0.4771
     30 H         -24.7227   -9.4348   -7.5752 H       1  UNL1        0.2954
     31 C         -21.9813   -9.0163  -10.5640 C.3     1  UNL1        0.0226
     32 C         -21.0320   -8.1409   -9.7517 C.3     1  UNL1        0.0047
     33 C         -20.5848   -8.7010  -11.0870 C.3     1  UNL1        0.0047
     34 O         -24.6235   -5.0739  -17.6636 O.3     1  UNL1       -0.4513
     35 C         -24.1177   -6.3821  -17.6111 C.ar    1  UNL1        0.1580
     36 C         -23.4028   -6.7645  -16.4701 C.ar    1  UNL1        0.0677
     37 C         -22.8218   -8.0311  -16.3813 C.ar    1  UNL1        0.1398
     38 F         -22.0809   -8.3447  -15.2883 F       1  UNL1       -0.2044
     39 C         -22.9890   -8.9570  -17.4233 C.ar    1  UNL1        0.0175
     40 C         -23.7519   -8.5974  -18.5452 C.ar    1  UNL1        0.0130
     41 C         -24.3265   -7.3255  -18.6422 C.ar    1  UNL1        0.0919
     42 CL        -25.3614   -6.9934  -20.0262 Cl      1  UNL1       -0.0791
     43 C         -22.2980  -10.2935  -17.3863 C.3     1  UNL1        0.1382
     44 C         -23.2063  -11.3435  -17.9403 C.2     1  UNL1        0.3234
     45 O         -23.1841  -11.6108  -19.1725 O.2     1  UNL1       -0.2497
     46 O         -24.0898  -12.0009  -17.0772 O.3     1  UNL1       -0.4215
     47 C         -24.1491  -11.7699  -15.6721 C.3     1  UNL1        0.3207
     48 O         -22.9755  -12.3046  -15.0925 O.3     1  UNL1       -0.3070
     49 C         -22.8508  -11.8643  -13.7509 C.3     1  UNL1        0.2456
     50 C         -24.0904  -12.2397  -12.8799 C.3     1  UNL1        0.1781
     51 O         -24.6980  -11.0619  -12.4123 O.3     1  UNL1       -0.3790
     52 C         -25.1140  -13.0787  -13.6773 C.3     1  UNL1        0.1733
     53 O         -24.6067  -14.3813  -13.8266 O.3     1  UNL1       -0.3793
     54 C         -25.4002  -12.4648  -15.0739 C.3     1  UNL1        0.2106
     55 O         -26.4916  -11.5790  -15.0226 O.3     1  UNL1       -0.3766
     56 H         -25.2821  -11.3166  -11.6506 H       1  UNL1        0.2106
     57 H         -25.3786  -14.9718  -14.0309 H       1  UNL1        0.2105
     58 H         -26.2492  -10.8309  -14.4185 H       1  UNL1        0.2107
     59 C         -21.5922  -12.4469  -13.1694 C.2     1  UNL1        0.3439
     60 O         -21.2148  -12.1009  -12.0187 O.2     1  UNL1       -0.2475
     61 O         -20.8538  -13.3968  -13.8705 O.3     1  UNL1       -0.4785
     62 H         -21.1349  -13.7088  -14.7918 H       1  UNL1        0.2951
@<TRIPOS>BOND
     1    11    12    1
     2    12    13    1
     3    12    14    1
     4    12     7    1
     5     7     8   am
     6     8     9    2
     7     8     1    1
     8     1     2   ar
     9     2     3   ar
    10     3     4   ar
    11     4    34    1
    12    34    35    1
    13    35    36   ar
    14    36    37   ar
    15    37    38    1
    16    37    39   ar
    17    39    43    1
    18    43    44    1
    19    44    45    2
    20    44    46    1
    21    46    47    1
    22    47    48    1
    23    48    49    1
    24    49    59    1
    25    59    60    2
    26    59    61    1
    27    49    50    1
    28    50    51    1
    29    50    52    1
    30    52    53    1
    31    52    54    1
    32    54    55    1
    33    39    40   ar
    34    40    41   ar
    35    41    42    1
    36     4     5   ar
    37     5    15    1
    38    15    17    1
    39    17    18    2
    40    17    19    2
    41    17    20    1
    42    20    21   ar
    43    21    22   ar
    44    22    23   ar
    45    23    31    1
    46    31    32    1
    47    32    33    1
    48    23    24   ar
    49    24    27    1
    50    27    28    2
    51    27    29    1
    52    24    25   ar
    53    25    26    1
    54     5     6   ar
    55     6     1   ar
    56    41    35   ar
    57    25    20   ar
    58    54    47    1
    59    33    31    1
    60     7    10    1
    61    61    62    1
    62    51    56    1
    63    53    57    1
    64    55    58    1
    65    15    16    1
    66    29    30    1
@<TRIPOS>MOLECULE
*****
 62 66 0 0 0
SMALL
GASTEIGER

@<TRIPOS>ATOM
      1 C         -29.0056   -3.5854  -16.6589 C.ar    1  UNL1        0.0548
      2 C         -28.5677   -3.5296  -17.9927 C.ar    1  UNL1        0.0077
      3 C         -27.2645   -3.9047  -18.3262 C.ar    1  UNL1        0.0390
      4 C         -26.3717   -4.3375  -17.3412 C.ar    1  UNL1        0.1598
      5 C         -26.8224   -4.4598  -16.0072 C.ar    1  UNL1        0.0993
      6 C         -28.1251   -4.0655  -15.6748 C.ar    1  UNL1        0.0235
      7 N         -31.1377   -3.9450  -15.3205 N.am    1  UNL1       -0.3040
      8 C         -30.3857   -3.1886  -16.2905 C.2     1  UNL1        0.2458
      9 O         -30.9048   -2.1871  -16.8535 O.2     1  UNL1       -0.2701
     10 H         -30.7652   -4.8850  -15.0555 H       1  UNL1        0.1496
     11 C         -33.4619   -3.2200  -15.7707 C.3     1  UNL1        0.0196
     12 C         -32.3962   -3.4960  -14.6919 C.3     1  UNL1        0.0572
     13 C         -32.9041   -4.5566  -13.6955 C.3     1  UNL1        0.0196
     14 C         -32.1325   -2.1866  -13.9197 C.3     1  UNL1        0.0196
     15 N         -25.9903   -5.0171  -14.9885 N.pl3   1  UNL1       -0.2120
     16 H         -25.0933   -4.5319  -14.7633 H       1  UNL1        0.1738
     17 S         -26.6952   -5.9926  -13.7450 S.O2    1  UNL1        0.0745
     18 O         -27.7856   -6.8486  -14.3236 O.2     1  UNL1       -0.1499
     19 O         -27.3000   -5.1131  -12.6867 O.2     1  UNL1       -0.1499
     20 C         -25.4429   -7.0253  -13.0377 C.ar    1  UNL1        0.1358
     21 C         -25.4559   -8.3894  -13.3403 C.ar    1  UNL1        0.0207
     22 C         -24.5066   -9.2460  -12.7951 C.ar    1  UNL1       -0.0026
     23 C         -23.5446   -8.7704  -11.8934 C.ar    1  UNL1       -0.0154
     24 C         -23.4863   -7.3824  -11.6024 C.ar    1  UNL1        0.0834
     25 C         -24.4252   -6.5064  -12.2061 C.ar    1  UNL1        0.0824
     26 CL        -24.2573   -4.7548  -12.0116 Cl      1  UNL1       -0.0806
     27 C         -22.4535   -6.8482  -10.6784 C.2     1  UNL1        0.3386
     28 O         -22.5656   -7.0173   -9.4345 O.2     1  UNL1       -0.2451
     29 O         -21.3440   -6.1712  -11.1757 O.3     1  UNL1       -0.4771
     30 H         -20.6330   -5.8078  -10.5526 H       1  UNL1        0.2954
     31 C         -22.5511   -9.7537  -11.3164 C.3     1  UNL1        0.0226
     32 C         -21.2813   -9.9684  -12.1344 C.3     1  UNL1        0.0047
     33 C         -22.3613  -11.0314  -12.1255 C.3     1  UNL1        0.0047
     34 O         -25.0576   -4.6408  -17.7301 O.3     1  UNL1       -0.4513
     35 C         -24.4453   -5.8995  -17.6253 C.ar    1  UNL1        0.1580
     36 C         -23.7410   -6.1913  -16.4515 C.ar    1  UNL1        0.0677
     37 C         -23.0586   -7.4012  -16.3091 C.ar    1  UNL1        0.1398
     38 F         -22.3325   -7.6235  -15.1842 F       1  UNL1       -0.2044
     39 C         -23.1106   -8.3633  -17.3302 C.ar    1  UNL1        0.0175
     40 C         -23.8614   -8.0977  -18.4859 C.ar    1  UNL1        0.0130
     41 C         -24.5376   -6.8822  -18.6364 C.ar    1  UNL1        0.0919
     42 CL        -25.5479   -6.6737  -20.0621 Cl      1  UNL1       -0.0791
     43 C         -22.3109   -9.6347  -17.2339 C.3     1  UNL1        0.1382
     44 C         -22.7419  -10.4086  -16.0299 C.2     1  UNL1        0.3234
     45 O         -21.8785  -10.8846  -15.2435 O.2     1  UNL1       -0.2497
     46 O         -24.1081  -10.6127  -15.8074 O.3     1  UNL1       -0.4215
     47 C         -24.7139  -11.8986  -15.7038 C.3     1  UNL1        0.3207
     48 O         -24.8152  -12.2234  -14.3314 O.3     1  UNL1       -0.3070
     49 C         -25.6515  -13.3548  -14.1591 C.3     1  UNL1        0.2456
     50 C         -25.1519  -14.5964  -14.9621 C.3     1  UNL1        0.1781
     51 O         -26.1312  -14.9614  -15.9018 O.3     1  UNL1       -0.3790
     52 C         -23.8145  -14.3097  -15.6808 C.3     1  UNL1        0.1733
     53 O         -22.7849  -14.2971  -14.7237 O.3     1  UNL1       -0.3793
     54 C         -23.8444  -12.9539  -16.4359 C.3     1  UNL1        0.2106
     55 O         -24.2728  -13.1247  -17.7647 O.3     1  UNL1       -0.3766
     56 H         -25.9317  -15.8918  -16.1858 H       1  UNL1        0.2106
     57 H         -21.9328  -14.4443  -15.2119 H       1  UNL1        0.2105
     58 H         -25.2028  -13.4681  -17.7436 H       1  UNL1        0.2107
     59 C         -25.7399  -13.6674  -12.6908 C.2     1  UNL1        0.3439
     60 O         -25.1364  -12.9405  -11.8579 O.2     1  UNL1       -0.2475
     61 O         -26.5137  -14.7301  -12.2314 O.3     1  UNL1       -0.4785
     62 H         -27.0236  -15.3268  -12.8711 H       1  UNL1        0.2951
@<TRIPOS>BOND
     1    11    12    1
     2    12    13    1
     3    12    14    1
     4    12     7    1
     5     7     8   am
     6     8     9    2
     7     8     1    1
     8     1     2   ar
     9     2     3   ar
    10     3     4   ar
    11     4    34    1
    12    34    35    1
    13    35    36   ar
    14    36    37   ar
    15    37    38    1
    16    37    39   ar
    17    39    43    1
    18    43    44    1
    19    44    45    2
    20    44    46    1
    21    46    47    1
    22    47    48    1
    23    48    49    1
    24    49    59    1
    25    59    60    2
    26    59    61    1
    27    49    50    1
    28    50    51    1
    29    50    52    1
    30    52    53    1
    31    52    54    1
    32    54    55    1
    33    39    40   ar
    34    40    41   ar
    35    41    42    1
    36     4     5   ar
    37     5    15    1
    38    15    17    1
    39    17    18    2
    40    17    19    2
    41    17    20    1
    42    20    21   ar
    43    21    22   ar
    44    22    23   ar
    45    23    31    1
    46    31    32    1
    47    32    33    1
    48    23    24   ar
    49    24    27    1
    50    27    28    2
    51    27    29    1
    52    24    25   ar
    53    25    26    1
    54     5     6   ar
    55     6     1   ar
    56    41    35   ar
    57    25    20   ar
    58    54    47    1
    59    33    31    1
    60     7    10    1
    61    61    62    1
    62    51    56    1
    63    53    57    1
    64    55    58    1
    65    15    16    1
    66    29    30    1
