@<TRIPOS>MOLECULE
*****
 56 62 0 0 0
SMALL
GASTEIGER

@<TRIPOS>ATOM
      1 C         -29.6255   46.5784   -8.5968 C.3     1  UNL1        0.1239
      2 C         -28.1074   46.4310   -8.5603 C.3     1  UNL1        0.0374
      3 C         -27.5791   47.8507   -8.4583 C.3     1  UNL1        0.0739
      4 N         -28.5929   48.7524   -9.0351 N.3     1  UNL1       -0.2638
      5 C         -29.8106   47.9506   -9.2615 C.3     1  UNL1        0.0913
      6 C         -30.2858   46.5876   -7.2174 C.2     1  UNL1        0.2359
      7 O         -30.4141   47.6871   -6.6119 O.2     1  UNL1       -0.2739
      8 N         -30.7087   45.3749   -6.5671 N.am    1  UNL1       -0.2832
      9 H         -31.1459   44.6280   -7.1480 H       1  UNL1        0.1549
     10 C         -30.6436   45.1417   -5.1462 C.ar    1  UNL1        0.0505
     11 C         -31.5833   44.3058   -4.4774 C.ar    1  UNL1        0.0162
     12 C         -31.5213   44.1234   -3.0838 C.ar    1  UNL1        0.0198
     13 C         -30.5335   44.8076   -2.3840 C.ar    1  UNL1        0.0754
     14 N         -30.3198   44.8286   -1.0595 N.ar    1  UNL1       -0.2757
     15 N         -29.3219   45.6676   -0.8069 N.ar    1  UNL1       -0.1726
     16 C         -28.8954   46.1919   -1.9829 C.ar    1  UNL1        0.1038
     17 C         -29.6494   45.6395   -3.0064 C.ar    1  UNL1        0.0376
     18 C         -29.6704   45.8327   -4.3866 C.ar    1  UNL1        0.0177
     19 H         -30.8478   44.2992   -0.3307 H       1  UNL1        0.1889
     20 C         -27.8114   47.1956   -2.0994 C.ar    1  UNL1        0.0450
     21 C         -28.1100   48.5467   -1.8556 C.ar    1  UNL1        0.1038
     22 N         -27.1609   49.5043   -2.0124 N.ar    1  UNL1       -0.2101
     23 C         -25.9011   49.2067   -2.4263 C.ar    1  UNL1        0.2250
     24 C         -25.5605   47.8854   -2.7072 C.ar    1  UNL1        0.0642
     25 C         -26.4978   46.8570   -2.5209 C.ar    1  UNL1        0.0831
     26 C         -26.0422   45.4593   -2.7197 C.2     1  UNL1        0.3383
     27 O         -26.5498   44.7347   -3.6169 O.2     1  UNL1       -0.2451
     28 O         -25.0838   44.9149   -1.8689 O.3     1  UNL1       -0.4771
     29 H         -24.7806   43.9540   -1.9739 H       1  UNL1        0.2954
     30 O         -24.9314   50.2066   -2.5649 O.3     1  UNL1       -0.4640
     31 C         -25.2349   51.5731   -2.8452 C.3     1  UNL1        0.1678
     32 C         -25.8185   51.7039   -4.2546 C.3     1  UNL1        0.0473
     33 C         -23.9574   52.4000   -2.7168 C.3     1  UNL1        0.0473
     34 C         -31.2125   46.3668  -10.8607 C.3     1  UNL1        0.0696
     35 S         -30.3816   45.2679   -9.6613 S.3     1  UNL1       -0.1308
     36 C         -28.8689   49.9305   -8.1866 C.3     1  UNL1        0.1587
     37 C         -28.2072   51.1703   -8.7423 C.2     1  UNL1        0.2423
     38 O         -28.9418   52.1073   -9.1574 O.2     1  UNL1       -0.2733
     39 N         -26.7723   51.2740   -8.8725 N.am    1  UNL1       -0.2740
     40 C         -25.8954   50.5243   -7.9560 C.3     1  UNL1        0.1196
     41 C         -24.4481   50.9110   -8.0685 C.2     1  UNL1       -0.0089
     42 C         -23.9369   51.4055   -9.2038 C.2     1  UNL1       -0.0231
     43 C         -24.8491   51.6530  -10.3752 C.3     1  UNL1        0.0476
     44 C         -26.2072   52.1696   -9.8931 C.3     1  UNL1        0.0984
     45 C         -22.4737   51.5925   -9.3453 C.ar    1  UNL1       -0.0042
     46 C         -21.6813   51.9190   -8.2321 C.ar    1  UNL1       -0.0002
     47 C         -20.2970   52.0546   -8.3639 C.ar    1  UNL1        0.0031
     48 C         -19.6774   51.8530   -9.6085 C.ar    1  UNL1        0.0375
     49 C         -20.4722   51.5438  -10.7247 C.ar    1  UNL1        0.0031
     50 C         -21.8579   51.4209  -10.5950 C.ar    1  UNL1       -0.0002
     51 C         -18.2068   51.9270   -9.7344 C.ar    1  UNL1        0.1832
     52 N         -17.3584   51.9088   -8.6796 N.ar    1  UNL1       -0.2034
     53 C         -16.1524   51.9692   -9.2766 C.ar    1  UNL1        0.1972
     54 N         -16.2755   52.0080  -10.6126 N.ar    1  UNL1       -0.2281
     55 C         -15.1994   52.1382  -11.5841 C.3     1  UNL1        0.1556
     56 N         -17.5591   51.9962  -10.9157 N.ar    1  UNL1       -0.1484
@<TRIPOS>BOND
     1    34    35    1
     2     1    35    1
     3     1     6    1
     4     6     7    2
     5     6     8   am
     6     8    10    1
     7    10    11   ar
     8    11    12   ar
     9    12    13   ar
    10    13    14   ar
    11    14    15   ar
    12    15    16   ar
    13    16    20    1
    14    20    21   ar
    15    21    22   ar
    16    22    23   ar
    17    23    30    1
    18    30    31    1
    19    31    32    1
    20    31    33    1
    21    23    24   ar
    22    24    25   ar
    23    25    26    1
    24    26    27    2
    25    26    28    1
    26    16    17   ar
    27    17    18   ar
    28     1     2    1
    29     2     3    1
    30     3     4    1
    31     4    36    1
    32    36    37    1
    33    37    38    2
    34    37    39   am
    35    39    40    1
    36    40    41    1
    37    41    42    2
    38    42    45    1
    39    45    46   ar
    40    46    47   ar
    41    47    48   ar
    42    48    51    1
    43    51    52   ar
    44    52    53   ar
    45    53    54   ar
    46    54    55    1
    47    54    56   ar
    48    48    49   ar
    49    49    50   ar
    50    42    43    1
    51    43    44    1
    52     4     5    1
    53     5     1    1
    54    18    10   ar
    55    44    39    1
    56    17    13   ar
    57    50    45   ar
    58    25    20   ar
    59    56    51   ar
    60     8     9    1
    61    14    19    1
    62    28    29    1
@<TRIPOS>MOLECULE
*****
 56 62 0 0 0
SMALL
GASTEIGER

@<TRIPOS>ATOM
      1 C         -26.4109   51.1088  -10.0115 C.3     1  UNL1        0.1239
      2 C         -26.2775   51.2633  -11.5234 C.3     1  UNL1        0.0374
      3 C         -24.7821   51.3209  -11.7800 C.3     1  UNL1        0.0739
      4 N         -24.1320   51.8145  -10.5525 N.3     1  UNL1       -0.2638
      5 C         -25.1573   51.8280   -9.4917 C.3     1  UNL1        0.0913
      6 C         -26.4026   49.6578   -9.5284 C.2     1  UNL1        0.2359
      7 O         -25.8706   48.7769  -10.2583 O.2     1  UNL1       -0.2739
      8 N         -27.0352   49.2610   -8.2977 N.am    1  UNL1       -0.2832
      9 H         -26.9555   49.8940   -7.4733 H       1  UNL1        0.1549
     10 C         -27.7132   48.0057   -8.0927 C.ar    1  UNL1        0.0505
     11 C         -28.1119   47.1795   -9.1824 C.ar    1  UNL1        0.0162
     12 C         -28.8057   45.9763   -8.9580 C.ar    1  UNL1        0.0198
     13 C         -29.1115   45.6400   -7.6439 C.ar    1  UNL1        0.0754
     14 N         -29.8052   44.5807   -7.1996 N.ar    1  UNL1       -0.2757
     15 N         -29.9302   44.6817   -5.8814 N.ar    1  UNL1       -0.1726
     16 C         -29.3126   45.8204   -5.4788 C.ar    1  UNL1        0.1038
     17 C         -28.7676   46.4390   -6.5931 C.ar    1  UNL1        0.0376
     18 C         -28.0666   47.6298   -6.7752 C.ar    1  UNL1        0.0177
     19 H         -30.2053   43.8069   -7.7752 H       1  UNL1        0.1889
     20 C         -29.2691   46.2885   -4.0735 C.ar    1  UNL1        0.0450
     21 C         -30.1693   47.2864   -3.6636 C.ar    1  UNL1        0.1038
     22 N         -30.1206   47.7867   -2.4029 N.ar    1  UNL1       -0.2101
     23 C         -29.1985   47.3656   -1.4976 C.ar    1  UNL1        0.2250
     24 C         -28.2658   46.3969   -1.8614 C.ar    1  UNL1        0.0642
     25 C         -28.3036   45.8223   -3.1417 C.ar    1  UNL1        0.0831
     26 C         -27.3640   44.7114   -3.4311 C.2     1  UNL1        0.3383
     27 O         -26.7560   44.1190   -2.5000 O.2     1  UNL1       -0.2451
     28 O         -27.1000   44.3526   -4.7503 O.3     1  UNL1       -0.4771
     29 H         -26.4412   43.6140   -4.9667 H       1  UNL1        0.2954
     30 O         -29.1760   47.8813   -0.1965 O.3     1  UNL1       -0.4640
     31 C         -30.1995   47.6427    0.7696 C.3     1  UNL1        0.1678
     32 C         -31.0395   46.4308    0.3576 C.3     1  UNL1        0.0473
     33 C         -31.0763   48.8883    0.8794 C.3     1  UNL1        0.0473
     34 C         -29.0153   51.6159  -10.8171 C.3     1  UNL1        0.0696
     35 S         -27.9233   51.9803   -9.3989 S.3     1  UNL1       -0.1308
     36 C         -22.9546   51.0126  -10.1590 C.3     1  UNL1        0.1587
     37 C         -21.6733   51.6491  -10.6457 C.2     1  UNL1        0.2423
     38 O         -20.9271   50.9834  -11.4140 O.2     1  UNL1       -0.2733
     39 N         -21.2559   52.9578  -10.1991 N.am    1  UNL1       -0.2740
     40 C         -22.2648   53.9514   -9.7917 C.3     1  UNL1        0.1196
     41 C         -21.6939   55.3240   -9.5751 C.2     1  UNL1       -0.0089
     42 C         -20.4153   55.5075   -9.2199 C.2     1  UNL1       -0.0231
     43 C         -19.5039   54.3149   -9.1085 C.3     1  UNL1        0.0476
     44 C         -19.8244   53.2952  -10.2044 C.3     1  UNL1        0.0984
     45 C         -19.9353   56.8527   -8.8246 C.ar    1  UNL1       -0.0042
     46 C         -19.3576   57.0658   -7.5619 C.ar    1  UNL1       -0.0002
     47 C         -18.8704   58.3271   -7.2100 C.ar    1  UNL1        0.0031
     48 C         -18.9394   59.3958   -8.1193 C.ar    1  UNL1        0.0375
     49 C         -19.5330   59.1864   -9.3751 C.ar    1  UNL1        0.0031
     50 C         -20.0317   57.9281   -9.7217 C.ar    1  UNL1       -0.0002
     51 C         -18.3614   60.7115   -7.7748 C.ar    1  UNL1        0.1832
     52 N         -19.0340   61.6786   -7.1076 N.ar    1  UNL1       -0.2034
     53 C         -18.1121   62.6556   -7.0065 C.ar    1  UNL1        0.1972
     54 N         -16.9516   62.2858   -7.5704 N.ar    1  UNL1       -0.2281
     55 C         -15.7514   63.0978   -7.7086 C.3     1  UNL1        0.1556
     56 N         -17.0957   61.0734   -8.0695 N.ar    1  UNL1       -0.1484
@<TRIPOS>BOND
     1    34    35    1
     2     1    35    1
     3     1     6    1
     4     6     7    2
     5     6     8   am
     6     8    10    1
     7    10    11   ar
     8    11    12   ar
     9    12    13   ar
    10    13    14   ar
    11    14    15   ar
    12    15    16   ar
    13    16    20    1
    14    20    21   ar
    15    21    22   ar
    16    22    23   ar
    17    23    30    1
    18    30    31    1
    19    31    32    1
    20    31    33    1
    21    23    24   ar
    22    24    25   ar
    23    25    26    1
    24    26    27    2
    25    26    28    1
    26    16    17   ar
    27    17    18   ar
    28     1     2    1
    29     2     3    1
    30     3     4    1
    31     4    36    1
    32    36    37    1
    33    37    38    2
    34    37    39   am
    35    39    40    1
    36    40    41    1
    37    41    42    2
    38    42    45    1
    39    45    46   ar
    40    46    47   ar
    41    47    48   ar
    42    48    51    1
    43    51    52   ar
    44    52    53   ar
    45    53    54   ar
    46    54    55    1
    47    54    56   ar
    48    48    49   ar
    49    49    50   ar
    50    42    43    1
    51    43    44    1
    52     4     5    1
    53     5     1    1
    54    18    10   ar
    55    44    39    1
    56    17    13   ar
    57    50    45   ar
    58    25    20   ar
    59    56    51   ar
    60     8     9    1
    61    14    19    1
    62    28    29    1
