@<TRIPOS>MOLECULE
*****
 46 51 0 0 0
SMALL
GASTEIGER

@<TRIPOS>ATOM
      1 C          -7.6114  -13.8613   28.1117 C.ar    1  UNL1        0.0702
      2 C          -7.0928  -12.7693   28.8173 C.ar    1  UNL1        0.0191
      3 C          -7.8895  -12.0802   29.7330 C.ar    1  UNL1        0.0356
      4 C          -9.2219  -12.4792   29.9324 C.ar    1  UNL1        0.1318
      5 N          -9.7134  -13.5217   29.2057 N.ar    1  UNL1       -0.2279
      6 C          -8.9561  -14.2095   28.3117 C.ar    1  UNL1        0.1149
      7 N         -10.0680  -11.8134   30.8954 N.pl3   1  UNL1       -0.2932
      8 C         -10.1245  -10.3430   30.9643 C.3     1  UNL1        0.0923
      9 C         -10.4955   -9.8600   32.3792 C.3     1  UNL1        0.0252
     10 C          -9.8604  -10.7556   33.4667 C.3     1  UNL1        0.0472
     11 C         -10.3308  -12.2303   33.3183 C.3     1  UNL1        0.0252
     12 C         -10.8093  -12.5860   31.9007 C.3     1  UNL1        0.0923
     13 C          -8.3214  -10.6067   33.4696 C.3     1  UNL1        0.2054
     14 O          -7.9321   -9.2304   33.4942 O.3     1  UNL1       -0.4755
     15 C          -6.9429   -8.6217   32.6994 C.ar    1  UNL1        0.1388
     16 C          -6.1623   -7.5307   33.1333 C.ar    1  UNL1        0.0369
     17 C          -5.1987   -6.9749   32.2900 C.ar    1  UNL1        0.0033
     18 C          -4.9987   -7.4947   31.0102 C.ar    1  UNL1        0.0066
     19 C          -5.7676   -8.5799   30.5568 C.ar    1  UNL1        0.0785
     20 C          -6.7375   -9.1336   31.4114 C.ar    1  UNL1        0.0433
     21 C          -5.5632   -9.1344   29.2002 C.2     1  UNL1        0.3381
     22 O          -4.4956   -9.7405   28.9120 O.2     1  UNL1       -0.2451
     23 O          -6.5494   -8.9920   28.2274 O.3     1  UNL1       -0.4771
     24 H          -6.4194   -9.3678   27.2957 H       1  UNL1        0.2954
     25 C          -7.2022  -14.9001   25.8334 C.2     1  UNL1        0.2839
     26 O          -8.4186  -14.8239   25.5118 O.2     1  UNL1       -0.2665
     27 N          -6.7830  -14.5567   27.1643 N.am    1  UNL1       -0.2766
     28 H          -5.8558  -14.9094   27.4937 H       1  UNL1        0.1553
     29 C          -4.8394  -16.9998   26.3611 C.3     1  UNL1        0.0345
     30 C          -5.1774  -16.2988   25.0798 C.ar    1  UNL1        0.0202
     31 C          -6.2099  -15.3816   24.8538 C.ar    1  UNL1        0.1946
     32 O          -6.1913  -14.9811   23.5949 O.2     1  UNL1       -0.4492
     33 C          -5.1994  -15.5906   22.9929 C.ar    1  UNL1        0.1452
     34 C          -4.8152  -15.4659   21.6625 C.ar    1  UNL1        0.0375
     35 C          -3.7143  -16.2194   21.2198 C.ar    1  UNL1        0.0031
     36 C          -3.0170  -17.0817   22.1086 C.ar    1  UNL1        0.0002
     37 C          -3.4404  -17.1790   23.4559 C.ar    1  UNL1        0.0028
     38 C          -4.5370  -16.4165   23.8610 C.ar    1  UNL1        0.0337
     39 C          -1.8554  -17.8730   21.6295 C.ar    1  UNL1        0.0000
     40 C          -1.6915  -19.2142   22.0240 C.ar    1  UNL1        0.0005
     41 C          -0.5966  -19.9571   21.5726 C.ar    1  UNL1        0.0059
     42 C           0.3464  -19.3720   20.7223 C.ar    1  UNL1        0.0215
     43 S           1.7470  -20.3255   20.1454 S.3     1  UNL1       -0.1414
     44 C           0.1938  -18.0407   20.3240 C.ar    1  UNL1        0.0059
     45 C          -0.8992  -17.2941   20.7739 C.ar    1  UNL1        0.0005
     46 H           1.0434  -20.7739   19.0119 H       1  UNL1        0.1071
@<TRIPOS>BOND
     1    29    30    1
     2    30    31   ar
     3    31    25    1
     4    25    26    2
     5    25    27   am
     6    27     1    1
     7     1     2   ar
     8     2     3   ar
     9     3     4   ar
    10     4     7    1
    11     7     8    1
    12     8     9    1
    13     9    10    1
    14    10    13    1
    15    13    14    1
    16    14    15    1
    17    15    16   ar
    18    16    17   ar
    19    17    18   ar
    20    18    19   ar
    21    19    21    1
    22    21    22    2
    23    21    23    1
    24    19    20   ar
    25    10    11    1
    26    11    12    1
    27     4     5   ar
    28     5     6   ar
    29    31    32   ar
    30    32    33   ar
    31    33    34   ar
    32    34    35   ar
    33    35    36   ar
    34    36    39    1
    35    39    40   ar
    36    40    41   ar
    37    41    42   ar
    38    42    43    1
    39    42    44   ar
    40    44    45   ar
    41    36    37   ar
    42    37    38   ar
    43    38    30   ar
    44     6     1   ar
    45    38    33   ar
    46    12     7    1
    47    45    39   ar
    48    20    15   ar
    49    27    28    1
    50    23    24    1
    51    43    46    1
@<TRIPOS>MOLECULE
*****
 46 51 0 0 0
SMALL
GASTEIGER

@<TRIPOS>ATOM
      1 C          -7.6854  -13.8757   28.1337 C.ar    1  UNL1        0.0702
      2 C          -7.1643  -12.7789   28.8300 C.ar    1  UNL1        0.0191
      3 C          -7.9528  -12.0930   29.7552 C.ar    1  UNL1        0.0356
      4 C          -9.2797  -12.5002   29.9737 C.ar    1  UNL1        0.1318
      5 N          -9.7743  -13.5474   29.2560 N.ar    1  UNL1       -0.2279
      6 C          -9.0250  -14.2321   28.3530 C.ar    1  UNL1        0.1149
      7 N         -10.1168  -11.8379   30.9470 N.pl3   1  UNL1       -0.2932
      8 C         -10.1908  -10.3679   31.0061 C.3     1  UNL1        0.0923
      9 C         -10.5425   -9.8788   32.4239 C.3     1  UNL1        0.0252
     10 C          -9.8764  -10.7581   33.5063 C.3     1  UNL1        0.0472
     11 C         -10.3303  -12.2397   33.3773 C.3     1  UNL1        0.0252
     12 C         -10.8298  -12.6122   31.9712 C.3     1  UNL1        0.0923
     13 C          -8.3396  -10.5896   33.4802 C.3     1  UNL1        0.2054
     14 O          -7.9682   -9.2083   33.4563 O.3     1  UNL1       -0.4755
     15 C          -7.2384   -8.5508   32.4483 C.ar    1  UNL1        0.1388
     16 C          -6.0074   -9.0229   31.9489 C.ar    1  UNL1        0.0369
     17 C          -5.3367   -8.3177   30.9481 C.ar    1  UNL1        0.0033
     18 C          -5.8790   -7.1395   30.4324 C.ar    1  UNL1        0.0066
     19 C          -7.1034   -6.6500   30.9178 C.ar    1  UNL1        0.0785
     20 C          -7.7725   -7.3649   31.9271 C.ar    1  UNL1        0.0433
     21 C          -7.6831   -5.4001   30.3780 C.2     1  UNL1        0.3381
     22 O          -8.8538   -5.3891   29.9096 O.2     1  UNL1       -0.2451
     23 O          -6.9401   -4.2223   30.3822 O.3     1  UNL1       -0.4771
     24 H          -7.3276   -3.3613   30.0150 H       1  UNL1        0.2954
     25 C          -7.2784  -14.8617   25.8318 C.2     1  UNL1        0.2839
     26 O          -8.4883  -14.7420   25.4989 O.2     1  UNL1       -0.2665
     27 N          -6.8657  -14.5677   27.1764 N.am    1  UNL1       -0.2766
     28 H          -5.9528  -14.9556   27.5060 H       1  UNL1        0.1553
     29 C          -4.8654  -16.8997   26.3742 C.3     1  UNL1        0.0345
     30 C          -5.2341  -16.2340   25.0825 C.ar    1  UNL1        0.0202
     31 C          -6.2884  -15.3437   24.8501 C.ar    1  UNL1        0.1946
     32 O          -6.2939  -14.9705   23.5827 O.2     1  UNL1       -0.4492
     33 C          -5.2970  -15.5722   22.9812 C.ar    1  UNL1        0.1452
     34 C          -4.9321  -15.4686   21.6436 C.ar    1  UNL1        0.0375
     35 C          -3.8211  -16.2085   21.2032 C.ar    1  UNL1        0.0031
     36 C          -3.0948  -17.0365   22.1013 C.ar    1  UNL1        0.0002
     37 C          -3.4993  -17.1132   23.4557 C.ar    1  UNL1        0.0028
     38 C          -4.6066  -16.3650   23.8584 C.ar    1  UNL1        0.0337
     39 C          -1.9227  -17.8137   21.6245 C.ar    1  UNL1        0.0000
     40 C          -0.9591  -17.2162   20.7905 C.ar    1  UNL1        0.0005
     41 C           0.1430  -17.9500   20.3419 C.ar    1  UNL1        0.0059
     42 C           0.2977  -19.2870   20.7204 C.ar    1  UNL1        0.0215
     43 S           1.7100  -20.2241   20.1452 S.3     1  UNL1       -0.1414
     44 C          -0.6531  -19.8907   21.5486 C.ar    1  UNL1        0.0059
     45 C          -1.7573  -19.1606   21.9985 C.ar    1  UNL1        0.0005
     46 H           2.4819  -19.8475   21.2602 H       1  UNL1        0.1071
@<TRIPOS>BOND
     1    29    30    1
     2    30    31   ar
     3    31    25    1
     4    25    26    2
     5    25    27   am
     6    27     1    1
     7     1     2   ar
     8     2     3   ar
     9     3     4   ar
    10     4     7    1
    11     7     8    1
    12     8     9    1
    13     9    10    1
    14    10    13    1
    15    13    14    1
    16    14    15    1
    17    15    16   ar
    18    16    17   ar
    19    17    18   ar
    20    18    19   ar
    21    19    21    1
    22    21    22    2
    23    21    23    1
    24    19    20   ar
    25    10    11    1
    26    11    12    1
    27     4     5   ar
    28     5     6   ar
    29    31    32   ar
    30    32    33   ar
    31    33    34   ar
    32    34    35   ar
    33    35    36   ar
    34    36    39    1
    35    39    40   ar
    36    40    41   ar
    37    41    42   ar
    38    42    43    1
    39    42    44   ar
    40    44    45   ar
    41    36    37   ar
    42    37    38   ar
    43    38    30   ar
    44     6     1   ar
    45    38    33   ar
    46    12     7    1
    47    45    39   ar
    48    20    15   ar
    49    27    28    1
    50    23    24    1
    51    43    46    1
@<TRIPOS>MOLECULE
*****
 46 51 0 0 0
SMALL
GASTEIGER

@<TRIPOS>ATOM
      1 C          -7.7145  -13.5785   28.4411 C.ar    1  UNL1        0.0702
      2 C          -7.2271  -12.4727   29.1474 C.ar    1  UNL1        0.0191
      3 C          -8.0416  -11.8095   30.0666 C.ar    1  UNL1        0.0356
      4 C          -9.3608  -12.2488   30.2689 C.ar    1  UNL1        0.1318
      5 N          -9.8227  -13.3043   29.5416 N.ar    1  UNL1       -0.2279
      6 C          -9.0476  -13.9673   28.6442 C.ar    1  UNL1        0.1149
      7 N         -10.2238  -11.6106   31.2355 N.pl3   1  UNL1       -0.2932
      8 C         -11.6699  -11.4782   30.9878 C.3     1  UNL1        0.0923
      9 C         -12.2581  -10.2608   31.7260 C.3     1  UNL1        0.0252
     10 C         -11.2678   -9.0744   31.7374 C.3     1  UNL1        0.0472
     11 C          -9.9352   -9.4681   32.4353 C.3     1  UNL1        0.0252
     12 C          -9.6637  -10.9818   32.4388 C.3     1  UNL1        0.0923
     13 C         -11.0637   -8.5168   30.3098 C.3     1  UNL1        0.2054
     14 O         -10.4926   -7.2057   30.3403 O.3     1  UNL1       -0.4755
     15 C          -9.1277   -6.8799   30.2312 C.ar    1  UNL1        0.1388
     16 C          -8.6053   -5.6105   30.5531 C.ar    1  UNL1        0.0369
     17 C          -7.2391   -5.3569   30.4192 C.ar    1  UNL1        0.0033
     18 C          -6.3780   -6.3577   29.9664 C.ar    1  UNL1        0.0066
     19 C          -6.8782   -7.6290   29.6375 C.ar    1  UNL1        0.0785
     20 C          -8.2557   -7.8766   29.7735 C.ar    1  UNL1        0.0433
     21 C          -5.9717   -8.6940   29.1541 C.2     1  UNL1        0.3381
     22 O          -5.0876   -9.1741   29.9142 O.2     1  UNL1       -0.2451
     23 O          -6.0869   -9.1770   27.8531 O.3     1  UNL1       -0.4771
     24 H          -5.4713   -9.9059   27.5122 H       1  UNL1        0.2954
     25 C          -7.3366  -14.7957   26.2474 C.2     1  UNL1        0.2839
     26 O          -8.5722  -14.9357   26.0412 O.2     1  UNL1       -0.2665
     27 N          -6.8683  -14.2469   27.4901 N.am    1  UNL1       -0.2766
     28 H          -5.8734  -14.4202   27.7598 H       1  UNL1        0.1553
     29 C          -5.0136  -16.9733   26.6112 C.3     1  UNL1        0.0345
     30 C          -5.3501  -16.1844   25.3817 C.ar    1  UNL1        0.0202
     31 C          -6.3651  -15.2335   25.2272 C.ar    1  UNL1        0.1946
     32 O          -6.3511  -14.7532   23.9964 O.2     1  UNL1       -0.4492
     33 C          -5.3789  -15.3430   23.3449 C.ar    1  UNL1        0.1452
     34 C          -5.0061  -15.1408   22.0207 C.ar    1  UNL1        0.0375
     35 C          -3.9262  -15.8868   21.5177 C.ar    1  UNL1        0.0031
     36 C          -3.2382  -16.8187   22.3410 C.ar    1  UNL1        0.0002
     37 C          -3.6494  -16.9939   23.6841 C.ar    1  UNL1        0.0028
     38 C          -4.7252  -16.2366   24.1503 C.ar    1  UNL1        0.0337
     39 C          -2.0988  -17.6013   21.7984 C.ar    1  UNL1        0.0000
     40 C          -1.1473  -16.9919   20.9590 C.ar    1  UNL1        0.0005
     41 C          -0.0759  -17.7308   20.4484 C.ar    1  UNL1        0.0059
     42 C           0.0598  -19.0847   20.7697 C.ar    1  UNL1        0.0215
     43 S           1.4327  -20.0282   20.1151 S.3     1  UNL1       -0.1414
     44 C          -0.8791  -19.7003   21.6025 C.ar    1  UNL1        0.0059
     45 C          -1.9526  -18.9652   22.1144 C.ar    1  UNL1        0.0005
     46 H           2.2460  -19.7126   21.2196 H       1  UNL1        0.1071
@<TRIPOS>BOND
     1    29    30    1
     2    30    31   ar
     3    31    25    1
     4    25    26    2
     5    25    27   am
     6    27     1    1
     7     1     2   ar
     8     2     3   ar
     9     3     4   ar
    10     4     7    1
    11     7     8    1
    12     8     9    1
    13     9    10    1
    14    10    13    1
    15    13    14    1
    16    14    15    1
    17    15    16   ar
    18    16    17   ar
    19    17    18   ar
    20    18    19   ar
    21    19    21    1
    22    21    22    2
    23    21    23    1
    24    19    20   ar
    25    10    11    1
    26    11    12    1
    27     4     5   ar
    28     5     6   ar
    29    31    32   ar
    30    32    33   ar
    31    33    34   ar
    32    34    35   ar
    33    35    36   ar
    34    36    39    1
    35    39    40   ar
    36    40    41   ar
    37    41    42   ar
    38    42    43    1
    39    42    44   ar
    40    44    45   ar
    41    36    37   ar
    42    37    38   ar
    43    38    30   ar
    44     6     1   ar
    45    38    33   ar
    46    12     7    1
    47    45    39   ar
    48    20    15   ar
    49    27    28    1
    50    23    24    1
    51    43    46    1
