@<TRIPOS>MOLECULE
*****
 34 38 0 0 0
SMALL
GASTEIGER

@<TRIPOS>ATOM
      1 C          47.0005   12.6762  -22.7208 C.2     1  UNL1        0.3045
      2 O          47.1770   13.8577  -22.3169 O.2     1  UNL1       -0.2647
      3 N          47.4898   11.5681  -21.9300 N.am    1  UNL1       -0.2720
      4 C          47.8052   11.7541  -20.5047 C.3     1  UNL1        0.0976
      5 C          49.2656   11.3665  -20.2071 C.3     1  UNL1        0.0651
      6 C          49.8054   10.2328  -21.1111 C.3     1  UNL1        0.1693
      7 C          48.6523    9.3804  -21.6729 C.3     1  UNL1        0.0651
      8 C          47.7199   10.2447  -22.5353 C.3     1  UNL1        0.0976
      9 C          45.8848   12.2476  -26.0320 C.ar    1  UNL1        0.2501
     10 N          44.7014   12.1607  -25.3934 N.ar    1  UNL1       -0.1068
     11 N          44.9626   12.3078  -24.1038 N.ar    1  UNL1       -0.1021
     12 C          46.2948   12.4810  -24.0022 C.ar    1  UNL1        0.3042
     13 O          46.8647   12.4411  -25.1821 O.2     1  UNL1       -0.4122
     14 C          46.3817   11.9598  -30.2880 C.ar    1  UNL1        0.1387
     15 C          45.9817   13.1638  -29.6976 C.ar    1  UNL1        0.0371
     16 C          45.8208   13.2576  -28.3123 C.ar    1  UNL1        0.0078
     17 C          46.0590   12.1428  -27.4933 C.ar    1  UNL1        0.0553
     18 C          46.4604   10.9330  -28.0827 C.ar    1  UNL1        0.0078
     19 C          46.6211   10.8404  -29.4687 C.ar    1  UNL1        0.0371
     20 C          45.9418   12.8533  -32.5811 C.3     1  UNL1        0.2525
     21 O          46.5286   11.9175  -31.6824 O.3     1  UNL1       -0.4714
     22 O          50.5587   10.8143  -22.1812 O.3     1  UNL1       -0.4791
     23 C          50.4913   10.4418  -23.5335 C.ar    1  UNL1        0.1384
     24 C          50.0913   11.4091  -24.4626 C.ar    1  UNL1        0.0366
     25 C          49.9959   11.0952  -25.8208 C.ar    1  UNL1        0.0002
     26 C          50.3135    9.8062  -26.2726 C.ar    1  UNL1       -0.0059
     27 C          50.7162    8.8328  -25.3459 C.ar    1  UNL1        0.0002
     28 C          50.8111    9.1472  -23.9869 C.ar    1  UNL1        0.0366
     29 C          50.1683    9.4611  -27.7310 C.3     1  UNL1        0.0991
     30 N          51.4241    8.8853  -28.2484 N.3     1  UNL1       -0.2690
     31 C          51.2164    8.2029  -29.5277 C.3     1  UNL1        0.0724
     32 C          52.5517    8.2223  -30.2542 C.3     1  UNL1        0.0188
     33 C          53.3471    9.3445  -29.6065 C.3     1  UNL1        0.0188
     34 C          52.4440    9.9050  -28.5184 C.3     1  UNL1        0.0724
@<TRIPOS>BOND
     1    20    21    1
     2    21    14    1
     3    14    15   ar
     4    15    16   ar
     5    16    17   ar
     6    17     9    1
     7     9    10   ar
     8    10    11   ar
     9    11    12   ar
    10    12     1    1
    11     1     2    2
    12     1     3   am
    13     3     4    1
    14     4     5    1
    15     5     6    1
    16     6    22    1
    17    22    23    1
    18    23    24   ar
    19    24    25   ar
    20    25    26   ar
    21    26    29    1
    22    29    30    1
    23    30    31    1
    24    31    32    1
    25    32    33    1
    26    33    34    1
    27    26    27   ar
    28    27    28   ar
    29     6     7    1
    30     7     8    1
    31    12    13   ar
    32    17    18   ar
    33    18    19   ar
    34    19    14   ar
    35    13     9   ar
    36     8     3    1
    37    28    23   ar
    38    34    30    1
@<TRIPOS>MOLECULE
*****
 34 38 0 0 0
SMALL
GASTEIGER

@<TRIPOS>ATOM
      1 C          46.9739   12.8455  -22.9647 C.2     1  UNL1        0.3045
      2 O          47.1631   14.0588  -22.6782 O.2     1  UNL1       -0.2647
      3 N          47.4340   11.8154  -22.0591 N.am    1  UNL1       -0.2720
      4 C          47.7313   12.1389  -20.6547 C.3     1  UNL1        0.0976
      5 C          49.1809   11.7622  -20.2963 C.3     1  UNL1        0.0651
      6 C          49.7159   10.5361  -21.0735 C.3     1  UNL1        0.1693
      7 C          48.5578    9.6481  -21.5657 C.3     1  UNL1        0.0651
      8 C          47.6519   10.4348  -22.5253 C.3     1  UNL1        0.0976
      9 C          45.8792   12.2198  -26.2514 C.ar    1  UNL1        0.2501
     10 N          44.7339   11.9609  -25.5904 N.ar    1  UNL1       -0.1068
     11 N          44.9919   12.1587  -24.3071 N.ar    1  UNL1       -0.1021
     12 C          46.2840   12.5328  -24.2314 C.ar    1  UNL1        0.3042
     13 O          46.8329   12.5680  -25.4213 O.2     1  UNL1       -0.4122
     14 C          46.3436   11.9702  -30.5135 C.ar    1  UNL1        0.1387
     15 C          45.9658   13.1737  -29.9077 C.ar    1  UNL1        0.0371
     16 C          45.8155   13.2550  -28.5204 C.ar    1  UNL1        0.0078
     17 C          46.0422   12.1280  -27.7149 C.ar    1  UNL1        0.0553
     18 C          46.4213   10.9187  -28.3199 C.ar    1  UNL1        0.0078
     19 C          46.5715   10.8385  -29.7078 C.ar    1  UNL1        0.0371
     20 C          45.9262   12.9107  -32.7920 C.3     1  UNL1        0.2525
     21 O          46.4806   11.9406  -31.9093 O.3     1  UNL1       -0.4714
     22 O          50.4939   10.9965  -22.1840 O.3     1  UNL1       -0.4791
     23 C          50.5885   12.3250  -22.6293 C.ar    1  UNL1        0.1384
     24 C          50.2742   12.5940  -23.9664 C.ar    1  UNL1        0.0366
     25 C          50.3592   13.8947  -24.4698 C.ar    1  UNL1        0.0002
     26 C          50.7492   14.9519  -23.6352 C.ar    1  UNL1       -0.0059
     27 C          51.0643   14.6882  -22.2936 C.ar    1  UNL1        0.0002
     28 C          50.9796   13.3866  -21.7904 C.ar    1  UNL1        0.0366
     29 C          50.8801   16.3443  -24.1929 C.3     1  UNL1        0.0991
     30 N          49.9172   16.5484  -25.2918 N.3     1  UNL1       -0.2690
     31 C          48.6330   17.0487  -24.7960 C.3     1  UNL1        0.0724
     32 C          47.9852   17.8026  -25.9464 C.3     1  UNL1        0.0188
     33 C          49.1226   18.1454  -26.8952 C.3     1  UNL1        0.0188
     34 C          50.3713   17.5513  -26.2617 C.3     1  UNL1        0.0724
@<TRIPOS>BOND
     1    20    21    1
     2    21    14    1
     3    14    15   ar
     4    15    16   ar
     5    16    17   ar
     6    17     9    1
     7     9    10   ar
     8    10    11   ar
     9    11    12   ar
    10    12     1    1
    11     1     2    2
    12     1     3   am
    13     3     4    1
    14     4     5    1
    15     5     6    1
    16     6    22    1
    17    22    23    1
    18    23    24   ar
    19    24    25   ar
    20    25    26   ar
    21    26    29    1
    22    29    30    1
    23    30    31    1
    24    31    32    1
    25    32    33    1
    26    33    34    1
    27    26    27   ar
    28    27    28   ar
    29     6     7    1
    30     7     8    1
    31    12    13   ar
    32    17    18   ar
    33    18    19   ar
    34    19    14   ar
    35    13     9   ar
    36     8     3    1
    37    28    23   ar
    38    34    30    1
@<TRIPOS>MOLECULE
*****
 34 38 0 0 0
SMALL
GASTEIGER

@<TRIPOS>ATOM
      1 C          52.7352   11.5047  -24.7730 C.2     1  UNL1        0.3045
      2 O          53.2768   10.7069  -23.9604 O.2     1  UNL1       -0.2647
      3 N          52.3233   12.8163  -24.3225 N.am    1  UNL1       -0.2720
      4 C          52.8827   13.3875  -23.0872 C.3     1  UNL1        0.0976
      5 C          51.7657   13.7459  -22.0893 C.3     1  UNL1        0.0651
      6 C          50.4420   14.1763  -22.7648 C.3     1  UNL1        0.1693
      7 C          50.6961   14.6974  -24.1917 C.3     1  UNL1        0.0651
      8 C          51.3124   13.5918  -25.0624 C.3     1  UNL1        0.0976
      9 C          51.8477   10.0421  -27.8496 C.ar    1  UNL1        0.2501
     10 N          52.7791   10.9125  -28.2861 N.ar    1  UNL1       -0.1068
     11 N          53.2198   11.5542  -27.2152 N.ar    1  UNL1       -0.1021
     12 C          52.5432   11.0512  -26.1643 C.ar    1  UNL1        0.3042
     13 O          51.6981   10.1261  -26.5494 O.2     1  UNL1       -0.4122
     14 C          49.6743    7.3408  -30.3839 C.ar    1  UNL1        0.1387
     15 C          51.0290    7.6020  -30.6176 C.ar    1  UNL1        0.0371
     16 C          51.7366    8.4806  -29.7921 C.ar    1  UNL1        0.0078
     17 C          51.0960    9.1137  -28.7155 C.ar    1  UNL1        0.0553
     18 C          49.7364    8.8537  -28.4785 C.ar    1  UNL1        0.0078
     19 C          49.0297    7.9746  -29.3048 C.ar    1  UNL1        0.0371
     20 C          49.4046    6.1807  -32.5820 C.3     1  UNL1        0.2525
     21 O          49.0093    6.4516  -31.2411 O.3     1  UNL1       -0.4714
     22 O          49.5540   13.0534  -22.7982 O.3     1  UNL1       -0.4791
     23 C          48.6082   12.7804  -23.7998 C.ar    1  UNL1        0.1384
     24 C          48.8827   11.7427  -24.6979 C.ar    1  UNL1        0.0366
     25 C          47.9842   11.4308  -25.7215 C.ar    1  UNL1        0.0002
     26 C          46.7864   12.1478  -25.8538 C.ar    1  UNL1       -0.0059
     27 C          46.5054   13.1885  -24.9556 C.ar    1  UNL1        0.0002
     28 C          47.4048   13.5004  -23.9318 C.ar    1  UNL1        0.0366
     29 C          45.8415   11.8360  -26.9839 C.3     1  UNL1        0.0991
     30 N          46.5581   11.8646  -28.2731 N.3     1  UNL1       -0.2690
     31 C          46.5146   10.5622  -28.9420 C.3     1  UNL1        0.0724
     32 C          46.6766   10.8304  -30.4297 C.3     1  UNL1        0.0188
     33 C          46.3014   12.2915  -30.6194 C.3     1  UNL1        0.0188
     34 C          45.9646   12.8068  -29.2284 C.3     1  UNL1        0.0724
@<TRIPOS>BOND
     1    20    21    1
     2    21    14    1
     3    14    15   ar
     4    15    16   ar
     5    16    17   ar
     6    17     9    1
     7     9    10   ar
     8    10    11   ar
     9    11    12   ar
    10    12     1    1
    11     1     2    2
    12     1     3   am
    13     3     4    1
    14     4     5    1
    15     5     6    1
    16     6    22    1
    17    22    23    1
    18    23    24   ar
    19    24    25   ar
    20    25    26   ar
    21    26    29    1
    22    29    30    1
    23    30    31    1
    24    31    32    1
    25    32    33    1
    26    33    34    1
    27    26    27   ar
    28    27    28   ar
    29     6     7    1
    30     7     8    1
    31    12    13   ar
    32    17    18   ar
    33    18    19   ar
    34    19    14   ar
    35    13     9   ar
    36     8     3    1
    37    28    23   ar
    38    34    30    1
@<TRIPOS>MOLECULE
*****
 34 38 0 0 0
SMALL
GASTEIGER

@<TRIPOS>ATOM
      1 C          49.7447    9.6774  -22.8066 C.2     1  UNL1        0.3045
      2 O          49.4338    8.5387  -22.3631 O.2     1  UNL1       -0.2647
      3 N          49.2376   10.8639  -22.1525 N.am    1  UNL1       -0.2720
      4 C          48.7284   10.7925  -20.7737 C.3     1  UNL1        0.0976
      5 C          47.2731   11.2904  -20.6961 C.3     1  UNL1        0.0651
      6 C          46.9368   12.3938  -21.7271 C.3     1  UNL1        0.1693
      7 C          48.2107   13.1329  -22.1778 C.3     1  UNL1        0.0651
      8 C          49.1826   12.1564  -22.8576 C.3     1  UNL1        0.0976
      9 C          51.3623    9.5624  -25.9312 C.ar    1  UNL1        0.2501
     10 N          52.3290   10.1640  -25.2106 N.ar    1  UNL1       -0.1068
     11 N          51.8579   10.2795  -23.9788 N.ar    1  UNL1       -0.1021
     12 C          50.6221    9.7429  -23.9915 C.ar    1  UNL1        0.3042
     13 O          50.3129    9.3051  -25.1879 O.2     1  UNL1       -0.4122
     14 C          51.6842    8.6139  -30.1073 C.ar    1  UNL1        0.1387
     15 C          52.7304    9.2626  -29.4417 C.ar    1  UNL1        0.0371
     16 C          52.6258    9.5705  -28.0823 C.ar    1  UNL1        0.0078
     17 C          51.4675    9.2322  -27.3653 C.ar    1  UNL1        0.0553
     18 C          50.4158    8.5813  -28.0304 C.ar    1  UNL1        0.0078
     19 C          50.5215    8.2737  -29.3903 C.ar    1  UNL1        0.0371
     20 C          51.8569    7.0133  -32.0200 C.3     1  UNL1        0.2525
     21 O          51.8382    8.3274  -31.4718 O.3     1  UNL1       -0.4714
     22 O          46.2886   11.7919  -22.8531 O.3     1  UNL1       -0.4791
     23 C          46.2587   12.3072  -24.1592 C.ar    1  UNL1        0.1384
     24 C          47.0546   11.6868  -25.1289 C.ar    1  UNL1        0.0366
     25 C          47.0742   12.1605  -26.4433 C.ar    1  UNL1        0.0002
     26 C          46.2840   13.2591  -26.8108 C.ar    1  UNL1       -0.0059
     27 C          45.4833   13.8843  -25.8431 C.ar    1  UNL1        0.0002
     28 C          45.4643   13.4102  -24.5280 C.ar    1  UNL1        0.0366
     29 C          46.3409   13.7920  -28.2180 C.3     1  UNL1        0.0991
     30 N          45.8039   12.7962  -29.1647 N.3     1  UNL1       -0.2690
     31 C          45.6829   13.3487  -30.5158 C.3     1  UNL1        0.0724
     32 C          45.7554   12.1724  -31.4762 C.3     1  UNL1        0.0188
     33 C          46.4183   11.0515  -30.6916 C.3     1  UNL1        0.0188
     34 C          46.6750   11.6240  -29.3060 C.3     1  UNL1        0.0724
@<TRIPOS>BOND
     1    20    21    1
     2    21    14    1
     3    14    15   ar
     4    15    16   ar
     5    16    17   ar
     6    17     9    1
     7     9    10   ar
     8    10    11   ar
     9    11    12   ar
    10    12     1    1
    11     1     2    2
    12     1     3   am
    13     3     4    1
    14     4     5    1
    15     5     6    1
    16     6    22    1
    17    22    23    1
    18    23    24   ar
    19    24    25   ar
    20    25    26   ar
    21    26    29    1
    22    29    30    1
    23    30    31    1
    24    31    32    1
    25    32    33    1
    26    33    34    1
    27    26    27   ar
    28    27    28   ar
    29     6     7    1
    30     7     8    1
    31    12    13   ar
    32    17    18   ar
    33    18    19   ar
    34    19    14   ar
    35    13     9   ar
    36     8     3    1
    37    28    23   ar
    38    34    30    1
@<TRIPOS>MOLECULE
*****
 34 38 0 0 0
SMALL
GASTEIGER

@<TRIPOS>ATOM
      1 C          51.7082   12.7502  -24.1263 C.2     1  UNL1        0.3045
      2 O          52.0014   12.2205  -23.0201 O.2     1  UNL1       -0.2647
      3 N          50.9738   13.9963  -24.1516 N.am    1  UNL1       -0.2720
      4 C          50.9269   14.8558  -22.9581 C.3     1  UNL1        0.0976
      5 C          49.4731   15.1149  -22.5211 C.3     1  UNL1        0.0651
      6 C          48.4657   15.1437  -23.6950 C.3     1  UNL1        0.1693
      7 C          49.1740   15.4830  -25.0200 C.3     1  UNL1        0.0651
      8 C          50.2278   14.4152  -25.3511 C.3     1  UNL1        0.0976
      9 C          52.1722   10.8126  -27.0285 C.ar    1  UNL1        0.2501
     10 N          53.3313   11.4996  -27.0411 N.ar    1  UNL1       -0.1068
     11 N          53.3058   12.2922  -25.9810 N.ar    1  UNL1       -0.1021
     12 C          52.1336   12.0591  -25.3590 C.ar    1  UNL1        0.3042
     13 O          51.4337   11.1549  -26.0002 O.2     1  UNL1       -0.4122
     14 C          51.0551    7.8869  -29.9672 C.ar    1  UNL1        0.1387
     15 C          52.3352    8.4523  -29.9761 C.ar    1  UNL1        0.0371
     16 C          52.6989    9.4039  -29.0190 C.ar    1  UNL1        0.0078
     17 C          51.7830    9.8057  -28.0342 C.ar    1  UNL1        0.0553
     18 C          50.4975    9.2403  -28.0228 C.ar    1  UNL1        0.0078
     19 C          50.1348    8.2884  -28.9806 C.ar    1  UNL1        0.0371
     20 C          51.3848    6.8439  -32.2152 C.3     1  UNL1        0.2525
     21 O          50.7393    6.9364  -30.9494 O.3     1  UNL1       -0.4714
     22 O          47.8275   13.8653  -23.7876 O.3     1  UNL1       -0.4791
     23 C          47.4977   13.1931  -24.9757 C.ar    1  UNL1        0.1384
     24 C          46.3941   13.6503  -25.7050 C.ar    1  UNL1        0.0366
     25 C          46.0114   13.0161  -26.8898 C.ar    1  UNL1        0.0002
     26 C          46.7388   11.9179  -27.3707 C.ar    1  UNL1       -0.0059
     27 C          47.8467   11.4558  -26.6443 C.ar    1  UNL1        0.0002
     28 C          48.2290   12.0905  -25.4587 C.ar    1  UNL1        0.0366
     29 C          46.2972   11.2116  -28.6250 C.3     1  UNL1        0.0991
     30 N          46.6090   12.0316  -29.8111 N.3     1  UNL1       -0.2690
     31 C          46.5030   11.2525  -31.0469 C.3     1  UNL1        0.0724
     32 C          46.2062   12.2420  -32.1622 C.3     1  UNL1        0.0188
     33 C          45.6522   13.4766  -31.4692 C.3     1  UNL1        0.0188
     34 C          45.6785   13.1528  -29.9832 C.3     1  UNL1        0.0724
@<TRIPOS>BOND
     1    20    21    1
     2    21    14    1
     3    14    15   ar
     4    15    16   ar
     5    16    17   ar
     6    17     9    1
     7     9    10   ar
     8    10    11   ar
     9    11    12   ar
    10    12     1    1
    11     1     2    2
    12     1     3   am
    13     3     4    1
    14     4     5    1
    15     5     6    1
    16     6    22    1
    17    22    23    1
    18    23    24   ar
    19    24    25   ar
    20    25    26   ar
    21    26    29    1
    22    29    30    1
    23    30    31    1
    24    31    32    1
    25    32    33    1
    26    33    34    1
    27    26    27   ar
    28    27    28   ar
    29     6     7    1
    30     7     8    1
    31    12    13   ar
    32    17    18   ar
    33    18    19   ar
    34    19    14   ar
    35    13     9   ar
    36     8     3    1
    37    28    23   ar
    38    34    30    1
@<TRIPOS>MOLECULE
*****
 34 38 0 0 0
SMALL
GASTEIGER

@<TRIPOS>ATOM
      1 C          49.4233   12.0678  -25.3974 C.2     1  UNL1        0.3045
      2 O          50.1686   12.6026  -24.5323 O.2     1  UNL1       -0.2647
      3 N          48.1013   12.6052  -25.6348 N.am    1  UNL1       -0.2720
      4 C          47.7682   13.9742  -25.2104 C.3     1  UNL1        0.0976
      5 C          46.5557   13.9783  -24.2608 C.3     1  UNL1        0.0651
      6 C          45.5382   12.8481  -24.5455 C.3     1  UNL1        0.1693
      7 C          45.6500   12.3607  -26.0021 C.3     1  UNL1        0.0651
      8 C          47.0509   11.7888  -26.2681 C.3     1  UNL1        0.0976
      9 C          50.2708    9.4567  -27.6012 C.ar    1  UNL1        0.2501
     10 N          51.1110    9.1651  -26.5890 N.ar    1  UNL1       -0.1068
     11 N          50.9045   10.0828  -25.6574 N.ar    1  UNL1       -0.1021
     12 C          49.9448   10.8998  -26.1336 C.ar    1  UNL1        0.3042
     13 O          49.5560   10.5215  -27.3270 O.2     1  UNL1       -0.4122
     14 C          49.9389    7.1991  -31.2393 C.ar    1  UNL1        0.1387
     15 C          48.7977    7.7137  -30.6141 C.ar    1  UNL1        0.0371
     16 C          48.9059    8.4493  -29.4304 C.ar    1  UNL1        0.0078
     17 C          50.1635    8.6819  -28.8522 C.ar    1  UNL1        0.0553
     18 C          51.3107    8.1665  -29.4771 C.ar    1  UNL1        0.0078
     19 C          51.2013    7.4310  -30.6612 C.ar    1  UNL1        0.0371
     20 C          48.5222    6.0183  -32.9272 C.3     1  UNL1        0.2525
     21 O          49.7767    6.4675  -32.4252 O.3     1  UNL1       -0.4714
     22 O          45.7845   11.7660  -23.6405 O.3     1  UNL1       -0.4791
     23 C          46.7614   11.7415  -22.6320 C.ar    1  UNL1        0.1384
     24 C          47.7701   10.7751  -22.7173 C.ar    1  UNL1        0.0366
     25 C          48.7641   10.6951  -21.7385 C.ar    1  UNL1        0.0002
     26 C          48.7701   11.5936  -20.6619 C.ar    1  UNL1       -0.0059
     27 C          47.7620   12.5653  -20.5718 C.ar    1  UNL1        0.0002
     28 C          46.7675   12.6447  -21.5512 C.ar    1  UNL1        0.0366
     29 C          49.8185   11.4763  -19.5875 C.3     1  UNL1        0.0991
     30 N          51.1001   12.0341  -20.0595 N.3     1  UNL1       -0.2690
     31 C          50.8950   13.0676  -21.0770 C.3     1  UNL1        0.0724
     32 C          52.1109   13.9787  -21.0245 C.3     1  UNL1        0.0188
     33 C          52.7296   13.7470  -19.6552 C.3     1  UNL1        0.0188
     34 C          51.8572   12.6936  -18.9897 C.3     1  UNL1        0.0724
@<TRIPOS>BOND
     1    20    21    1
     2    21    14    1
     3    14    15   ar
     4    15    16   ar
     5    16    17   ar
     6    17     9    1
     7     9    10   ar
     8    10    11   ar
     9    11    12   ar
    10    12     1    1
    11     1     2    2
    12     1     3   am
    13     3     4    1
    14     4     5    1
    15     5     6    1
    16     6    22    1
    17    22    23    1
    18    23    24   ar
    19    24    25   ar
    20    25    26   ar
    21    26    29    1
    22    29    30    1
    23    30    31    1
    24    31    32    1
    25    32    33    1
    26    33    34    1
    27    26    27   ar
    28    27    28   ar
    29     6     7    1
    30     7     8    1
    31    12    13   ar
    32    17    18   ar
    33    18    19   ar
    34    19    14   ar
    35    13     9   ar
    36     8     3    1
    37    28    23   ar
    38    34    30    1
@<TRIPOS>MOLECULE
*****
 34 38 0 0 0
SMALL
GASTEIGER

@<TRIPOS>ATOM
      1 C          48.5390   11.7933  -25.1160 C.2     1  UNL1        0.3045
      2 O          48.2600   12.9240  -25.5995 O.2     1  UNL1       -0.2647
      3 N          47.9015   11.3607  -23.8916 N.am    1  UNL1       -0.2720
      4 C          46.6596   12.0030  -23.4329 C.3     1  UNL1        0.0976
      5 C          46.8275   12.5801  -22.0149 C.3     1  UNL1        0.0651
      6 C          47.8102   11.7783  -21.1288 C.3     1  UNL1        0.1693
      7 C          47.9408   10.3265  -21.6261 C.3     1  UNL1        0.0651
      8 C          48.4952   10.3002  -23.0586 C.3     1  UNL1        0.0976
      9 C          50.4386    9.7550  -27.2676 C.ar    1  UNL1        0.2501
     10 N          51.3368    9.9171  -26.2763 N.ar    1  UNL1       -0.1068
     11 N          50.7532   10.6814  -25.3663 N.ar    1  UNL1       -0.1021
     12 C          49.5199   10.9564  -25.8340 C.ar    1  UNL1        0.3042
     13 O          49.3242   10.3932  -27.0015 O.2     1  UNL1       -0.4122
     14 C          51.1366    7.4594  -30.8293 C.ar    1  UNL1        0.1387
     15 C          52.1759    8.1821  -30.2329 C.ar    1  UNL1        0.0371
     16 C          51.9488    8.9286  -29.0731 C.ar    1  UNL1        0.0078
     17 C          50.6724    8.9630  -28.4902 C.ar    1  UNL1        0.0553
     18 C          49.6273    8.2389  -29.0864 C.ar    1  UNL1        0.0078
     19 C          49.8556    7.4924  -30.2465 C.ar    1  UNL1        0.0371
     20 C          52.7253    6.5008  -32.5049 C.3     1  UNL1        0.2525
     21 O          51.4161    6.7263  -31.9922 O.3     1  UNL1       -0.4714
     22 O          49.0868   12.4265  -21.1515 O.3     1  UNL1       -0.4791
     23 C          49.4541   13.4941  -21.9867 C.ar    1  UNL1        0.1384
     24 C          50.5639   13.3233  -22.8221 C.ar    1  UNL1        0.0366
     25 C          50.9833   14.3532  -23.6682 C.ar    1  UNL1        0.0002
     26 C          50.2871   15.5700  -23.6998 C.ar    1  UNL1       -0.0059
     27 C          49.1731   15.7465  -22.8653 C.ar    1  UNL1        0.0002
     28 C          48.7540   14.7158  -22.0187 C.ar    1  UNL1        0.0366
     29 C          50.7682   16.6916  -24.5818 C.3     1  UNL1        0.0991
     30 N          49.6288   17.3241  -25.2732 N.3     1  UNL1       -0.2690
     31 C          50.0002   18.6184  -25.8495 C.3     1  UNL1        0.0724
     32 C          49.0512   18.8672  -27.0109 C.3     1  UNL1        0.0188
     33 C          48.5027   17.4991  -27.3837 C.3     1  UNL1        0.0188
     34 C          49.1407   16.5264  -26.4037 C.3     1  UNL1        0.0724
@<TRIPOS>BOND
     1    20    21    1
     2    21    14    1
     3    14    15   ar
     4    15    16   ar
     5    16    17   ar
     6    17     9    1
     7     9    10   ar
     8    10    11   ar
     9    11    12   ar
    10    12     1    1
    11     1     2    2
    12     1     3   am
    13     3     4    1
    14     4     5    1
    15     5     6    1
    16     6    22    1
    17    22    23    1
    18    23    24   ar
    19    24    25   ar
    20    25    26   ar
    21    26    29    1
    22    29    30    1
    23    30    31    1
    24    31    32    1
    25    32    33    1
    26    33    34    1
    27    26    27   ar
    28    27    28   ar
    29     6     7    1
    30     7     8    1
    31    12    13   ar
    32    17    18   ar
    33    18    19   ar
    34    19    14   ar
    35    13     9   ar
    36     8     3    1
    37    28    23   ar
    38    34    30    1
@<TRIPOS>MOLECULE
*****
 34 38 0 0 0
SMALL
GASTEIGER

@<TRIPOS>ATOM
      1 C          51.1039   11.7895  -24.1544 C.2     1  UNL1        0.3045
      2 O          51.1048   11.2911  -22.9961 O.2     1  UNL1       -0.2647
      3 N          50.8958   13.2112  -24.3223 N.am    1  UNL1       -0.2720
      4 C          51.0998   14.1310  -23.1919 C.3     1  UNL1        0.0976
      5 C          49.8257   14.9483  -22.9083 C.3     1  UNL1        0.0651
      6 C          48.9806   15.2421  -24.1705 C.3     1  UNL1        0.1693
      7 C          49.8476   15.1739  -25.4417 C.3     1  UNL1        0.0651
      8 C          50.4408   13.7666  -25.6089 C.3     1  UNL1        0.0976
      9 C          51.0119    9.7425  -27.0169 C.ar    1  UNL1        0.2501
     10 N          52.2996    9.5611  -26.6641 N.ar    1  UNL1       -0.1068
     11 N          52.4925   10.2861  -25.5733 N.ar    1  UNL1       -0.1021
     12 C          51.3157   10.8819  -25.2987 C.ar    1  UNL1        0.3042
     13 O          50.4059   10.5540  -26.1837 O.2     1  UNL1       -0.4122
     14 C          49.1099    7.9081  -30.4022 C.ar    1  UNL1        0.1387
     15 C          48.3646    8.6619  -29.4887 C.ar    1  UNL1        0.0371
     16 C          48.9839    9.2597  -28.3874 C.ar    1  UNL1        0.0078
     17 C          50.3646    9.1113  -28.1828 C.ar    1  UNL1        0.0553
     18 C          51.1153    8.3552  -29.0977 C.ar    1  UNL1        0.0078
     19 C          50.4947    7.7578  -30.1992 C.ar    1  UNL1        0.0371
     20 C          48.9057    6.1871  -32.2041 C.3     1  UNL1        0.2525
     21 O          48.4412    7.3286  -31.4908 O.3     1  UNL1       -0.4714
     22 O          47.9153   14.2881  -24.2456 O.3     1  UNL1       -0.4791
     23 C          47.4293   13.6863  -25.4177 C.ar    1  UNL1        0.1384
     24 C          47.4479   12.2891  -25.4955 C.ar    1  UNL1        0.0366
     25 C          46.9866   11.6336  -26.6401 C.ar    1  UNL1        0.0002
     26 C          46.4856   12.3701  -27.7231 C.ar    1  UNL1       -0.0059
     27 C          46.4635   13.7711  -27.6502 C.ar    1  UNL1        0.0002
     28 C          46.9255   14.4265  -26.5050 C.ar    1  UNL1        0.0366
     29 C          46.0293   11.6611  -28.9706 C.3     1  UNL1        0.0991
     30 N          46.4294   12.4237  -30.1684 N.3     1  UNL1       -0.2690
     31 C          46.5780   11.5524  -31.3364 C.3     1  UNL1        0.0724
     32 C          46.3521   12.4233  -32.5618 C.3     1  UNL1        0.0188
     33 C          45.5884   13.6377  -32.0584 C.3     1  UNL1        0.0188
     34 C          45.4306   13.4243  -30.5606 C.3     1  UNL1        0.0724
@<TRIPOS>BOND
     1    20    21    1
     2    21    14    1
     3    14    15   ar
     4    15    16   ar
     5    16    17   ar
     6    17     9    1
     7     9    10   ar
     8    10    11   ar
     9    11    12   ar
    10    12     1    1
    11     1     2    2
    12     1     3   am
    13     3     4    1
    14     4     5    1
    15     5     6    1
    16     6    22    1
    17    22    23    1
    18    23    24   ar
    19    24    25   ar
    20    25    26   ar
    21    26    29    1
    22    29    30    1
    23    30    31    1
    24    31    32    1
    25    32    33    1
    26    33    34    1
    27    26    27   ar
    28    27    28   ar
    29     6     7    1
    30     7     8    1
    31    12    13   ar
    32    17    18   ar
    33    18    19   ar
    34    19    14   ar
    35    13     9   ar
    36     8     3    1
    37    28    23   ar
    38    34    30    1
@<TRIPOS>MOLECULE
*****
 34 38 0 0 0
SMALL
GASTEIGER

@<TRIPOS>ATOM
      1 C          50.4501   12.2587  -24.1417 C.2     1  UNL1        0.3045
      2 O          51.2609   12.8850  -23.4065 O.2     1  UNL1       -0.2647
      3 N          49.0501   12.6233  -24.1371 N.am    1  UNL1       -0.2720
      4 C          48.6264   13.9392  -23.6330 C.3     1  UNL1        0.0976
      5 C          47.6059   13.7899  -22.4893 C.3     1  UNL1        0.0651
      6 C          46.7044   12.5392  -22.6185 C.3     1  UNL1        0.1693
      7 C          46.6226   12.0684  -24.0827 C.3     1  UNL1        0.0651
      8 C          48.0169   11.6793  -24.5974 C.3     1  UNL1        0.0976
      9 C          51.2751    9.8294  -26.5522 C.ar    1  UNL1        0.2501
     10 N          52.1991    9.5286  -25.6187 N.ar    1  UNL1       -0.1068
     11 N          52.0112   10.3787  -24.6214 N.ar    1  UNL1       -0.1021
     12 C          50.9787   11.1659  -24.9811 C.ar    1  UNL1        0.3042
     13 O          50.5266   10.8348  -26.1662 O.2     1  UNL1       -0.4122
     14 C          50.8418    7.7788  -30.3006 C.ar    1  UNL1        0.1387
     15 C          52.0732    8.3297  -29.9285 C.ar    1  UNL1        0.0371
     16 C          52.2143    8.9963  -28.7080 C.ar    1  UNL1        0.0078
     17 C          51.1203    9.1222  -27.8377 C.ar    1  UNL1        0.0553
     18 C          49.8831    8.5706  -28.2084 C.ar    1  UNL1        0.0078
     19 C          49.7431    7.9038  -29.4295 C.ar    1  UNL1        0.0371
     20 C          51.8616    6.8575  -32.3890 C.3     1  UNL1        0.2525
     21 O          50.7522    7.1200  -31.5358 O.3     1  UNL1       -0.4714
     22 O          47.2375   11.4981  -21.7924 O.3     1  UNL1       -0.4791
     23 C          47.8982   11.6763  -20.5661 C.ar    1  UNL1        0.1384
     24 C          47.1681   12.2089  -19.4974 C.ar    1  UNL1        0.0366
     25 C          47.7737   12.4183  -18.2556 C.ar    1  UNL1        0.0002
     26 C          49.1216   12.0842  -18.0610 C.ar    1  UNL1       -0.0059
     27 C          49.8582   11.5489  -19.1285 C.ar    1  UNL1        0.0002
     28 C          49.2519   11.3399  -20.3709 C.ar    1  UNL1        0.0366
     29 C          49.7808   12.3512  -16.7339 C.3     1  UNL1        0.0991
     30 N          48.7703   12.3948  -15.6599 N.3     1  UNL1       -0.2690
     31 C          48.9399   11.2874  -14.7162 C.3     1  UNL1        0.0724
     32 C          48.3436   11.7453  -13.3948 C.3     1  UNL1        0.0188
     33 C          48.3097   13.2633  -13.4721 C.3     1  UNL1        0.0188
     34 C          48.8644   13.6113  -14.8450 C.3     1  UNL1        0.0724
@<TRIPOS>BOND
     1    20    21    1
     2    21    14    1
     3    14    15   ar
     4    15    16   ar
     5    16    17   ar
     6    17     9    1
     7     9    10   ar
     8    10    11   ar
     9    11    12   ar
    10    12     1    1
    11     1     2    2
    12     1     3   am
    13     3     4    1
    14     4     5    1
    15     5     6    1
    16     6    22    1
    17    22    23    1
    18    23    24   ar
    19    24    25   ar
    20    25    26   ar
    21    26    29    1
    22    29    30    1
    23    30    31    1
    24    31    32    1
    25    32    33    1
    26    33    34    1
    27    26    27   ar
    28    27    28   ar
    29     6     7    1
    30     7     8    1
    31    12    13   ar
    32    17    18   ar
    33    18    19   ar
    34    19    14   ar
    35    13     9   ar
    36     8     3    1
    37    28    23   ar
    38    34    30    1
