@<TRIPOS>MOLECULE
*****
 48 53 0 0 0
SMALL
GASTEIGER

@<TRIPOS>ATOM
      1 C          62.1920   88.6678   11.4852 C.2     1  UNL1        0.2839
      2 O          61.7676   89.3012   10.4818 O.2     1  UNL1       -0.2665
      3 N          61.6014   87.4104   11.8463 N.am    1  UNL1       -0.2766
      4 H          61.6093   87.1437   12.8571 H       1  UNL1        0.1553
      5 C          64.9210   90.0995   10.5498 C.3     1  UNL1        0.0345
      6 C          64.4278   89.8705   11.9494 C.ar    1  UNL1        0.0204
      7 C          63.2113   89.2967   12.3413 C.ar    1  UNL1        0.1946
      8 O          63.0705   89.3815   13.6481 O.2     1  UNL1       -0.4492
      9 C          64.1365   89.9651   14.1335 C.ar    1  UNL1        0.1454
     10 C          64.4020   90.2159   15.4726 C.ar    1  UNL1        0.0375
     11 C          65.6178   90.8275   15.8023 C.ar    1  UNL1        0.0033
     12 C          66.5455   91.1931   14.7965 C.ar    1  UNL1        0.0064
     13 C          66.2464   90.9345   13.4266 C.ar    1  UNL1        0.0782
     14 C          65.0173   90.3058   13.1343 C.ar    1  UNL1        0.0399
     15 C          67.8053   91.8571   15.2085 C.ar    1  UNL1        0.0002
     16 C          69.0019   91.1229   15.2718 C.ar    1  UNL1        0.0000
     17 C          70.1904   91.7447   15.6668 C.ar    1  UNL1        0.0000
     18 C          70.1923   93.0998   16.0081 C.ar    1  UNL1        0.0000
     19 C          69.0048   93.8347   15.9587 C.ar    1  UNL1        0.0000
     20 C          67.8140   93.2170   15.5643 C.ar    1  UNL1        0.0000
     21 C          67.2274   91.2495   12.3704 C.2     1  UNL1        0.3381
     22 O          68.2460   90.5262   12.2192 O.2     1  UNL1       -0.2451
     23 O          67.0068   92.3104   11.4972 O.3     1  UNL1       -0.4771
     24 H          66.1906   92.9034   11.5898 H       1  UNL1        0.2954
     25 C          60.8938   86.5622   10.9257 C.ar    1  UNL1        0.0702
     26 C          61.0728   86.6670    9.5371 C.ar    1  UNL1        0.0191
     27 C          60.3874   85.8090    8.6756 C.ar    1  UNL1        0.0356
     28 C          59.5253   84.8381    9.2063 C.ar    1  UNL1        0.1318
     29 N          59.3909   84.7350   10.5579 N.ar    1  UNL1       -0.2279
     30 C          60.0486   85.5586   11.4159 C.ar    1  UNL1        0.1149
     31 N          58.8071   83.9355    8.3432 N.pl3   1  UNL1       -0.2932
     32 C          59.5225   83.1162    7.3604 C.3     1  UNL1        0.0923
     33 C          59.4990   81.6501    7.8009 C.3     1  UNL1        0.0252
     34 C          58.0505   81.1763    8.0539 C.3     1  UNL1        0.0472
     35 C          57.3480   82.1072    9.0677 C.3     1  UNL1        0.0252
     36 C          57.4125   83.5705    8.6171 C.3     1  UNL1        0.0923
     37 C          57.9971   79.7192    8.5544 C.3     1  UNL1        0.2054
     38 O          57.5377   79.6478    9.9069 O.3     1  UNL1       -0.4755
     39 C          58.3334   79.6113   11.0656 C.ar    1  UNL1        0.1388
     40 C          58.2516   78.4719   11.8735 C.ar    1  UNL1        0.0369
     41 C          59.0175   78.3674   13.0353 C.ar    1  UNL1        0.0033
     42 C          59.8762   79.4036   13.4052 C.ar    1  UNL1        0.0066
     43 C          59.9748   80.5610   12.6138 C.ar    1  UNL1        0.0785
     44 C          59.1959   80.6608   11.4463 C.ar    1  UNL1        0.0433
     45 C          60.8872   81.6608   13.0002 C.2     1  UNL1        0.3381
     46 O          61.4169   81.6791   14.1443 O.2     1  UNL1       -0.2451
     47 O          61.1710   82.6868   12.1023 O.3     1  UNL1       -0.4771
     48 H          61.7950   83.4433   12.3566 H       1  UNL1        0.2954
@<TRIPOS>BOND
     1     5     6    1
     2     6     7   ar
     3     7     1    1
     4     1     2    2
     5     1     3   am
     6     3    25    1
     7    25    26   ar
     8    26    27   ar
     9    27    28   ar
    10    28    31    1
    11    31    32    1
    12    32    33    1
    13    33    34    1
    14    34    37    1
    15    37    38    1
    16    38    39    1
    17    39    40   ar
    18    40    41   ar
    19    41    42   ar
    20    42    43   ar
    21    43    45    1
    22    45    46    2
    23    45    47    1
    24    43    44   ar
    25    34    35    1
    26    35    36    1
    27    28    29   ar
    28    29    30   ar
    29     7     8   ar
    30     8     9   ar
    31     9    10   ar
    32    10    11   ar
    33    11    12   ar
    34    12    15    1
    35    15    16   ar
    36    16    17   ar
    37    17    18   ar
    38    18    19   ar
    39    19    20   ar
    40    12    13   ar
    41    13    21    1
    42    21    22    2
    43    21    23    1
    44    13    14   ar
    45    14     6   ar
    46    30    25   ar
    47    14     9   ar
    48    36    31    1
    49    20    15   ar
    50    44    39   ar
    51     3     4    1
    52    47    48    1
    53    23    24    1
@<TRIPOS>MOLECULE
*****
 48 53 0 0 0
SMALL
GASTEIGER

@<TRIPOS>ATOM
      1 C          62.1425   88.6864   11.5876 C.2     1  UNL1        0.2839
      2 O          61.8176   89.2513   10.5090 O.2     1  UNL1       -0.2665
      3 N          61.4343   87.5197   12.0318 N.am    1  UNL1       -0.2766
      4 H          61.3746   87.3518   13.0620 H       1  UNL1        0.1553
      5 C          64.8876   90.0725   10.6309 C.3     1  UNL1        0.0345
      6 C          64.3936   89.8673   12.0338 C.ar    1  UNL1        0.0204
      7 C          63.1706   89.3135   12.4345 C.ar    1  UNL1        0.1946
      8 O          63.0327   89.4165   13.7403 O.2     1  UNL1       -0.4492
      9 C          64.1065   89.9930   14.2169 C.ar    1  UNL1        0.1454
     10 C          64.3769   90.2574   15.5525 C.ar    1  UNL1        0.0375
     11 C          65.6006   90.8582   15.8728 C.ar    1  UNL1        0.0033
     12 C          66.5313   91.1996   14.8614 C.ar    1  UNL1        0.0064
     13 C          66.2272   90.9274   13.4952 C.ar    1  UNL1        0.0782
     14 C          64.9900   90.3102   13.2124 C.ar    1  UNL1        0.0399
     15 C          67.7997   91.8531   15.2633 C.ar    1  UNL1        0.0002
     16 C          68.9640   91.0861   15.4390 C.ar    1  UNL1        0.0000
     17 C          70.1603   91.6987   15.8249 C.ar    1  UNL1        0.0000
     18 C          70.2018   93.0779   16.0453 C.ar    1  UNL1        0.0000
     19 C          69.0461   93.8467   15.8838 C.ar    1  UNL1        0.0000
     20 C          67.8478   93.2383   15.4979 C.ar    1  UNL1        0.0000
     21 C          67.2105   91.2170   12.4339 C.2     1  UNL1        0.3381
     22 O          67.0011   92.1517   11.6177 O.2     1  UNL1       -0.2451
     23 O          68.4013   90.5006   12.3618 O.3     1  UNL1       -0.4771
     24 H          68.6003   89.7493   13.0116 H       1  UNL1        0.2954
     25 C          60.7013   86.6444   11.1576 C.ar    1  UNL1        0.0702
     26 C          60.2088   87.0813    9.9175 C.ar    1  UNL1        0.0191
     27 C          59.5235   86.1955    9.0844 C.ar    1  UNL1        0.0356
     28 C          59.3367   84.8661    9.4911 C.ar    1  UNL1        0.1318
     29 N          59.8500   84.4572   10.6847 N.ar    1  UNL1       -0.2279
     30 C          60.5213   85.3012   11.5117 C.ar    1  UNL1        0.1149
     31 N          58.6371   83.9273    8.6517 N.pl3   1  UNL1       -0.2932
     32 C          59.1733   83.5583    7.3381 C.3     1  UNL1        0.0923
     33 C          59.6857   82.1162    7.3804 C.3     1  UNL1        0.0252
     34 C          58.5840   81.1568    7.8828 C.3     1  UNL1        0.0472
     35 C          58.0405   81.6289    9.2502 C.3     1  UNL1        0.0252
     36 C          57.5625   83.0836    9.1869 C.3     1  UNL1        0.0923
     37 C          59.0870   79.7036    7.9911 C.3     1  UNL1        0.2054
     38 O          60.4697   79.6549    8.3533 O.3     1  UNL1       -0.4755
     39 C          61.0119   79.8551    9.6351 C.ar    1  UNL1        0.1388
     40 C          60.5314   79.0526   10.6757 C.ar    1  UNL1        0.0369
     41 C          61.0293   79.1948   11.9715 C.ar    1  UNL1        0.0033
     42 C          62.0156   80.1439   12.2440 C.ar    1  UNL1        0.0066
     43 C          62.5132   80.9658   11.2181 C.ar    1  UNL1        0.0785
     44 C          62.0028   80.8194    9.9150 C.ar    1  UNL1        0.0433
     45 C          63.5621   81.9711   11.5017 C.2     1  UNL1        0.3381
     46 O          63.2750   83.0412   12.1037 O.2     1  UNL1       -0.2451
     47 O          64.8783   81.7440   11.1073 O.3     1  UNL1       -0.4771
     48 H          65.6036   82.4251   11.2977 H       1  UNL1        0.2954
@<TRIPOS>BOND
     1     5     6    1
     2     6     7   ar
     3     7     1    1
     4     1     2    2
     5     1     3   am
     6     3    25    1
     7    25    26   ar
     8    26    27   ar
     9    27    28   ar
    10    28    31    1
    11    31    32    1
    12    32    33    1
    13    33    34    1
    14    34    37    1
    15    37    38    1
    16    38    39    1
    17    39    40   ar
    18    40    41   ar
    19    41    42   ar
    20    42    43   ar
    21    43    45    1
    22    45    46    2
    23    45    47    1
    24    43    44   ar
    25    34    35    1
    26    35    36    1
    27    28    29   ar
    28    29    30   ar
    29     7     8   ar
    30     8     9   ar
    31     9    10   ar
    32    10    11   ar
    33    11    12   ar
    34    12    15    1
    35    15    16   ar
    36    16    17   ar
    37    17    18   ar
    38    18    19   ar
    39    19    20   ar
    40    12    13   ar
    41    13    21    1
    42    21    22    2
    43    21    23    1
    44    13    14   ar
    45    14     6   ar
    46    30    25   ar
    47    14     9   ar
    48    36    31    1
    49    20    15   ar
    50    44    39   ar
    51     3     4    1
    52    47    48    1
    53    23    24    1
@<TRIPOS>MOLECULE
*****
 48 53 0 0 0
SMALL
GASTEIGER

@<TRIPOS>ATOM
      1 C          62.0927   88.7330   11.5197 C.2     1  UNL1        0.2839
      2 O          61.7148   89.3509   10.4883 O.2     1  UNL1       -0.2665
      3 N          61.4411   87.5149   11.9091 N.am    1  UNL1       -0.2766
      4 H          61.4189   87.2814   12.9279 H       1  UNL1        0.1553
      5 C          64.8480   90.1125   10.5831 C.3     1  UNL1        0.0345
      6 C          64.3498   89.8957   11.9828 C.ar    1  UNL1        0.0204
      7 C          63.1227   89.3451   12.3751 C.ar    1  UNL1        0.1946
      8 O          62.9826   89.4355   13.6816 O.2     1  UNL1       -0.4492
      9 C          64.0588   90.0006   14.1664 C.ar    1  UNL1        0.1454
     10 C          64.3279   90.2494   15.5052 C.ar    1  UNL1        0.0375
     11 C          65.5544   90.8395   15.8344 C.ar    1  UNL1        0.0033
     12 C          66.4893   91.1858   14.8285 C.ar    1  UNL1        0.0064
     13 C          66.1865   90.9296   13.4589 C.ar    1  UNL1        0.0782
     14 C          64.9463   90.3228   13.1672 C.ar    1  UNL1        0.0399
     15 C          67.7608   91.8276   15.2398 C.ar    1  UNL1        0.0002
     16 C          68.9321   91.0604   15.3594 C.ar    1  UNL1        0.0000
     17 C          70.1314   91.6615   15.7540 C.ar    1  UNL1        0.0000
     18 C          70.1690   93.0290   16.0390 C.ar    1  UNL1        0.0000
     19 C          69.0065   93.7973   15.9335 C.ar    1  UNL1        0.0000
     20 C          67.8052   93.2003   15.5392 C.ar    1  UNL1        0.0000
     21 C          67.1738   91.2243   12.4027 C.2     1  UNL1        0.3381
     22 O          66.9948   92.1976   11.6254 O.2     1  UNL1       -0.2451
     23 O          68.3367   90.4677   12.2939 O.3     1  UNL1       -0.4771
     24 H          68.5112   89.6844   12.9122 H       1  UNL1        0.2954
     25 C          60.7140   86.6682   11.0024 C.ar    1  UNL1        0.0702
     26 C          60.3796   87.0891    9.7054 C.ar    1  UNL1        0.0191
     27 C          59.6951   86.2297    8.8446 C.ar    1  UNL1        0.0356
     28 C          59.3503   84.9420    9.2813 C.ar    1  UNL1        0.1318
     29 N          59.7122   84.5449   10.5330 N.ar    1  UNL1       -0.2279
     30 C          60.3795   85.3638   11.3880 C.ar    1  UNL1        0.1149
     31 N          58.6473   84.0308    8.4148 N.pl3   1  UNL1       -0.2932
     32 C          59.1928   83.6822    7.0995 C.3     1  UNL1        0.0923
     33 C          59.6852   82.2326    7.1167 C.3     1  UNL1        0.0252
     34 C          58.5652   81.2780    7.5869 C.3     1  UNL1        0.0472
     35 C          58.0132   81.7287    8.9581 C.3     1  UNL1        0.0252
     36 C          57.5557   83.1908    8.9205 C.3     1  UNL1        0.0923
     37 C          59.0473   79.8161    7.6697 C.3     1  UNL1        0.2054
     38 O          60.3294   79.7235    8.2968 O.3     1  UNL1       -0.4755
     39 C          60.5941   79.7357    9.6777 C.ar    1  UNL1        0.1388
     40 C          61.7985   80.3072   10.1027 C.ar    1  UNL1        0.0369
     41 C          62.1224   80.3571   11.4591 C.ar    1  UNL1        0.0033
     42 C          61.2444   79.8343   12.4098 C.ar    1  UNL1        0.0066
     43 C          60.0298   79.2510   12.0100 C.ar    1  UNL1        0.0785
     44 C          59.7125   79.2004   10.6401 C.ar    1  UNL1        0.0433
     45 C          59.0938   78.6988   13.0152 C.2     1  UNL1        0.3381
     46 O          59.0076   79.2183   14.1609 O.2     1  UNL1       -0.2451
     47 O          58.2972   77.5995   12.7046 O.3     1  UNL1       -0.4771
     48 H          57.6527   77.2149   13.3850 H       1  UNL1        0.2954
@<TRIPOS>BOND
     1     5     6    1
     2     6     7   ar
     3     7     1    1
     4     1     2    2
     5     1     3   am
     6     3    25    1
     7    25    26   ar
     8    26    27   ar
     9    27    28   ar
    10    28    31    1
    11    31    32    1
    12    32    33    1
    13    33    34    1
    14    34    37    1
    15    37    38    1
    16    38    39    1
    17    39    40   ar
    18    40    41   ar
    19    41    42   ar
    20    42    43   ar
    21    43    45    1
    22    45    46    2
    23    45    47    1
    24    43    44   ar
    25    34    35    1
    26    35    36    1
    27    28    29   ar
    28    29    30   ar
    29     7     8   ar
    30     8     9   ar
    31     9    10   ar
    32    10    11   ar
    33    11    12   ar
    34    12    15    1
    35    15    16   ar
    36    16    17   ar
    37    17    18   ar
    38    18    19   ar
    39    19    20   ar
    40    12    13   ar
    41    13    21    1
    42    21    22    2
    43    21    23    1
    44    13    14   ar
    45    14     6   ar
    46    30    25   ar
    47    14     9   ar
    48    36    31    1
    49    20    15   ar
    50    44    39   ar
    51     3     4    1
    52    47    48    1
    53    23    24    1
@<TRIPOS>MOLECULE
*****
 48 53 0 0 0
SMALL
GASTEIGER

@<TRIPOS>ATOM
      1 C          62.4466   88.4404   10.3097 C.2     1  UNL1        0.2839
      2 O          62.2980   88.5273    9.0613 O.2     1  UNL1       -0.2665
      3 N          61.4803   87.7354   11.1031 N.am    1  UNL1       -0.2766
      4 H          61.3442   88.0476   12.0915 H       1  UNL1        0.1553
      5 C          63.3426   88.3405   13.4015 C.3     1  UNL1        0.0345
      6 C          63.9156   89.1821   12.2979 C.ar    1  UNL1        0.0204
      7 C          63.5539   89.1742   10.9444 C.ar    1  UNL1        0.1946
      8 O          64.3631   89.9515   10.2546 O.2     1  UNL1       -0.4492
      9 C          65.2243   90.4798   11.0865 C.ar    1  UNL1        0.1454
     10 C          66.2278   91.3851   10.7702 C.ar    1  UNL1        0.0375
     11 C          67.0369   91.8642   11.8079 C.ar    1  UNL1        0.0033
     12 C          66.8461   91.4272   13.1414 C.ar    1  UNL1        0.0064
     13 C          65.8150   90.4889   13.4407 C.ar    1  UNL1        0.0782
     14 C          65.0123   90.0381   12.3711 C.ar    1  UNL1        0.0399
     15 C          67.7495   91.9552   14.1915 C.ar    1  UNL1        0.0002
     16 C          68.8354   91.1847   14.6410 C.ar    1  UNL1        0.0000
     17 C          69.6852   91.6771   15.6363 C.ar    1  UNL1        0.0000
     18 C          69.4538   92.9369   16.1948 C.ar    1  UNL1        0.0000
     19 C          68.3698   93.7052   15.7617 C.ar    1  UNL1        0.0000
     20 C          67.5175   93.2167   14.7667 C.ar    1  UNL1        0.0000
     21 C          65.5596   90.0709   14.8325 C.2     1  UNL1        0.3381
     22 O          65.7585   88.8778   15.1796 O.2     1  UNL1       -0.2451
     23 O          65.1540   91.0011   15.7847 O.3     1  UNL1       -0.4771
     24 H          64.9953   91.9702   15.5353 H       1  UNL1        0.2954
     25 C          60.6067   86.7170   10.5861 C.ar    1  UNL1        0.0702
     26 C          60.1698   86.7256    9.2519 C.ar    1  UNL1        0.0191
     27 C          59.3422   85.7058    8.7792 C.ar    1  UNL1        0.0356
     28 C          58.9564   84.6703    9.6432 C.ar    1  UNL1        0.1318
     29 N          59.4175   84.6668   10.9249 N.ar    1  UNL1       -0.2279
     30 C          60.2247   85.6481   11.4069 C.ar    1  UNL1        0.1149
     31 N          58.1064   83.6018    9.1837 N.pl3   1  UNL1       -0.2932
     32 C          58.3941   82.9096    7.9239 C.3     1  UNL1        0.0923
     33 C          58.8880   81.4910    8.2198 C.3     1  UNL1        0.0252
     34 C          57.8825   80.7356    9.1169 C.3     1  UNL1        0.0472
     35 C          57.5985   81.5409   10.4049 C.3     1  UNL1        0.0252
     36 C          57.1348   82.9649   10.0800 C.3     1  UNL1        0.0923
     37 C          58.3789   79.3221    9.4801 C.3     1  UNL1        0.2054
     38 O          59.8062   79.2426    9.4377 O.3     1  UNL1       -0.4755
     39 C          60.7054   79.7222   10.4064 C.ar    1  UNL1        0.1388
     40 C          60.4460   79.4081   11.7450 C.ar    1  UNL1        0.0369
     41 C          61.3001   79.8477   12.7571 C.ar    1  UNL1        0.0033
     42 C          62.4267   80.6093   12.4430 C.ar    1  UNL1        0.0066
     43 C          62.7088   80.9425   11.1070 C.ar    1  UNL1        0.0785
     44 C          61.8402   80.4994   10.0926 C.ar    1  UNL1        0.0433
     45 C          63.9046   81.7468   10.7689 C.2     1  UNL1        0.3381
     46 O          63.9271   82.4487    9.7216 O.2     1  UNL1       -0.2451
     47 O          65.0177   81.7373   11.6059 O.3     1  UNL1       -0.4771
     48 H          65.8404   82.2851   11.3840 H       1  UNL1        0.2954
@<TRIPOS>BOND
     1     5     6    1
     2     6     7   ar
     3     7     1    1
     4     1     2    2
     5     1     3   am
     6     3    25    1
     7    25    26   ar
     8    26    27   ar
     9    27    28   ar
    10    28    31    1
    11    31    32    1
    12    32    33    1
    13    33    34    1
    14    34    37    1
    15    37    38    1
    16    38    39    1
    17    39    40   ar
    18    40    41   ar
    19    41    42   ar
    20    42    43   ar
    21    43    45    1
    22    45    46    2
    23    45    47    1
    24    43    44   ar
    25    34    35    1
    26    35    36    1
    27    28    29   ar
    28    29    30   ar
    29     7     8   ar
    30     8     9   ar
    31     9    10   ar
    32    10    11   ar
    33    11    12   ar
    34    12    15    1
    35    15    16   ar
    36    16    17   ar
    37    17    18   ar
    38    18    19   ar
    39    19    20   ar
    40    12    13   ar
    41    13    21    1
    42    21    22    2
    43    21    23    1
    44    13    14   ar
    45    14     6   ar
    46    30    25   ar
    47    14     9   ar
    48    36    31    1
    49    20    15   ar
    50    44    39   ar
    51     3     4    1
    52    47    48    1
    53    23    24    1
@<TRIPOS>MOLECULE
*****
 48 53 0 0 0
SMALL
GASTEIGER

@<TRIPOS>ATOM
      1 C          62.5195   88.5834   10.1109 C.2     1  UNL1        0.2839
      2 O          62.1621   89.0024    8.9774 O.2     1  UNL1       -0.2665
      3 N          61.7810   87.5363   10.7578 N.am    1  UNL1       -0.2766
      4 H          61.7716   87.5243   11.8032 H       1  UNL1        0.1553
      5 C          63.2513   88.4409   13.2440 C.3     1  UNL1        0.0345
      6 C          63.9157   89.2581   12.1740 C.ar    1  UNL1        0.0204
      7 C          63.6236   89.2677   10.8038 C.ar    1  UNL1        0.1946
      8 O          64.4999   90.0099   10.1588 O.2     1  UNL1       -0.4492
      9 C          65.3395   90.4993   11.0353 C.ar    1  UNL1        0.1454
     10 C          66.3960   91.3606   10.7737 C.ar    1  UNL1        0.0375
     11 C          67.1711   91.8029   11.8529 C.ar    1  UNL1        0.0033
     12 C          66.8937   91.3729   13.1735 C.ar    1  UNL1        0.0064
     13 C          65.8091   90.4799   13.4165 C.ar    1  UNL1        0.0782
     14 C          65.0433   90.0657   12.3059 C.ar    1  UNL1        0.0399
     15 C          67.7644   91.8600   14.2700 C.ar    1  UNL1        0.0002
     16 C          67.5887   93.1542   14.7886 C.ar    1  UNL1        0.0000
     17 C          68.4129   93.6190   15.8182 C.ar    1  UNL1        0.0000
     18 C          69.4218   92.7999   16.3318 C.ar    1  UNL1        0.0000
     19 C          69.6108   91.5156   15.8143 C.ar    1  UNL1        0.0000
     20 C          68.7889   91.0468   14.7849 C.ar    1  UNL1        0.0000
     21 C          65.4650   90.0716   14.7920 C.2     1  UNL1        0.3381
     22 O          65.5068   88.8572   15.1189 O.2     1  UNL1       -0.2451
     23 O          65.1493   91.0275   15.7529 O.3     1  UNL1       -0.4771
     24 H          65.1174   92.0130   15.5200 H       1  UNL1        0.2954
     25 C          60.9574   86.5861   10.0604 C.ar    1  UNL1        0.0702
     26 C          60.1880   86.9532    8.9449 C.ar    1  UNL1        0.0191
     27 C          59.4202   85.9972    8.2780 C.ar    1  UNL1        0.0356
     28 C          59.4281   84.6677    8.7252 C.ar    1  UNL1        0.1318
     29 N          60.2060   84.3288    9.7908 N.ar    1  UNL1       -0.2279
     30 C          60.9623   85.2420   10.4549 C.ar    1  UNL1        0.1149
     31 N          58.6494   83.6575    8.0555 N.pl3   1  UNL1       -0.2932
     32 C          59.2831   82.7309    7.1127 C.3     1  UNL1        0.0923
     33 C          59.3374   81.3304    7.7287 C.3     1  UNL1        0.0252
     34 C          57.9325   80.8755    8.1825 C.3     1  UNL1        0.0472
     35 C          57.3122   81.9168    9.1411 C.3     1  UNL1        0.0252
     36 C          57.2977   83.3138    8.5113 C.3     1  UNL1        0.0923
     37 C          57.9628   79.4910    8.8597 C.3     1  UNL1        0.2054
     38 O          57.5577   79.5700   10.2290 O.3     1  UNL1       -0.4755
     39 C          58.3981   79.5847   11.3562 C.ar    1  UNL1        0.1388
     40 C          58.3552   78.4788   12.2123 C.ar    1  UNL1        0.0369
     41 C          59.1664   78.4255   13.3465 C.ar    1  UNL1        0.0033
     42 C          60.0321   79.4801   13.6402 C.ar    1  UNL1        0.0066
     43 C          60.0923   80.6048   12.7993 C.ar    1  UNL1        0.0785
     44 C          59.2679   80.6530   11.6600 C.ar    1  UNL1        0.0433
     45 C          61.0119   81.7238   13.1048 C.2     1  UNL1        0.3381
     46 O          61.5990   81.7821   14.2192 O.2     1  UNL1       -0.2451
     47 O          61.2391   82.7240   12.1626 O.3     1  UNL1       -0.4771
     48 H          61.8674   83.4934   12.3615 H       1  UNL1        0.2954
@<TRIPOS>BOND
     1     5     6    1
     2     6     7   ar
     3     7     1    1
     4     1     2    2
     5     1     3   am
     6     3    25    1
     7    25    26   ar
     8    26    27   ar
     9    27    28   ar
    10    28    31    1
    11    31    32    1
    12    32    33    1
    13    33    34    1
    14    34    37    1
    15    37    38    1
    16    38    39    1
    17    39    40   ar
    18    40    41   ar
    19    41    42   ar
    20    42    43   ar
    21    43    45    1
    22    45    46    2
    23    45    47    1
    24    43    44   ar
    25    34    35    1
    26    35    36    1
    27    28    29   ar
    28    29    30   ar
    29     7     8   ar
    30     8     9   ar
    31     9    10   ar
    32    10    11   ar
    33    11    12   ar
    34    12    15    1
    35    15    16   ar
    36    16    17   ar
    37    17    18   ar
    38    18    19   ar
    39    19    20   ar
    40    12    13   ar
    41    13    21    1
    42    21    22    2
    43    21    23    1
    44    13    14   ar
    45    14     6   ar
    46    30    25   ar
    47    14     9   ar
    48    36    31    1
    49    20    15   ar
    50    44    39   ar
    51     3     4    1
    52    47    48    1
    53    23    24    1
@<TRIPOS>MOLECULE
*****
 48 53 0 0 0
SMALL
GASTEIGER

@<TRIPOS>ATOM
      1 C          60.1945   88.7554    6.6658 C.2     1  UNL1        0.2839
      2 O          59.1243   88.0927    6.6048 O.2     1  UNL1       -0.2665
      3 N          60.8544   88.9440    7.9264 N.am    1  UNL1       -0.2766
      4 H          61.4155   89.8170    8.0539 H       1  UNL1        0.1553
      5 C          58.5577   90.7603    4.7491 C.3     1  UNL1        0.0345
      6 C          59.9617   90.2558    4.5788 C.ar    1  UNL1        0.0204
      7 C          60.6817   89.4283    5.4504 C.ar    1  UNL1        0.1946
      8 O          61.9251   89.3045    5.0339 O.2     1  UNL1       -0.4492
      9 C          62.0525   89.9930    3.9283 C.ar    1  UNL1        0.1454
     10 C          63.1965   90.0977    3.1492 C.ar    1  UNL1        0.0375
     11 C          63.1306   90.8616    1.9774 C.ar    1  UNL1        0.0033
     12 C          61.9339   91.5208    1.6040 C.ar    1  UNL1        0.0064
     13 C          60.7742   91.4068    2.4256 C.ar    1  UNL1        0.0782
     14 C          60.8755   90.6187    3.5918 C.ar    1  UNL1        0.0399
     15 C          61.9347   92.3319    0.3632 C.ar    1  UNL1        0.0002
     16 C          60.8116   92.3303   -0.4816 C.ar    1  UNL1        0.0000
     17 C          60.8119   93.0889   -1.6563 C.ar    1  UNL1        0.0000
     18 C          61.9340   93.8476   -2.0000 C.ar    1  UNL1        0.0000
     19 C          63.0593   93.8462   -1.1714 C.ar    1  UNL1        0.0000
     20 C          63.0632   93.0892    0.0041 C.ar    1  UNL1        0.0000
     21 C          59.5011   92.0331    2.0204 C.2     1  UNL1        0.3381
     22 O          59.2032   93.1829    2.4359 O.2     1  UNL1       -0.2451
     23 O          58.6484   91.3854    1.1316 O.3     1  UNL1       -0.4771
     24 H          58.8677   90.4633    0.7737 H       1  UNL1        0.2954
     25 C          60.6880   88.0724    9.0578 C.ar    1  UNL1        0.0702
     26 C          61.6245   87.0722    9.3643 C.ar    1  UNL1        0.0191
     27 C          61.4420   86.2616   10.4858 C.ar    1  UNL1        0.0356
     28 C          60.3218   86.4575   11.3071 C.ar    1  UNL1        0.1318
     29 N          59.4430   87.4540   11.0071 N.ar    1  UNL1       -0.2279
     30 C          59.6005   88.2560    9.9214 C.ar    1  UNL1        0.1149
     31 N          60.1080   85.6396   12.4737 N.pl3   1  UNL1       -0.2932
     32 C          59.3418   84.3933   12.3801 C.3     1  UNL1        0.0923
     33 C          60.2858   83.1983   12.5382 C.3     1  UNL1        0.0252
     34 C          61.1061   83.3156   13.8421 C.3     1  UNL1        0.0472
     35 C          61.8540   84.6671   13.8887 C.3     1  UNL1        0.0252
     36 C          60.8903   85.8433   13.6983 C.3     1  UNL1        0.0923
     37 C          62.1081   82.1551   14.0021 C.3     1  UNL1        0.2054
     38 O          61.4430   80.9318   14.3284 O.3     1  UNL1       -0.4755
     39 C          60.7649   80.0790   13.4395 C.ar    1  UNL1        0.1388
     40 C          59.4338   79.7624   13.7319 C.ar    1  UNL1        0.0369
     41 C          58.7003   78.9257   12.8897 C.ar    1  UNL1        0.0033
     42 C          59.2901   78.3932   11.7424 C.ar    1  UNL1        0.0066
     43 C          60.6269   78.6918   11.4271 C.ar    1  UNL1        0.0785
     44 C          61.3613   79.5325   12.2837 C.ar    1  UNL1        0.0433
     45 C          61.2554   78.1324   10.2092 C.2     1  UNL1        0.3381
     46 O          61.2538   78.7869    9.1314 O.2     1  UNL1       -0.2451
     47 O          61.8567   76.8766   10.2420 O.3     1  UNL1       -0.4771
     48 H          62.2905   76.4854    9.4144 H       1  UNL1        0.2954
@<TRIPOS>BOND
     1     5     6    1
     2     6     7   ar
     3     7     1    1
     4     1     2    2
     5     1     3   am
     6     3    25    1
     7    25    26   ar
     8    26    27   ar
     9    27    28   ar
    10    28    31    1
    11    31    32    1
    12    32    33    1
    13    33    34    1
    14    34    37    1
    15    37    38    1
    16    38    39    1
    17    39    40   ar
    18    40    41   ar
    19    41    42   ar
    20    42    43   ar
    21    43    45    1
    22    45    46    2
    23    45    47    1
    24    43    44   ar
    25    34    35    1
    26    35    36    1
    27    28    29   ar
    28    29    30   ar
    29     7     8   ar
    30     8     9   ar
    31     9    10   ar
    32    10    11   ar
    33    11    12   ar
    34    12    15    1
    35    15    16   ar
    36    16    17   ar
    37    17    18   ar
    38    18    19   ar
    39    19    20   ar
    40    12    13   ar
    41    13    21    1
    42    21    22    2
    43    21    23    1
    44    13    14   ar
    45    14     6   ar
    46    30    25   ar
    47    14     9   ar
    48    36    31    1
    49    20    15   ar
    50    44    39   ar
    51     3     4    1
    52    47    48    1
    53    23    24    1
