@<TRIPOS>MOLECULE
*****
 29 31 0 0 0
SMALL
GASTEIGER

@<TRIPOS>ATOM
      1 C         -15.2759    1.2870  -13.0503 C.ar    1  UNL1        0.1385
      2 C         -15.8171    0.3293  -13.9305 C.ar    1  UNL1        0.0366
      3 C         -15.2282    0.1062  -15.1784 C.ar    1  UNL1       -0.0011
      4 C         -14.0972    0.8378  -15.5713 C.ar    1  UNL1       -0.0206
      5 C         -13.5582    1.7912  -14.6939 C.ar    1  UNL1       -0.0011
      6 C         -14.1470    2.0137  -13.4462 C.ar    1  UNL1        0.0366
      7 O         -15.8240    1.5537  -11.7846 O.3     1  UNL1       -0.4750
      8 C         -17.2060    1.4520  -11.4412 C.3     1  UNL1        0.2117
      9 C         -17.9487    2.7393  -11.8083 C.3     1  UNL1        0.0931
     10 C         -22.1618    2.1642  -11.2200 C.ar    1  UNL1        0.0090
     11 C         -21.5968    1.9523  -12.4879 C.ar    1  UNL1       -0.0003
     12 C         -20.2314    2.1412  -12.6946 C.ar    1  UNL1        0.0146
     13 C         -19.4281    2.5627  -11.6309 C.ar    1  UNL1        0.0641
     14 N         -19.9865    2.7697  -10.4087 N.ar    1  UNL1       -0.2356
     15 C         -21.3155    2.5966  -10.1698 C.ar    1  UNL1        0.1209
     16 N         -21.8118    2.8648   -8.8535 N.pl3   1  UNL1       -0.3429
     17 H         -21.1485    3.1596   -8.1028 H       1  UNL1        0.1437
     18 H         -22.8230    2.8108   -8.6071 H       1  UNL1        0.1437
     19 C         -24.4353    2.6986  -12.1180 C.3     1  UNL1        0.0051
     20 C         -23.6479    1.9604  -11.0394 C.3     1  UNL1        0.0292
     21 C         -13.4512    0.5746  -16.9079 C.3     1  UNL1        0.0468
     22 C         -14.4992    0.2761  -17.9920 C.3     1  UNL1        0.1369
     23 S         -13.9996   -1.1842  -19.0027 S.3     1  UNL1       -0.0482
     24 C         -13.9010   -0.1554  -20.4579 C.2     1  UNL1        0.2792
     25 O         -13.5110   -0.5945  -21.5709 O.2     1  UNL1       -0.2625
     26 N         -14.2817    1.1922  -20.2790 N.am    1  UNL1       -0.2460
     27 C         -14.6341    1.4376  -18.9312 C.2     1  UNL1        0.2392
     28 O         -15.0480    2.5665  -18.5554 O.2     1  UNL1       -0.2737
     29 H         -14.3018    1.9092  -21.0379 H       1  UNL1        0.1583
@<TRIPOS>BOND
     1    19    20    1
     2    20    10    1
     3    10    11   ar
     4    11    12   ar
     5    12    13   ar
     6    13     9    1
     7     9     8    1
     8     8     7    1
     9     7     1    1
    10     1     2   ar
    11     2     3   ar
    12     3     4   ar
    13     4    21    1
    14    21    22    1
    15    22    23    1
    16    23    24    1
    17    24    25    2
    18    24    26   am
    19    26    27   am
    20    27    28    2
    21     4     5   ar
    22     5     6   ar
    23    13    14   ar
    24    14    15   ar
    25    15    16    1
    26    15    10   ar
    27     6     1   ar
    28    27    22    1
    29    26    29    1
    30    16    17    1
    31    16    18    1
@<TRIPOS>MOLECULE
*****
 29 31 0 0 0
SMALL
GASTEIGER

@<TRIPOS>ATOM
      1 C         -25.4883  -13.2999  -14.4286 C.ar    1  UNL1        0.1385
      2 C         -25.7033  -12.0203  -14.9772 C.ar    1  UNL1        0.0366
      3 C         -25.3996  -10.8750  -14.2353 C.ar    1  UNL1       -0.0011
      4 C         -24.8848  -10.9867  -12.9348 C.ar    1  UNL1       -0.0206
      5 C         -24.6704  -12.2616  -12.3892 C.ar    1  UNL1       -0.0011
      6 C         -24.9738  -13.4063  -13.1313 C.ar    1  UNL1        0.0366
      7 O         -25.7740  -14.4853  -15.1263 O.3     1  UNL1       -0.4750
      8 C         -24.9779  -15.0452  -16.1708 C.3     1  UNL1        0.2117
      9 C         -23.4966  -15.0331  -15.7849 C.3     1  UNL1        0.0931
     10 C         -21.8701  -11.0780  -16.1588 C.ar    1  UNL1        0.0090
     11 C         -21.4537  -11.9095  -15.1068 C.ar    1  UNL1       -0.0003
     12 C         -21.9779  -13.1936  -14.9697 C.ar    1  UNL1        0.0146
     13 C         -22.9390  -13.6434  -15.8800 C.ar    1  UNL1        0.0641
     14 N         -23.3387  -12.8281  -16.8920 N.ar    1  UNL1       -0.2356
     15 C         -22.8500  -11.5682  -17.0566 C.ar    1  UNL1        0.1209
     16 N         -23.3534  -10.7782  -18.1397 N.pl3   1  UNL1       -0.3429
     17 H         -24.0587  -11.1874  -18.7917 H       1  UNL1        0.1437
     18 H         -23.0716   -9.7871  -18.2972 H       1  UNL1        0.1437
     19 C         -22.0727   -8.6992  -15.4101 C.3     1  UNL1        0.0051
     20 C         -21.2871   -9.6884  -16.2661 C.3     1  UNL1        0.0292
     21 C         -24.5351   -9.7482  -12.1495 C.3     1  UNL1        0.0468
     22 C         -23.5726  -10.0660  -10.9940 C.3     1  UNL1        0.1369
     23 S         -24.4054   -9.8339   -9.3641 S.3     1  UNL1       -0.0482
     24 C         -23.2570   -8.5311   -8.9521 C.2     1  UNL1        0.2792
     25 O         -23.3463   -7.8623   -7.8899 O.2     1  UNL1       -0.2625
     26 N         -22.2413   -8.2903   -9.9026 N.am    1  UNL1       -0.2460
     27 C         -22.3906   -9.1433  -11.0211 C.2     1  UNL1        0.2392
     28 O         -21.5657   -9.1290  -11.9730 O.2     1  UNL1       -0.2737
     29 H         -21.4828   -7.5807   -9.7941 H       1  UNL1        0.1583
@<TRIPOS>BOND
     1    19    20    1
     2    20    10    1
     3    10    11   ar
     4    11    12   ar
     5    12    13   ar
     6    13     9    1
     7     9     8    1
     8     8     7    1
     9     7     1    1
    10     1     2   ar
    11     2     3   ar
    12     3     4   ar
    13     4    21    1
    14    21    22    1
    15    22    23    1
    16    23    24    1
    17    24    25    2
    18    24    26   am
    19    26    27   am
    20    27    28    2
    21     4     5   ar
    22     5     6   ar
    23    13    14   ar
    24    14    15   ar
    25    15    16    1
    26    15    10   ar
    27     6     1   ar
    28    27    22    1
    29    26    29    1
    30    16    17    1
    31    16    18    1
@<TRIPOS>MOLECULE
*****
 29 31 0 0 0
SMALL
GASTEIGER

@<TRIPOS>ATOM
      1 C         -22.7603   -9.1443  -15.9928 C.ar    1  UNL1        0.1385
      2 C         -21.3735   -9.0485  -15.7642 C.ar    1  UNL1        0.0366
      3 C         -20.8891   -8.3741  -14.6396 C.ar    1  UNL1       -0.0011
      4 C         -21.7772   -7.7791  -13.7308 C.ar    1  UNL1       -0.0206
      5 C         -23.1585   -7.8753  -13.9587 C.ar    1  UNL1       -0.0011
      6 C         -23.6424   -8.5499  -15.0828 C.ar    1  UNL1        0.0366
      7 O         -23.3048   -9.8091  -17.1040 O.3     1  UNL1       -0.4750
      8 C         -23.1247  -11.1911  -17.4138 C.3     1  UNL1        0.2117
      9 C         -23.8086  -12.0720  -16.3651 C.3     1  UNL1        0.0931
     10 C         -21.5440  -12.0096  -12.7188 C.ar    1  UNL1        0.0090
     11 C         -21.0199  -12.6423  -13.8576 C.ar    1  UNL1       -0.0003
     12 C         -21.7469  -12.6754  -15.0463 C.ar    1  UNL1        0.0146
     13 C         -23.0147  -12.0880  -15.0921 C.ar    1  UNL1        0.0641
     14 N         -23.5146  -11.4825  -13.9822 N.ar    1  UNL1       -0.2356
     15 C         -22.8343  -11.4315  -12.8041 C.ar    1  UNL1        0.1209
     16 N         -23.4576  -10.7923  -11.6844 N.pl3   1  UNL1       -0.3429
     17 H         -24.4007  -10.3588  -11.7978 H       1  UNL1        0.1437
     18 H         -23.0262  -10.7629  -10.7361 H       1  UNL1        0.1437
     19 C         -19.7037  -13.1346  -11.4506 C.3     1  UNL1        0.0051
     20 C         -20.7303  -12.0057  -11.4459 C.3     1  UNL1        0.0292
     21 C         -21.2497   -7.0754  -12.5063 C.3     1  UNL1        0.0468
     22 C         -22.3646   -6.8154  -11.4808 C.3     1  UNL1        0.1369
     23 S         -22.3878   -5.0419  -10.9727 S.3     1  UNL1       -0.0482
     24 C         -21.9994   -5.5078   -9.2941 C.2     1  UNL1        0.2792
     25 O         -21.7997   -4.6595   -8.3862 O.2     1  UNL1       -0.2625
     26 N         -21.9208   -6.8958   -9.0490 N.am    1  UNL1       -0.2460
     27 C         -22.1415   -7.6271  -10.2396 C.2     1  UNL1        0.2392
     28 O         -22.1599   -8.8867  -10.2431 O.2     1  UNL1       -0.2737
     29 H         -21.7277   -7.3241   -8.1164 H       1  UNL1        0.1583
@<TRIPOS>BOND
     1    19    20    1
     2    20    10    1
     3    10    11   ar
     4    11    12   ar
     5    12    13   ar
     6    13     9    1
     7     9     8    1
     8     8     7    1
     9     7     1    1
    10     1     2   ar
    11     2     3   ar
    12     3     4   ar
    13     4    21    1
    14    21    22    1
    15    22    23    1
    16    23    24    1
    17    24    25    2
    18    24    26   am
    19    26    27   am
    20    27    28    2
    21     4     5   ar
    22     5     6   ar
    23    13    14   ar
    24    14    15   ar
    25    15    16    1
    26    15    10   ar
    27     6     1   ar
    28    27    22    1
    29    26    29    1
    30    16    17    1
    31    16    18    1
@<TRIPOS>MOLECULE
*****
 29 31 0 0 0
SMALL
GASTEIGER

@<TRIPOS>ATOM
      1 C         -25.4603  -13.2988  -14.4651 C.ar    1  UNL1        0.1385
      2 C         -25.6001  -12.0253  -15.0510 C.ar    1  UNL1        0.0366
      3 C         -25.3397  -10.8729  -14.3038 C.ar    1  UNL1       -0.0011
      4 C         -24.9438  -10.9711  -12.9613 C.ar    1  UNL1       -0.0206
      5 C         -24.8042  -12.2399  -12.3783 C.ar    1  UNL1       -0.0011
      6 C         -25.0643  -13.3917  -13.1258 C.ar    1  UNL1        0.0366
      7 O         -25.7075  -14.4909  -15.1661 O.3     1  UNL1       -0.4750
      8 C         -24.8791  -15.0359  -16.1932 C.3     1  UNL1        0.2117
      9 C         -23.4145  -15.0598  -15.7485 C.3     1  UNL1        0.0931
     10 C         -21.7682  -11.0986  -15.9098 C.ar    1  UNL1        0.0090
     11 C         -22.2993  -11.6837  -17.0705 C.ar    1  UNL1       -0.0003
     12 C         -22.8314  -12.9713  -17.0340 C.ar    1  UNL1        0.0146
     13 C         -22.8161  -13.6865  -15.8328 C.ar    1  UNL1        0.0641
     14 N         -22.2948  -13.1123  -14.7161 N.ar    1  UNL1       -0.2356
     15 C         -21.7656  -11.8580  -14.7141 C.ar    1  UNL1        0.1209
     16 N         -21.2179  -11.3515  -13.4917 N.pl3   1  UNL1       -0.3429
     17 H         -21.2578  -11.9365  -12.6277 H       1  UNL1        0.1437
     18 H         -20.7448  -10.4253  -13.4234 H       1  UNL1        0.1437
     19 C         -22.2948   -8.6535  -15.9789 C.3     1  UNL1        0.0051
     20 C         -21.1897   -9.7055  -15.9932 C.3     1  UNL1        0.0292
     21 C         -24.6395   -9.7256  -12.1681 C.3     1  UNL1        0.0468
     22 C         -23.5865   -9.9925  -11.0807 C.3     1  UNL1        0.1369
     23 S         -24.3244   -9.8248   -9.3981 S.3     1  UNL1       -0.0482
     24 C         -23.2333   -8.4570   -9.0454 C.2     1  UNL1        0.2792
     25 O         -23.2942   -7.8033   -7.9718 O.2     1  UNL1       -0.2625
     26 N         -22.2980   -8.1466  -10.0563 N.am    1  UNL1       -0.2460
     27 C         -22.4673   -8.9985  -11.1729 C.2     1  UNL1        0.2392
     28 O         -21.7082   -8.9259  -12.1756 O.2     1  UNL1       -0.2737
     29 H         -21.5788   -7.3925   -9.9884 H       1  UNL1        0.1583
@<TRIPOS>BOND
     1    19    20    1
     2    20    10    1
     3    10    11   ar
     4    11    12   ar
     5    12    13   ar
     6    13     9    1
     7     9     8    1
     8     8     7    1
     9     7     1    1
    10     1     2   ar
    11     2     3   ar
    12     3     4   ar
    13     4    21    1
    14    21    22    1
    15    22    23    1
    16    23    24    1
    17    24    25    2
    18    24    26   am
    19    26    27   am
    20    27    28    2
    21     4     5   ar
    22     5     6   ar
    23    13    14   ar
    24    14    15   ar
    25    15    16    1
    26    15    10   ar
    27     6     1   ar
    28    27    22    1
    29    26    29    1
    30    16    17    1
    31    16    18    1
@<TRIPOS>MOLECULE
*****
 29 31 0 0 0
SMALL
GASTEIGER

@<TRIPOS>ATOM
      1 C         -25.2855  -13.1431  -14.1434 C.ar    1  UNL1        0.1385
      2 C         -24.6870  -12.8952  -12.8924 C.ar    1  UNL1        0.0366
      3 C         -24.5614  -11.5864  -12.4178 C.ar    1  UNL1       -0.0011
      4 C         -25.0227  -10.5054  -13.1842 C.ar    1  UNL1       -0.0206
      5 C         -25.6194  -10.7529  -14.4299 C.ar    1  UNL1       -0.0011
      6 C         -25.7450  -12.0616  -14.9040 C.ar    1  UNL1        0.0366
      7 O         -25.4392  -14.4358  -14.6713 O.3     1  UNL1       -0.4750
      8 C         -24.8282  -14.9215  -15.8668 C.3     1  UNL1        0.2117
      9 C         -23.3027  -14.8653  -15.7535 C.3     1  UNL1        0.0931
     10 C         -21.8879  -10.8351  -16.1819 C.ar    1  UNL1        0.0090
     11 C         -21.3892  -11.6460  -15.1498 C.ar    1  UNL1       -0.0003
     12 C         -21.8441  -12.9543  -14.9952 C.ar    1  UNL1        0.0146
     13 C         -22.8180  -13.4499  -15.8672 C.ar    1  UNL1        0.0641
     14 N         -23.2976  -12.6544  -16.8600 N.ar    1  UNL1       -0.2356
     15 C         -22.8781  -11.3720  -17.0407 C.ar    1  UNL1        0.1209
     16 N         -23.4628  -10.6067  -18.1005 N.pl3   1  UNL1       -0.3429
     17 H         -24.1731  -11.0495  -18.7247 H       1  UNL1        0.1437
     18 H         -23.2365   -9.6029  -18.2666 H       1  UNL1        0.1437
     19 C         -22.0611   -8.5002  -15.2993 C.3     1  UNL1        0.0051
     20 C         -21.3784   -9.4185  -16.3087 C.3     1  UNL1        0.0292
     21 C         -24.9079   -9.0982  -12.6556 C.3     1  UNL1        0.0468
     22 C         -26.2704   -8.3869  -12.6439 C.3     1  UNL1        0.1369
     23 S         -26.2047   -6.8277  -13.6279 S.3     1  UNL1       -0.0482
     24 C         -26.5514   -5.8748  -12.1591 C.2     1  UNL1        0.2792
     25 O         -26.5764   -4.6166  -12.1599 O.2     1  UNL1       -0.2625
     26 N         -26.7884   -6.6253  -10.9871 N.am    1  UNL1       -0.2460
     27 C         -26.6584   -8.0100  -11.2451 C.2     1  UNL1        0.2392
     28 O         -26.8708   -8.8682  -10.3478 O.2     1  UNL1       -0.2737
     29 H         -27.0283   -6.2145  -10.0574 H       1  UNL1        0.1583
@<TRIPOS>BOND
     1    19    20    1
     2    20    10    1
     3    10    11   ar
     4    11    12   ar
     5    12    13   ar
     6    13     9    1
     7     9     8    1
     8     8     7    1
     9     7     1    1
    10     1     2   ar
    11     2     3   ar
    12     3     4   ar
    13     4    21    1
    14    21    22    1
    15    22    23    1
    16    23    24    1
    17    24    25    2
    18    24    26   am
    19    26    27   am
    20    27    28    2
    21     4     5   ar
    22     5     6   ar
    23    13    14   ar
    24    14    15   ar
    25    15    16    1
    26    15    10   ar
    27     6     1   ar
    28    27    22    1
    29    26    29    1
    30    16    17    1
    31    16    18    1
@<TRIPOS>MOLECULE
*****
 29 31 0 0 0
SMALL
GASTEIGER

@<TRIPOS>ATOM
      1 C         -21.4761   -7.3984  -12.1928 C.ar    1  UNL1        0.1385
      2 C         -21.9421   -6.3874  -11.3294 C.ar    1  UNL1        0.0366
      3 C         -23.2459   -5.8989  -11.4545 C.ar    1  UNL1       -0.0011
      4 C         -24.1018   -6.4039  -12.4450 C.ar    1  UNL1       -0.0206
      5 C         -23.6373   -7.4114  -13.3043 C.ar    1  UNL1       -0.0011
      6 C         -22.3340   -7.8997  -13.1787 C.ar    1  UNL1        0.0366
      7 O         -20.1774   -7.9280  -12.1142 O.3     1  UNL1       -0.4750
      8 C         -19.5695   -8.4624  -10.9381 C.3     1  UNL1        0.2117
      9 C         -20.0994   -9.8692  -10.6492 C.3     1  UNL1        0.0931
     10 C         -24.2170   -9.7562   -9.4409 C.ar    1  UNL1        0.0090
     11 C         -23.8430  -10.4784  -10.5855 C.ar    1  UNL1       -0.0003
     12 C         -22.5107  -10.5186  -10.9929 C.ar    1  UNL1        0.0146
     13 C         -21.5479   -9.8169  -10.2613 C.ar    1  UNL1        0.0641
     14 N         -21.9218   -9.1168   -9.1575 N.ar    1  UNL1       -0.2356
     15 C         -23.2129   -9.0538   -8.7305 C.ar    1  UNL1        0.1209
     16 N         -23.5092   -8.2687   -7.5701 N.pl3   1  UNL1       -0.3429
     17 H         -22.7347   -7.7858   -7.0630 H       1  UNL1        0.1437
     18 H         -24.4787   -8.1250   -7.2153 H       1  UNL1        0.1437
     19 C         -26.4184   -8.6125   -9.7674 C.3     1  UNL1        0.0051
     20 C         -25.6731   -9.7271   -9.0390 C.3     1  UNL1        0.0292
     21 C         -25.5151   -5.8914  -12.5584 C.3     1  UNL1        0.0468
     22 C         -26.1707   -6.3313  -13.8771 C.3     1  UNL1        0.1369
     23 S         -26.6530   -4.8668  -14.8903 S.3     1  UNL1       -0.0482
     24 C         -28.3711   -5.3343  -14.7654 C.2     1  UNL1        0.2792
     25 O         -29.2992   -4.6313  -15.2429 O.2     1  UNL1       -0.2625
     26 N         -28.6258   -6.5449  -14.0853 N.am    1  UNL1       -0.2460
     27 C         -27.4214   -7.1148  -13.6105 C.2     1  UNL1        0.2392
     28 O         -27.4104   -8.2227  -13.0110 O.2     1  UNL1       -0.2737
     29 H         -29.5734   -6.9631  -13.9524 H       1  UNL1        0.1583
@<TRIPOS>BOND
     1    19    20    1
     2    20    10    1
     3    10    11   ar
     4    11    12   ar
     5    12    13   ar
     6    13     9    1
     7     9     8    1
     8     8     7    1
     9     7     1    1
    10     1     2   ar
    11     2     3   ar
    12     3     4   ar
    13     4    21    1
    14    21    22    1
    15    22    23    1
    16    23    24    1
    17    24    25    2
    18    24    26   am
    19    26    27   am
    20    27    28    2
    21     4     5   ar
    22     5     6   ar
    23    13    14   ar
    24    14    15   ar
    25    15    16    1
    26    15    10   ar
    27     6     1   ar
    28    27    22    1
    29    26    29    1
    30    16    17    1
    31    16    18    1
@<TRIPOS>MOLECULE
*****
 29 31 0 0 0
SMALL
GASTEIGER

@<TRIPOS>ATOM
      1 C         -24.9819  -11.5243  -13.4365 C.ar    1  UNL1        0.1385
      2 C         -25.0518  -10.2033  -13.9212 C.ar    1  UNL1        0.0366
      3 C         -24.1986   -9.2197  -13.4128 C.ar    1  UNL1       -0.0011
      4 C         -23.2692   -9.5345  -12.4099 C.ar    1  UNL1       -0.0206
      5 C         -23.1996  -10.8506  -11.9279 C.ar    1  UNL1       -0.0011
      6 C         -24.0525  -11.8338  -12.4367 C.ar    1  UNL1        0.0366
      7 O         -25.8125  -12.5538  -13.9094 O.3     1  UNL1       -0.4750
      8 C         -25.4090  -13.9030  -14.1442 C.3     1  UNL1        0.2117
      9 C         -24.7676  -14.0408  -15.5273 C.3     1  UNL1        0.0931
     10 C         -21.9744  -10.8793  -16.3218 C.ar    1  UNL1        0.0090
     11 C         -21.6600  -11.8704  -15.3781 C.ar    1  UNL1       -0.0003
     12 C         -22.5600  -12.8992  -15.1057 C.ar    1  UNL1        0.0146
     13 C         -23.7909  -12.9274  -15.7680 C.ar    1  UNL1        0.0641
     14 N         -24.0872  -11.9600  -16.6761 N.ar    1  UNL1       -0.2356
     15 C         -23.2340  -10.9398  -16.9669 C.ar    1  UNL1        0.1209
     16 N         -23.6489   -9.9553  -17.9205 N.pl3   1  UNL1       -0.3429
     17 H         -24.5768  -10.0512  -18.3897 H       1  UNL1        0.1437
     18 H         -23.0774   -9.1154  -18.1534 H       1  UNL1        0.1437
     19 C         -21.3573   -8.5072  -15.8192 C.3     1  UNL1        0.0051
     20 C         -20.9773   -9.7741  -16.5801 C.3     1  UNL1        0.0292
     21 C         -22.3342   -8.4753  -11.8838 C.3     1  UNL1        0.0468
     22 C         -23.0464   -7.5312  -10.9020 C.3     1  UNL1        0.1369
     23 S         -22.4849   -5.7902  -11.1422 S.3     1  UNL1       -0.0482
     24 C         -21.8146   -5.7681   -9.4881 C.2     1  UNL1        0.2792
     25 O         -21.1802   -4.7831   -9.0291 O.2     1  UNL1       -0.2625
     26 N         -22.0341   -6.9357   -8.7255 N.am    1  UNL1       -0.2460
     27 C         -22.7301   -7.9054   -9.4846 C.2     1  UNL1        0.2392
     28 O         -23.0704   -9.0106   -8.9850 O.2     1  UNL1       -0.2737
     29 H         -21.7261   -7.0652   -7.7361 H       1  UNL1        0.1583
@<TRIPOS>BOND
     1    19    20    1
     2    20    10    1
     3    10    11   ar
     4    11    12   ar
     5    12    13   ar
     6    13     9    1
     7     9     8    1
     8     8     7    1
     9     7     1    1
    10     1     2   ar
    11     2     3   ar
    12     3     4   ar
    13     4    21    1
    14    21    22    1
    15    22    23    1
    16    23    24    1
    17    24    25    2
    18    24    26   am
    19    26    27   am
    20    27    28    2
    21     4     5   ar
    22     5     6   ar
    23    13    14   ar
    24    14    15   ar
    25    15    16    1
    26    15    10   ar
    27     6     1   ar
    28    27    22    1
    29    26    29    1
    30    16    17    1
    31    16    18    1
@<TRIPOS>MOLECULE
*****
 29 31 0 0 0
SMALL
GASTEIGER

@<TRIPOS>ATOM
      1 C         -22.1555  -10.1693  -10.4404 C.ar    1  UNL1        0.1385
      2 C         -21.0347  -10.8407  -10.9674 C.ar    1  UNL1        0.0366
      3 C         -21.1621  -11.6364  -12.1096 C.ar    1  UNL1       -0.0011
      4 C         -22.4076  -11.7813  -12.7392 C.ar    1  UNL1       -0.0206
      5 C         -23.5236  -11.1118  -12.2141 C.ar    1  UNL1       -0.0011
      6 C         -23.3958  -10.3162  -11.0724 C.ar    1  UNL1        0.0366
      7 O         -22.0880   -9.3565   -9.2966 O.3     1  UNL1       -0.4750
      8 C         -22.6450   -8.0475   -9.1754 C.3     1  UNL1        0.2117
      9 C         -21.8072   -7.0310   -9.9553 C.3     1  UNL1        0.0931
     10 C         -22.2204   -7.7999  -14.1584 C.ar    1  UNL1        0.0090
     11 C         -20.9495   -7.8330  -13.5624 C.ar    1  UNL1       -0.0003
     12 C         -20.7999   -7.5793  -12.2001 C.ar    1  UNL1        0.0146
     13 C         -21.9266   -7.2722  -11.4314 C.ar    1  UNL1        0.0641
     14 N         -23.1518   -7.2379  -12.0197 N.ar    1  UNL1       -0.2356
     15 C         -23.3361   -7.4790  -13.3468 C.ar    1  UNL1        0.1209
     16 N         -24.6638   -7.3942  -13.8768 N.pl3   1  UNL1       -0.3429
     17 H         -25.4608   -7.1773  -13.2381 H       1  UNL1        0.1437
     18 H         -24.8779   -7.5087  -14.8904 H       1  UNL1        0.1437
     19 C         -20.9634   -8.2480  -16.2749 C.3     1  UNL1        0.0051
     20 C         -22.3394   -8.0686  -15.6403 C.3     1  UNL1        0.0292
     21 C         -22.5335  -12.6201  -13.9856 C.3     1  UNL1        0.0468
     22 C         -23.9788  -12.6401  -14.5085 C.3     1  UNL1        0.1369
     23 S         -24.7317  -14.3103  -14.2914 S.3     1  UNL1       -0.0482
     24 C         -24.8969  -14.4765  -16.0608 C.2     1  UNL1        0.2792
     25 O         -25.3286  -15.5265  -16.6036 O.2     1  UNL1       -0.2625
     26 N         -24.5018  -13.3527  -16.8184 N.am    1  UNL1       -0.2460
     27 C         -24.0151  -12.3268  -15.9748 C.2     1  UNL1        0.2392
     28 O         -23.6481  -11.2143  -16.4378 O.2     1  UNL1       -0.2737
     29 H         -24.5620  -13.2872  -17.8589 H       1  UNL1        0.1583
@<TRIPOS>BOND
     1    19    20    1
     2    20    10    1
     3    10    11   ar
     4    11    12   ar
     5    12    13   ar
     6    13     9    1
     7     9     8    1
     8     8     7    1
     9     7     1    1
    10     1     2   ar
    11     2     3   ar
    12     3     4   ar
    13     4    21    1
    14    21    22    1
    15    22    23    1
    16    23    24    1
    17    24    25    2
    18    24    26   am
    19    26    27   am
    20    27    28    2
    21     4     5   ar
    22     5     6   ar
    23    13    14   ar
    24    14    15   ar
    25    15    16    1
    26    15    10   ar
    27     6     1   ar
    28    27    22    1
    29    26    29    1
    30    16    17    1
    31    16    18    1
@<TRIPOS>MOLECULE
*****
 29 31 0 0 0
SMALL
GASTEIGER

@<TRIPOS>ATOM
      1 C         -14.7408    0.8395  -13.8751 C.ar    1  UNL1        0.1385
      2 C         -13.8354    1.8851  -14.1428 C.ar    1  UNL1        0.0366
      3 C         -13.4461    2.1617  -15.4566 C.ar    1  UNL1       -0.0011
      4 C         -13.9462    1.3973  -16.5217 C.ar    1  UNL1       -0.0206
      5 C         -14.8484    0.3562  -16.2545 C.ar    1  UNL1       -0.0011
      6 C         -15.2376    0.0802  -14.9409 C.ar    1  UNL1        0.0366
      7 O         -15.1680    0.5159  -12.5766 O.3     1  UNL1       -0.4750
      8 C         -15.9251    1.3674  -11.7163 C.3     1  UNL1        0.2117
      9 C         -16.7152    2.3932  -12.5328 C.3     1  UNL1        0.0931
     10 C         -20.9250    2.1475  -11.7296 C.ar    1  UNL1        0.0090
     11 C         -20.1466    3.1264  -11.0912 C.ar    1  UNL1       -0.0003
     12 C         -18.7776    3.2137  -11.3379 C.ar    1  UNL1        0.0146
     13 C         -18.1790    2.3044  -12.2150 C.ar    1  UNL1        0.0641
     14 N         -18.9412    1.3575  -12.8239 N.ar    1  UNL1       -0.2356
     15 C         -20.2801    1.2412  -12.6065 C.ar    1  UNL1        0.1209
     16 N         -20.9908    0.1942  -13.2769 N.pl3   1  UNL1       -0.3429
     17 H         -20.4800   -0.4374  -13.9329 H       1  UNL1        0.1437
     18 H         -22.0035    0.0051  -13.1187 H       1  UNL1        0.1437
     19 C         -22.6770    2.4107   -9.9627 C.3     1  UNL1        0.0051
     20 C         -22.4034    2.0777  -11.4264 C.3     1  UNL1        0.0292
     21 C         -13.5426    1.7169  -17.9387 C.3     1  UNL1        0.0468
     22 C         -14.5851    1.2128  -18.9495 C.3     1  UNL1        0.1369
     23 S         -13.8356   -0.0106  -20.1095 S.3     1  UNL1       -0.0482
     24 C         -14.1524    1.0837  -21.4834 C.2     1  UNL1        0.2792
     25 O         -13.7794    0.8214  -22.6563 O.2     1  UNL1       -0.2625
     26 N         -14.8438    2.2736  -21.1686 N.am    1  UNL1       -0.2460
     27 C         -15.1073    2.3466  -19.7807 C.2     1  UNL1        0.2392
     28 O         -15.7548    3.3065  -19.2845 O.2     1  UNL1       -0.2737
     29 H         -15.1238    2.9996  -21.8651 H       1  UNL1        0.1583
@<TRIPOS>BOND
     1    19    20    1
     2    20    10    1
     3    10    11   ar
     4    11    12   ar
     5    12    13   ar
     6    13     9    1
     7     9     8    1
     8     8     7    1
     9     7     1    1
    10     1     2   ar
    11     2     3   ar
    12     3     4   ar
    13     4    21    1
    14    21    22    1
    15    22    23    1
    16    23    24    1
    17    24    25    2
    18    24    26   am
    19    26    27   am
    20    27    28    2
    21     4     5   ar
    22     5     6   ar
    23    13    14   ar
    24    14    15   ar
    25    15    16    1
    26    15    10   ar
    27     6     1   ar
    28    27    22    1
    29    26    29    1
    30    16    17    1
    31    16    18    1
