@<TRIPOS>MOLECULE
*****
 61 65 0 0 0
SMALL
GASTEIGER

@<TRIPOS>ATOM
      1 C         -24.6218   -7.3581  -14.4176 C.ar    1  UNL1        0.0993
      2 C         -25.5096   -6.3689  -14.8665 C.ar    1  UNL1        0.0235
      3 C         -26.8073   -6.2660  -14.3354 C.ar    1  UNL1        0.0548
      4 C         -27.2181   -7.1967  -13.3682 C.ar    1  UNL1        0.0077
      5 C         -26.3552   -8.2085  -12.9474 C.ar    1  UNL1        0.0390
      6 C         -25.0459   -8.2892  -13.4549 C.ar    1  UNL1        0.1598
      7 C         -27.7243   -5.1752  -14.7498 C.2     1  UNL1        0.2458
      8 O         -27.2329   -4.0988  -15.1851 O.2     1  UNL1       -0.2701
      9 N         -29.1547   -5.3271  -14.6490 N.am    1  UNL1       -0.3040
     10 H         -29.5127   -6.1161  -14.0650 H       1  UNL1        0.1496
     11 C         -30.1449   -4.4304  -15.2787 C.3     1  UNL1        0.0572
     12 C         -29.7666   -4.1596  -16.7483 C.3     1  UNL1        0.0196
     13 C         -30.2370   -3.1051  -14.4974 C.3     1  UNL1        0.0196
     14 C         -31.5286   -5.1124  -15.2501 C.3     1  UNL1        0.0196
     15 N         -23.2778   -7.4039  -14.9175 N.pl3   1  UNL1       -0.2120
     16 H         -22.6093   -6.6491  -14.6460 H       1  UNL1        0.1738
     17 S         -22.8605   -8.3651  -16.3005 S.O2    1  UNL1        0.0745
     18 O         -23.7859   -8.0086  -17.4303 O.2     1  UNL1       -0.1499
     19 O         -21.4603   -8.0463  -16.7412 O.2     1  UNL1       -0.1499
     20 C         -22.5752  -12.1641  -14.6803 C.ar    1  UNL1       -0.0146
     21 C         -23.8053  -12.7138  -15.1554 C.ar    1  UNL1       -0.0256
     22 C         -24.5933  -11.9793  -16.0496 C.ar    1  UNL1       -0.0032
     23 C         -24.2629  -10.6774  -16.3881 C.ar    1  UNL1        0.0207
     24 C         -23.0988  -10.0828  -15.9024 C.ar    1  UNL1        0.1353
     25 C         -22.2246  -10.8341  -15.0758 C.ar    1  UNL1        0.0722
     26 CL        -20.6905  -10.1173  -14.5757 Cl      1  UNL1       -0.0812
     27 C         -21.3110  -12.2281  -12.4656 C.3     1  UNL1        0.0047
     28 C         -21.6762  -12.9948  -13.7448 C.3     1  UNL1        0.0229
     29 C         -20.4409  -13.5853  -14.4449 C.3     1  UNL1        0.0047
     30 C         -24.2597  -14.1162  -14.8005 C.3     1  UNL1        0.0221
     31 C         -23.6346  -15.2722  -15.5797 C.3     1  UNL1        0.0047
     32 C         -25.0423  -14.8198  -15.9049 C.3     1  UNL1        0.0047
     33 O         -24.1512   -9.2811  -13.0204 O.3     1  UNL1       -0.4513
     34 C         -23.2045   -9.0939  -12.0068 C.ar    1  UNL1        0.1580
     35 C         -21.9881   -8.4817  -12.3236 C.ar    1  UNL1        0.0677
     36 C         -20.9902   -8.3446  -11.3548 C.ar    1  UNL1        0.1398
     37 F         -19.7934   -7.8125  -11.7108 F       1  UNL1       -0.2044
     38 C         -21.2171   -8.7886  -10.0395 C.ar    1  UNL1        0.0175
     39 C         -22.4594   -9.3552   -9.7109 C.ar    1  UNL1        0.0130
     40 C         -23.4511   -9.5080  -10.6845 C.ar    1  UNL1        0.0919
     41 CL        -24.9912  -10.2164  -10.2211 Cl      1  UNL1       -0.0791
     42 C         -20.1058   -8.8007   -9.0229 C.3     1  UNL1        0.1382
     43 C         -20.0866   -7.4838   -8.3145 C.2     1  UNL1        0.3234
     44 O         -21.0368   -6.6694   -8.4691 O.2     1  UNL1       -0.2497
     45 O         -19.0306   -7.1938   -7.4442 O.3     1  UNL1       -0.4215
     46 C         -18.7394   -7.9676   -6.2821 C.3     1  UNL1        0.3207
     47 O         -19.9417   -8.1420   -5.5572 O.3     1  UNL1       -0.3070
     48 C         -19.7660   -9.0960   -4.5197 C.3     1  UNL1        0.2456
     49 C         -18.5499   -8.7671   -3.5982 C.3     1  UNL1        0.1781
     50 O         -17.5457   -9.7301   -3.8001 O.3     1  UNL1       -0.3790
     51 C         -17.9929   -7.3613   -3.9086 C.3     1  UNL1        0.1733
     52 O         -18.9291   -6.3836   -3.5283 O.3     1  UNL1       -0.3793
     53 C         -17.6907   -7.2176   -5.4147 C.3     1  UNL1        0.2106
     54 O         -16.4057   -7.7221   -5.6787 O.3     1  UNL1       -0.3766
     55 H         -16.9107   -9.6510   -3.0408 H       1  UNL1        0.2106
     56 H         -18.8820   -6.3081   -2.5393 H       1  UNL1        0.2105
     57 H         -16.0606   -7.2389   -6.4738 H       1  UNL1        0.2107
     58 C         -21.0307   -9.1461   -3.7132 C.2     1  UNL1        0.3439
     59 O         -22.0921   -8.6423   -4.1694 O.2     1  UNL1       -0.2475
     60 O         -21.0433   -9.7893   -2.4789 O.3     1  UNL1       -0.4785
     61 H         -21.8935   -9.8462   -1.9313 H       1  UNL1        0.2951
@<TRIPOS>BOND
     1    27    28    1
     2    28    29    1
     3    28    20    1
     4    20    21   ar
     5    21    30    1
     6    30    31    1
     7    31    32    1
     8    21    22   ar
     9    22    23   ar
    10    23    24   ar
    11    24    17    1
    12    17    18    2
    13    17    19    2
    14    17    15    1
    15    15     1    1
    16     1     2   ar
    17     2     3   ar
    18     3     7    1
    19     7     8    2
    20     7     9   am
    21     9    11    1
    22    11    12    1
    23    11    13    1
    24    11    14    1
    25     3     4   ar
    26     4     5   ar
    27     5     6   ar
    28     6    33    1
    29    33    34    1
    30    34    35   ar
    31    35    36   ar
    32    36    37    1
    33    36    38   ar
    34    38    42    1
    35    42    43    1
    36    43    44    2
    37    43    45    1
    38    45    46    1
    39    46    47    1
    40    47    48    1
    41    48    58    1
    42    58    59    2
    43    58    60    1
    44    48    49    1
    45    49    50    1
    46    49    51    1
    47    51    52    1
    48    51    53    1
    49    53    54    1
    50    38    39   ar
    51    39    40   ar
    52    40    41    1
    53    24    25   ar
    54    25    26    1
    55    25    20   ar
    56    32    30    1
    57     6     1   ar
    58    40    34   ar
    59    53    46    1
    60    15    16    1
    61     9    10    1
    62    60    61    1
    63    50    55    1
    64    52    56    1
    65    54    57    1
@<TRIPOS>MOLECULE
*****
 61 65 0 0 0
SMALL
GASTEIGER

@<TRIPOS>ATOM
      1 C         -24.5631   -7.3486  -14.4825 C.ar    1  UNL1        0.0993
      2 C         -25.4593   -6.3585  -14.9125 C.ar    1  UNL1        0.0235
      3 C         -26.7438   -6.2516  -14.3509 C.ar    1  UNL1        0.0548
      4 C         -27.1335   -7.1793  -13.3722 C.ar    1  UNL1        0.0077
      5 C         -26.2629   -8.1920  -12.9697 C.ar    1  UNL1        0.0390
      6 C         -24.9662   -8.2767  -13.5079 C.ar    1  UNL1        0.1598
      7 C         -27.6681   -5.1598  -14.7459 C.2     1  UNL1        0.2458
      8 O         -27.1839   -4.0584  -15.1230 O.2     1  UNL1       -0.2701
      9 N         -29.0978   -5.3391  -14.6915 N.am    1  UNL1       -0.3040
     10 H         -29.4578   -6.1573  -14.1505 H       1  UNL1        0.1496
     11 C         -30.0861   -4.4335  -15.3115 C.3     1  UNL1        0.0572
     12 C         -29.6470   -4.0561  -16.7402 C.3     1  UNL1        0.0196
     13 C         -30.2595   -3.1654  -14.4530 C.3     1  UNL1        0.0196
     14 C         -31.4461   -5.1572  -15.3956 C.3     1  UNL1        0.0196
     15 N         -23.2315   -7.3984  -15.0141 N.pl3   1  UNL1       -0.2120
     16 H         -22.5601   -6.6357  -14.7734 H       1  UNL1        0.1738
     17 S         -22.8435   -8.3842  -16.3882 S.O2    1  UNL1        0.0745
     18 O         -23.7759   -8.0294  -17.5128 O.2     1  UNL1       -0.1499
     19 O         -21.4437   -8.0919  -16.8484 O.2     1  UNL1       -0.1499
     20 C         -22.5744  -12.1741  -14.7441 C.ar    1  UNL1       -0.0146
     21 C         -23.8343  -12.7009  -15.1638 C.ar    1  UNL1       -0.0256
     22 C         -24.6421  -11.9572  -16.0325 C.ar    1  UNL1       -0.0032
     23 C         -24.2977  -10.6659  -16.3967 C.ar    1  UNL1        0.0207
     24 C         -23.1023  -10.0927  -15.9642 C.ar    1  UNL1        0.1353
     25 C         -22.2117  -10.8556  -15.1663 C.ar    1  UNL1        0.0722
     26 CL        -20.6434  -10.1682  -14.7357 Cl      1  UNL1       -0.0812
     27 C         -21.2862  -12.2752  -12.5447 C.3     1  UNL1        0.0047
     28 C         -21.6562  -13.0160  -13.8377 C.3     1  UNL1        0.0229
     29 C         -20.4218  -13.5756  -14.5642 C.3     1  UNL1        0.0047
     30 C         -24.3041  -14.0898  -14.7771 C.3     1  UNL1        0.0221
     31 C         -23.6820  -15.2707  -15.5207 C.3     1  UNL1        0.0047
     32 C         -25.0828  -14.8150  -15.8703 C.3     1  UNL1        0.0047
     33 O         -24.0635   -9.2695  -13.0926 O.3     1  UNL1       -0.4513
     34 C         -23.0526   -9.0643  -12.1468 C.ar    1  UNL1        0.1580
     35 C         -21.9023   -8.3673  -12.5282 C.ar    1  UNL1        0.0677
     36 C         -20.8410   -8.2072  -11.6331 C.ar    1  UNL1        0.1398
     37 F         -19.7086   -7.5896  -12.0556 F       1  UNL1       -0.2044
     38 C         -20.9379   -8.7149  -10.3249 C.ar    1  UNL1        0.0175
     39 C         -22.1157   -9.3686   -9.9277 C.ar    1  UNL1        0.0130
     40 C         -23.1703   -9.5437  -10.8287 C.ar    1  UNL1        0.0919
     41 CL        -24.6257  -10.3622  -10.2807 Cl      1  UNL1       -0.0791
     42 C         -19.7514   -8.6986   -9.3972 C.3     1  UNL1        0.1382
     43 C         -20.1361   -7.9941   -8.1354 C.2     1  UNL1        0.3234
     44 O         -20.5458   -6.8022   -8.1771 O.2     1  UNL1       -0.2497
     45 O         -20.0834   -8.6903   -6.9234 O.3     1  UNL1       -0.4215
     46 C         -19.4823   -8.1618   -5.7429 C.3     1  UNL1        0.3207
     47 O         -18.0877   -8.3855   -5.8215 O.3     1  UNL1       -0.3070
     48 C         -17.4090   -7.6780   -4.7938 C.3     1  UNL1        0.2456
     49 C         -17.9872   -7.9753   -3.3747 C.3     1  UNL1        0.1781
     50 O         -18.6247   -6.8213   -2.8865 O.3     1  UNL1       -0.3790
     51 C         -18.9949   -9.1435   -3.4283 C.3     1  UNL1        0.1733
     52 O         -18.3214  -10.3395   -3.7332 O.3     1  UNL1       -0.3793
     53 C         -20.0744   -8.8803   -4.4988 C.3     1  UNL1        0.2106
     54 O         -21.0991   -8.0978   -3.9394 O.3     1  UNL1       -0.3766
     55 H         -18.7532   -6.9515   -1.9104 H       1  UNL1        0.2106
     56 H         -17.8571  -10.6287   -2.9045 H       1  UNL1        0.2105
     57 H         -21.9328   -8.3134   -4.4328 H       1  UNL1        0.2107
     58 C         -15.9565   -8.0509   -4.8517 C.2     1  UNL1        0.3439
     59 O         -15.6015   -9.2442   -4.6557 O.2     1  UNL1       -0.2475
     60 O         -15.0032   -7.0869   -5.1671 O.3     1  UNL1       -0.4785
     61 H         -14.0211   -7.3274   -5.2270 H       1  UNL1        0.2951
@<TRIPOS>BOND
     1    27    28    1
     2    28    29    1
     3    28    20    1
     4    20    21   ar
     5    21    30    1
     6    30    31    1
     7    31    32    1
     8    21    22   ar
     9    22    23   ar
    10    23    24   ar
    11    24    17    1
    12    17    18    2
    13    17    19    2
    14    17    15    1
    15    15     1    1
    16     1     2   ar
    17     2     3   ar
    18     3     7    1
    19     7     8    2
    20     7     9   am
    21     9    11    1
    22    11    12    1
    23    11    13    1
    24    11    14    1
    25     3     4   ar
    26     4     5   ar
    27     5     6   ar
    28     6    33    1
    29    33    34    1
    30    34    35   ar
    31    35    36   ar
    32    36    37    1
    33    36    38   ar
    34    38    42    1
    35    42    43    1
    36    43    44    2
    37    43    45    1
    38    45    46    1
    39    46    47    1
    40    47    48    1
    41    48    58    1
    42    58    59    2
    43    58    60    1
    44    48    49    1
    45    49    50    1
    46    49    51    1
    47    51    52    1
    48    51    53    1
    49    53    54    1
    50    38    39   ar
    51    39    40   ar
    52    40    41    1
    53    24    25   ar
    54    25    26    1
    55    25    20   ar
    56    32    30    1
    57     6     1   ar
    58    40    34   ar
    59    53    46    1
    60    15    16    1
    61     9    10    1
    62    60    61    1
    63    50    55    1
    64    52    56    1
    65    54    57    1
@<TRIPOS>MOLECULE
*****
 61 65 0 0 0
SMALL
GASTEIGER

@<TRIPOS>ATOM
      1 C         -20.0922   -7.7184  -10.0443 C.ar    1  UNL1        0.0993
      2 C         -19.8721   -7.5303   -8.6715 C.ar    1  UNL1        0.0235
      3 C         -19.3889   -8.5763   -7.8659 C.ar    1  UNL1        0.0548
      4 C         -19.1623   -9.8318   -8.4514 C.ar    1  UNL1        0.0077
      5 C         -19.4186  -10.0377   -9.8070 C.ar    1  UNL1        0.0390
      6 C         -19.8696   -8.9811  -10.6184 C.ar    1  UNL1        0.1598
      7 C         -19.0809   -8.3627   -6.4300 C.2     1  UNL1        0.2458
      8 O         -20.0343   -8.2234   -5.6168 O.2     1  UNL1       -0.2701
      9 N         -17.7183   -8.3008   -5.9625 N.am    1  UNL1       -0.3040
     10 H         -16.9706   -8.1732   -6.6810 H       1  UNL1        0.1496
     11 C         -17.3086   -8.3677   -4.5451 C.3     1  UNL1        0.0572
     12 C         -17.7864   -9.6882   -3.9093 C.3     1  UNL1        0.0196
     13 C         -17.8769   -7.1640   -3.7684 C.3     1  UNL1        0.0196
     14 C         -15.7685   -8.3186   -4.4653 C.3     1  UNL1        0.0196
     15 N         -20.5163   -6.6210  -10.8654 N.pl3   1  UNL1       -0.2120
     16 H         -19.8860   -6.2832  -11.6263 H       1  UNL1        0.1738
     17 S         -21.7813   -5.5480  -10.3565 S.O2    1  UNL1        0.0745
     18 O         -21.8350   -5.5467   -8.8542 O.2     1  UNL1       -0.1499
     19 O         -21.4734   -4.1468  -10.8020 O.2     1  UNL1       -0.1499
     20 C         -25.2881   -7.6689  -10.9421 C.ar    1  UNL1       -0.0146
     21 C         -25.9372   -6.7961  -11.8683 C.ar    1  UNL1       -0.0256
     22 C         -25.2457   -5.6928  -12.3827 C.ar    1  UNL1       -0.0032
     23 C         -23.9838   -5.3616  -11.9170 C.ar    1  UNL1        0.0207
     24 C         -23.3361   -6.1562  -10.9718 C.ar    1  UNL1        0.1353
     25 C         -23.9660   -7.3382  -10.5050 C.ar    1  UNL1        0.0722
     26 CL        -23.0828   -8.4054   -9.4102 Cl      1  UNL1       -0.0812
     27 C         -26.9849   -8.5829   -9.2710 C.3     1  UNL1        0.0047
     28 C         -26.0250   -8.9177  -10.4217 C.3     1  UNL1        0.0229
     29 C         -25.0860  -10.0861  -10.0781 C.3     1  UNL1        0.0047
     30 C         -27.3326   -7.0649  -12.3975 C.3     1  UNL1        0.0221
     31 C         -27.4446   -7.7938  -13.7356 C.3     1  UNL1        0.0047
     32 C         -27.6781   -6.2994  -13.6711 C.3     1  UNL1        0.0047
     33 O         -20.1028   -9.1598  -11.9920 O.3     1  UNL1       -0.4513
     34 C         -21.3562   -9.4488  -12.5436 C.ar    1  UNL1        0.1580
     35 C         -22.0165   -8.4577  -13.2759 C.ar    1  UNL1        0.0677
     36 C         -23.3006   -8.6849  -13.7787 C.ar    1  UNL1        0.1398
     37 F         -23.9450   -7.6787  -14.4224 F       1  UNL1       -0.2044
     38 C         -23.9252   -9.9301  -13.5837 C.ar    1  UNL1        0.0175
     39 C         -23.2384  -10.9420  -12.8934 C.ar    1  UNL1        0.0130
     40 C         -21.9609  -10.7086  -12.3756 C.ar    1  UNL1        0.0919
     41 CL        -21.1406  -12.0097  -11.5255 Cl      1  UNL1       -0.0791
     42 C         -25.3646  -10.1445  -13.9721 C.3     1  UNL1        0.1382
     43 C         -25.4967  -11.4922  -14.6068 C.2     1  UNL1        0.3234
     44 O         -25.8384  -12.4871  -13.9115 O.2     1  UNL1       -0.2497
     45 O         -25.2868  -11.6201  -15.9838 O.3     1  UNL1       -0.4215
     46 C         -24.0897  -12.1532  -16.5466 C.3     1  UNL1        0.3207
     47 O         -23.3747  -12.8104  -15.5180 O.3     1  UNL1       -0.3070
     48 C         -22.2961  -13.5599  -16.0588 C.3     1  UNL1        0.2456
     49 C         -21.3725  -12.7058  -16.9828 C.3     1  UNL1        0.1781
     50 O         -21.5205  -13.1418  -18.3113 O.3     1  UNL1       -0.3790
     51 C         -21.7334  -11.2082  -16.8833 C.3     1  UNL1        0.1733
     52 O         -21.4068  -10.7238  -15.6044 O.3     1  UNL1       -0.3793
     53 C         -23.2399  -10.9948  -17.1388 C.3     1  UNL1        0.2106
     54 O         -23.4650  -10.8979  -18.5227 O.3     1  UNL1       -0.3766
     55 H         -20.7565  -12.7705  -18.8255 H       1  UNL1        0.2106
     56 H         -20.4213  -10.6043  -15.5839 H       1  UNL1        0.2105
     57 H         -24.2748  -10.3380  -18.6478 H       1  UNL1        0.2107
     58 C         -21.5057  -14.1297  -14.9175 C.2     1  UNL1        0.3439
     59 O         -20.5089  -13.5055  -14.4646 O.2     1  UNL1       -0.2475
     60 O         -21.9001  -15.3273  -14.3279 O.3     1  UNL1       -0.4785
     61 H         -21.3867  -15.7153  -13.5457 H       1  UNL1        0.2951
@<TRIPOS>BOND
     1    27    28    1
     2    28    29    1
     3    28    20    1
     4    20    21   ar
     5    21    30    1
     6    30    31    1
     7    31    32    1
     8    21    22   ar
     9    22    23   ar
    10    23    24   ar
    11    24    17    1
    12    17    18    2
    13    17    19    2
    14    17    15    1
    15    15     1    1
    16     1     2   ar
    17     2     3   ar
    18     3     7    1
    19     7     8    2
    20     7     9   am
    21     9    11    1
    22    11    12    1
    23    11    13    1
    24    11    14    1
    25     3     4   ar
    26     4     5   ar
    27     5     6   ar
    28     6    33    1
    29    33    34    1
    30    34    35   ar
    31    35    36   ar
    32    36    37    1
    33    36    38   ar
    34    38    42    1
    35    42    43    1
    36    43    44    2
    37    43    45    1
    38    45    46    1
    39    46    47    1
    40    47    48    1
    41    48    58    1
    42    58    59    2
    43    58    60    1
    44    48    49    1
    45    49    50    1
    46    49    51    1
    47    51    52    1
    48    51    53    1
    49    53    54    1
    50    38    39   ar
    51    39    40   ar
    52    40    41    1
    53    24    25   ar
    54    25    26    1
    55    25    20   ar
    56    32    30    1
    57     6     1   ar
    58    40    34   ar
    59    53    46    1
    60    15    16    1
    61     9    10    1
    62    60    61    1
    63    50    55    1
    64    52    56    1
    65    54    57    1
@<TRIPOS>MOLECULE
*****
 61 65 0 0 0
SMALL
GASTEIGER

@<TRIPOS>ATOM
      1 C         -20.6096   -8.3179  -10.5540 C.ar    1  UNL1        0.0993
      2 C         -20.0831   -8.5507   -9.2746 C.ar    1  UNL1        0.0235
      3 C         -20.0900   -7.5427   -8.2946 C.ar    1  UNL1        0.0548
      4 C         -20.6020   -6.2789   -8.6278 C.ar    1  UNL1        0.0077
      5 C         -21.0889   -6.0277   -9.9105 C.ar    1  UNL1        0.0390
      6 C         -21.1124   -7.0471  -10.8792 C.ar    1  UNL1        0.1598
      7 C         -19.6055   -7.8055   -6.9167 C.2     1  UNL1        0.2458
      8 O         -20.3641   -8.4061   -6.1085 O.2     1  UNL1       -0.2701
      9 N         -18.2959   -7.3749   -6.4938 N.am    1  UNL1       -0.3040
     10 H         -17.8032   -6.6776   -7.0960 H       1  UNL1        0.1496
     11 C         -17.6201   -7.8185   -5.2577 C.3     1  UNL1        0.0572
     12 C         -17.4283   -9.3480   -5.2694 C.3     1  UNL1        0.0196
     13 C         -18.4353   -7.3913   -4.0216 C.3     1  UNL1        0.0196
     14 C         -16.2296   -7.1543   -5.1804 C.3     1  UNL1        0.0196
     15 N         -20.6607   -9.3786  -11.5187 N.pl3   1  UNL1       -0.2120
     16 H         -20.8619   -9.1477  -12.5170 H       1  UNL1        0.1738
     17 S         -20.8758  -11.0308  -11.0342 S.O2    1  UNL1        0.0745
     18 O         -19.5219  -11.6560  -10.8444 O.2     1  UNL1       -0.1499
     19 O         -21.5923  -11.0880   -9.7153 O.2     1  UNL1       -0.1499
     20 C         -23.6574  -12.3705  -13.7923 C.ar    1  UNL1       -0.0146
     21 C         -22.8055  -13.1711  -14.6134 C.ar    1  UNL1       -0.0256
     22 C         -21.4769  -13.3886  -14.2291 C.ar    1  UNL1       -0.0032
     23 C         -20.9374  -12.7416  -13.1296 C.ar    1  UNL1        0.0207
     24 C         -21.7201  -11.9074  -12.3321 C.ar    1  UNL1        0.1353
     25 C         -23.0967  -11.7453  -12.6334 C.ar    1  UNL1        0.0722
     26 CL        -24.1069  -10.7940  -11.5417 Cl      1  UNL1       -0.0812
     27 C         -25.9612  -13.4543  -13.9511 C.3     1  UNL1        0.0047
     28 C         -25.1361  -12.1798  -14.1803 C.3     1  UNL1        0.0229
     29 C         -25.3309  -11.6038  -15.5928 C.3     1  UNL1        0.0047
     30 C         -23.3074  -13.8817  -15.8554 C.3     1  UNL1        0.0221
     31 C         -23.5898  -15.3786  -15.7387 C.3     1  UNL1        0.0047
     32 C         -22.3306  -14.9024  -16.4312 C.3     1  UNL1        0.0047
     33 O         -21.6280   -6.8232  -12.1665 O.3     1  UNL1       -0.4513
     34 C         -22.9533   -7.0797  -12.5361 C.ar    1  UNL1        0.1580
     35 C         -23.9837   -6.4329  -11.8474 C.ar    1  UNL1        0.0677
     36 C         -25.3202   -6.7196  -12.1388 C.ar    1  UNL1        0.1398
     37 F         -26.2971   -6.1303  -11.4037 F       1  UNL1       -0.2044
     38 C         -25.6400   -7.6359  -13.1570 C.ar    1  UNL1        0.0175
     39 C         -24.6034   -8.2446  -13.8832 C.ar    1  UNL1        0.0130
     40 C         -23.2664   -7.9707  -13.5797 C.ar    1  UNL1        0.0919
     41 CL        -22.0063   -8.7527  -14.5225 Cl      1  UNL1       -0.0791
     42 C         -27.0611   -8.0823  -13.3798 C.3     1  UNL1        0.1382
     43 C         -27.8444   -6.9363  -13.9362 C.2     1  UNL1        0.3234
     44 O         -29.1043   -6.9833  -13.9573 O.2     1  UNL1       -0.2497
     45 O         -27.1637   -5.7986  -14.3821 O.3     1  UNL1       -0.4215
     46 C         -27.2931   -5.2768  -15.7031 C.3     1  UNL1        0.3207
     47 O         -26.0671   -5.4807  -16.3787 O.3     1  UNL1       -0.3070
     48 C         -26.2063   -5.1980  -17.7636 C.3     1  UNL1        0.2456
     49 C         -26.8137   -3.7855  -18.0322 C.3     1  UNL1        0.1781
     50 O         -28.1031   -3.9341  -18.5724 O.3     1  UNL1       -0.3790
     51 C         -26.8876   -2.9646  -16.7269 C.3     1  UNL1        0.1733
     52 O         -25.5893   -2.6528  -16.2865 O.3     1  UNL1       -0.3793
     53 C         -27.6208   -3.7597  -15.6266 C.3     1  UNL1        0.2106
     54 O         -29.0062   -3.5642  -15.7602 O.3     1  UNL1       -0.3766
     55 H         -28.3573   -3.0571  -18.9627 H       1  UNL1        0.2106
     56 H         -25.2574   -1.9167  -16.8644 H       1  UNL1        0.2105
     57 H         -29.4043   -3.6728  -14.8576 H       1  UNL1        0.2107
     58 C         -24.8523   -5.3113  -18.4011 C.2     1  UNL1        0.3439
     59 O         -23.8340   -5.5234  -17.6894 O.2     1  UNL1       -0.2475
     60 O         -24.7259   -5.2272  -19.7847 O.3     1  UNL1       -0.4785
     61 H         -23.8210   -5.3192  -20.2303 H       1  UNL1        0.2951
@<TRIPOS>BOND
     1    27    28    1
     2    28    29    1
     3    28    20    1
     4    20    21   ar
     5    21    30    1
     6    30    31    1
     7    31    32    1
     8    21    22   ar
     9    22    23   ar
    10    23    24   ar
    11    24    17    1
    12    17    18    2
    13    17    19    2
    14    17    15    1
    15    15     1    1
    16     1     2   ar
    17     2     3   ar
    18     3     7    1
    19     7     8    2
    20     7     9   am
    21     9    11    1
    22    11    12    1
    23    11    13    1
    24    11    14    1
    25     3     4   ar
    26     4     5   ar
    27     5     6   ar
    28     6    33    1
    29    33    34    1
    30    34    35   ar
    31    35    36   ar
    32    36    37    1
    33    36    38   ar
    34    38    42    1
    35    42    43    1
    36    43    44    2
    37    43    45    1
    38    45    46    1
    39    46    47    1
    40    47    48    1
    41    48    58    1
    42    58    59    2
    43    58    60    1
    44    48    49    1
    45    49    50    1
    46    49    51    1
    47    51    52    1
    48    51    53    1
    49    53    54    1
    50    38    39   ar
    51    39    40   ar
    52    40    41    1
    53    24    25   ar
    54    25    26    1
    55    25    20   ar
    56    32    30    1
    57     6     1   ar
    58    40    34   ar
    59    53    46    1
    60    15    16    1
    61     9    10    1
    62    60    61    1
    63    50    55    1
    64    52    56    1
    65    54    57    1
@<TRIPOS>MOLECULE
*****
 61 65 0 0 0
SMALL
GASTEIGER

@<TRIPOS>ATOM
      1 C         -19.8245   -8.4572  -10.2374 C.ar    1  UNL1        0.0993
      2 C         -19.3526   -8.4029   -8.9172 C.ar    1  UNL1        0.0235
      3 C         -18.8769   -9.5570   -8.2705 C.ar    1  UNL1        0.0548
      4 C         -18.9148  -10.7810   -8.9566 C.ar    1  UNL1        0.0077
      5 C         -19.4213  -10.8502  -10.2544 C.ar    1  UNL1        0.0390
      6 C         -19.8651   -9.6888  -10.9120 C.ar    1  UNL1        0.1598
      7 C         -18.3052   -9.4924   -6.9025 C.2     1  UNL1        0.2458
      8 O         -17.4058  -10.3145   -6.5788 O.2     1  UNL1       -0.2701
      9 N         -18.7713   -8.5187   -5.9466 N.am    1  UNL1       -0.3040
     10 H         -19.6691   -8.0289   -6.1605 H       1  UNL1        0.1496
     11 C         -18.0933   -8.1921   -4.6758 C.3     1  UNL1        0.0572
     12 C         -16.6975   -7.5974   -4.9488 C.3     1  UNL1        0.0196
     13 C         -17.9749   -9.4516   -3.7956 C.3     1  UNL1        0.0196
     14 C         -18.9299   -7.1413   -3.9166 C.3     1  UNL1        0.0196
     15 N         -20.2384   -7.2578  -10.9070 N.pl3   1  UNL1       -0.2120
     16 H         -19.6423   -6.8725  -11.6729 H       1  UNL1        0.1738
     17 S         -21.4015   -6.1828  -10.1983 S.O2    1  UNL1        0.0745
     18 O         -21.3866   -6.3741   -8.7073 O.2     1  UNL1       -0.1499
     19 O         -21.0179   -4.7577  -10.4781 O.2     1  UNL1       -0.1499
     20 C         -25.1511   -7.8549  -10.7312 C.ar    1  UNL1       -0.0146
     21 C         -25.6823   -6.9372  -11.6886 C.ar    1  UNL1       -0.0256
     22 C         -24.8546   -5.9492  -12.2354 C.ar    1  UNL1       -0.0032
     23 C         -23.5609   -5.7673  -11.7747 C.ar    1  UNL1        0.0207
     24 C         -23.0211   -6.6067  -10.8009 C.ar    1  UNL1        0.1353
     25 C         -23.7978   -7.6822  -10.2988 C.ar    1  UNL1        0.0722
     26 CL        -23.0594   -8.8170   -9.1654 Cl      1  UNL1       -0.0812
     27 C         -27.2268   -8.4322   -9.3655 C.3     1  UNL1        0.0047
     28 C         -26.0424   -8.9811  -10.1738 C.3     1  UNL1        0.0229
     29 C         -25.2605  -10.0597   -9.4056 C.3     1  UNL1        0.0047
     30 C         -27.1003   -7.0423  -12.2155 C.3     1  UNL1        0.0221
     31 C         -27.2840   -7.6182  -13.6187 C.3     1  UNL1        0.0047
     32 C         -27.3993   -6.1250  -13.3972 C.3     1  UNL1        0.0047
     33 O         -20.3488   -9.7323  -12.2301 O.3     1  UNL1       -0.4513
     34 C         -21.7020   -9.8557  -12.5652 C.ar    1  UNL1        0.1580
     35 C         -22.4336  -10.9239  -12.0378 C.ar    1  UNL1        0.0677
     36 C         -23.7667  -11.1215  -12.4082 C.ar    1  UNL1        0.1398
     37 F         -24.4286  -12.2084  -11.9366 F       1  UNL1       -0.2044
     38 C         -24.3958  -10.2222  -13.2880 C.ar    1  UNL1        0.0175
     39 C         -23.6743   -9.1201  -13.7750 C.ar    1  UNL1        0.0130
     40 C         -22.3357   -8.9324  -13.4179 C.ar    1  UNL1        0.0919
     41 CL        -21.4787   -7.5338  -14.0484 Cl      1  UNL1       -0.0791
     42 C         -25.7739  -10.5017  -13.8277 C.3     1  UNL1        0.1382
     43 C         -25.7072  -11.6977  -14.7231 C.2     1  UNL1        0.3234
     44 O         -26.0825  -12.8249  -14.3005 O.2     1  UNL1       -0.2497
     45 O         -25.2736  -11.5369  -16.0432 O.3     1  UNL1       -0.4215
     46 C         -24.0637  -12.1021  -16.5437 C.3     1  UNL1        0.3207
     47 O         -23.3743  -12.6957  -15.4603 O.3     1  UNL1       -0.3070
     48 C         -22.2836  -13.4757  -15.9288 C.3     1  UNL1        0.2456
     49 C         -21.3372  -12.6782  -16.8799 C.3     1  UNL1        0.1781
     50 O         -21.4533  -13.1936  -18.1829 O.3     1  UNL1       -0.3790
     51 C         -21.6991  -11.1776  -16.8796 C.3     1  UNL1        0.1733
     52 O         -21.4033  -10.6168  -15.6246 O.3     1  UNL1       -0.3793
     53 C         -23.1989  -10.9809  -17.1838 C.3     1  UNL1        0.2106
     54 O         -23.3904  -10.9678  -18.5762 O.3     1  UNL1       -0.3766
     55 H         -20.6768  -12.8534  -18.6999 H       1  UNL1        0.2106
     56 H         -20.4184  -10.4956  -15.5876 H       1  UNL1        0.2105
     57 H         -24.1964  -10.4169  -18.7543 H       1  UNL1        0.2107
     58 C         -21.5214  -13.9752  -14.7364 C.2     1  UNL1        0.3439
     59 O         -21.7179  -15.1426  -14.3039 O.2     1  UNL1       -0.2475
     60 O         -20.5633  -13.1648  -14.1342 O.3     1  UNL1       -0.4785
     61 H         -20.0288  -13.4948  -13.3395 H       1  UNL1        0.2951
@<TRIPOS>BOND
     1    27    28    1
     2    28    29    1
     3    28    20    1
     4    20    21   ar
     5    21    30    1
     6    30    31    1
     7    31    32    1
     8    21    22   ar
     9    22    23   ar
    10    23    24   ar
    11    24    17    1
    12    17    18    2
    13    17    19    2
    14    17    15    1
    15    15     1    1
    16     1     2   ar
    17     2     3   ar
    18     3     7    1
    19     7     8    2
    20     7     9   am
    21     9    11    1
    22    11    12    1
    23    11    13    1
    24    11    14    1
    25     3     4   ar
    26     4     5   ar
    27     5     6   ar
    28     6    33    1
    29    33    34    1
    30    34    35   ar
    31    35    36   ar
    32    36    37    1
    33    36    38   ar
    34    38    42    1
    35    42    43    1
    36    43    44    2
    37    43    45    1
    38    45    46    1
    39    46    47    1
    40    47    48    1
    41    48    58    1
    42    58    59    2
    43    58    60    1
    44    48    49    1
    45    49    50    1
    46    49    51    1
    47    51    52    1
    48    51    53    1
    49    53    54    1
    50    38    39   ar
    51    39    40   ar
    52    40    41    1
    53    24    25   ar
    54    25    26    1
    55    25    20   ar
    56    32    30    1
    57     6     1   ar
    58    40    34   ar
    59    53    46    1
    60    15    16    1
    61     9    10    1
    62    60    61    1
    63    50    55    1
    64    52    56    1
    65    54    57    1
@<TRIPOS>MOLECULE
*****
 61 65 0 0 0
SMALL
GASTEIGER

@<TRIPOS>ATOM
      1 C         -20.3960   -8.5699  -10.6453 C.ar    1  UNL1        0.0993
      2 C         -19.9607   -8.7768   -9.3277 C.ar    1  UNL1        0.0235
      3 C         -20.0002   -7.7383   -8.3809 C.ar    1  UNL1        0.0548
      4 C         -20.4504   -6.4716   -8.7846 C.ar    1  UNL1        0.0077
      5 C         -20.8454   -6.2475  -10.1034 C.ar    1  UNL1        0.0390
      6 C         -20.8374   -7.2961  -11.0407 C.ar    1  UNL1        0.1598
      7 C         -19.6141   -7.9708   -6.9669 C.2     1  UNL1        0.2458
      8 O         -20.4413   -8.5237   -6.1927 O.2     1  UNL1       -0.2701
      9 N         -18.3222   -7.5642   -6.4719 N.am    1  UNL1       -0.3040
     10 H         -17.7706   -6.9006   -7.0610 H       1  UNL1        0.1496
     11 C         -17.7417   -7.9873   -5.1814 C.3     1  UNL1        0.0572
     12 C         -17.5318   -9.5143   -5.1615 C.3     1  UNL1        0.0196
     13 C         -18.6574   -7.5582   -4.0185 C.3     1  UNL1        0.0196
     14 C         -16.3695   -7.3051   -5.0011 C.3     1  UNL1        0.0196
     15 N         -20.4171   -9.6589  -11.5790 N.pl3   1  UNL1       -0.2120
     16 H         -20.4976   -9.4514  -12.5992 H       1  UNL1        0.1738
     17 S         -20.7907  -11.2759  -11.0728 S.O2    1  UNL1        0.0745
     18 O         -19.5068  -11.9849  -10.7428 O.2     1  UNL1       -0.1499
     19 O         -21.6252  -11.2411   -9.8243 O.2     1  UNL1       -0.1499
     20 C         -23.4425  -12.5781  -13.9731 C.ar    1  UNL1       -0.0146
     21 C         -22.5540  -13.3695  -14.7638 C.ar    1  UNL1       -0.0256
     22 C         -21.2447  -13.5933  -14.3211 C.ar    1  UNL1       -0.0032
     23 C         -20.7563  -12.9606  -13.1898 C.ar    1  UNL1        0.0207
     24 C         -21.5746  -12.1354  -12.4192 C.ar    1  UNL1        0.1353
     25 C         -22.9356  -11.9679  -12.7819 C.ar    1  UNL1        0.0722
     26 CL        -23.9948  -11.0290  -11.7263 Cl      1  UNL1       -0.0812
     27 C         -25.3063  -10.8998  -14.4388 C.3     1  UNL1        0.0047
     28 C         -24.9015  -12.3809  -14.4268 C.3     1  UNL1        0.0229
     29 C         -25.9069  -13.2551  -13.6589 C.3     1  UNL1        0.0047
     30 C         -22.9982  -14.0641  -16.0364 C.3     1  UNL1        0.0221
     31 C         -23.8637  -15.3140  -15.8854 C.3     1  UNL1        0.0047
     32 C         -22.3973  -15.4521  -16.2353 C.3     1  UNL1        0.0047
     33 O         -21.2615   -7.0987  -12.3652 O.3     1  UNL1       -0.4513
     34 C         -22.6007   -6.9595  -12.7474 C.ar    1  UNL1        0.1580
     35 C         -23.3942   -6.0115  -12.0947 C.ar    1  UNL1        0.0677
     36 C         -24.7535   -5.8951  -12.3981 C.ar    1  UNL1        0.1398
     37 F         -25.5135   -5.0165  -11.6964 F       1  UNL1       -0.2044
     38 C         -25.3270   -6.7076  -13.3929 C.ar    1  UNL1        0.0175
     39 C         -24.5160   -7.6223  -14.0842 C.ar    1  UNL1        0.0130
     40 C         -23.1601   -7.7506  -13.7683 C.ar    1  UNL1        0.0919
     41 CL        -22.1864   -8.9047  -14.6672 Cl      1  UNL1       -0.0791
     42 C         -26.8153   -6.7158  -13.6242 C.3     1  UNL1        0.1382
     43 C         -27.1451   -5.7047  -14.6755 C.2     1  UNL1        0.3234
     44 O         -26.2437   -4.9492  -15.1302 O.2     1  UNL1       -0.2497
     45 O         -28.4487   -5.6462  -15.1792 O.3     1  UNL1       -0.4215
     46 C         -29.2595   -4.4745  -15.1177 C.3     1  UNL1        0.3207
     47 O         -30.6015   -4.8779  -14.9241 O.3     1  UNL1       -0.3070
     48 C         -31.4214   -3.7585  -14.6206 C.3     1  UNL1        0.2456
     49 C         -31.2835   -2.6092  -15.6677 C.3     1  UNL1        0.1781
     50 O         -30.6429   -1.5122  -15.0654 O.3     1  UNL1       -0.3790
     51 C         -30.4695   -3.0794  -16.8921 C.3     1  UNL1        0.1733
     52 O         -31.1984   -4.0475  -17.6051 O.3     1  UNL1       -0.3793
     53 C         -29.1209   -3.6832  -16.4479 C.3     1  UNL1        0.2106
     54 O         -28.1808   -2.6501  -16.2919 O.3     1  UNL1       -0.3766
     55 H         -30.7948   -0.7277  -15.6550 H       1  UNL1        0.2106
     56 H         -31.8997   -3.5634  -18.1148 H       1  UNL1        0.2105
     57 H         -27.2851   -3.0435  -16.4587 H       1  UNL1        0.2107
     58 C         -32.8448   -4.2286  -14.5492 C.2     1  UNL1        0.3439
     59 O         -33.7881   -3.4282  -14.7902 O.2     1  UNL1       -0.2475
     60 O         -33.1232   -5.5615  -14.2608 O.3     1  UNL1       -0.4785
     61 H         -34.0782   -5.8972  -14.2264 H       1  UNL1        0.2951
@<TRIPOS>BOND
     1    27    28    1
     2    28    29    1
     3    28    20    1
     4    20    21   ar
     5    21    30    1
     6    30    31    1
     7    31    32    1
     8    21    22   ar
     9    22    23   ar
    10    23    24   ar
    11    24    17    1
    12    17    18    2
    13    17    19    2
    14    17    15    1
    15    15     1    1
    16     1     2   ar
    17     2     3   ar
    18     3     7    1
    19     7     8    2
    20     7     9   am
    21     9    11    1
    22    11    12    1
    23    11    13    1
    24    11    14    1
    25     3     4   ar
    26     4     5   ar
    27     5     6   ar
    28     6    33    1
    29    33    34    1
    30    34    35   ar
    31    35    36   ar
    32    36    37    1
    33    36    38   ar
    34    38    42    1
    35    42    43    1
    36    43    44    2
    37    43    45    1
    38    45    46    1
    39    46    47    1
    40    47    48    1
    41    48    58    1
    42    58    59    2
    43    58    60    1
    44    48    49    1
    45    49    50    1
    46    49    51    1
    47    51    52    1
    48    51    53    1
    49    53    54    1
    50    38    39   ar
    51    39    40   ar
    52    40    41    1
    53    24    25   ar
    54    25    26    1
    55    25    20   ar
    56    32    30    1
    57     6     1   ar
    58    40    34   ar
    59    53    46    1
    60    15    16    1
    61     9    10    1
    62    60    61    1
    63    50    55    1
    64    52    56    1
    65    54    57    1
@<TRIPOS>MOLECULE
*****
 61 65 0 0 0
SMALL
GASTEIGER

@<TRIPOS>ATOM
      1 C         -20.8727   -8.3447  -10.7427 C.ar    1  UNL1        0.0993
      2 C         -20.3592   -8.5914   -9.4606 C.ar    1  UNL1        0.0235
      3 C         -20.3087   -7.5729   -8.4928 C.ar    1  UNL1        0.0548
      4 C         -20.7489   -6.2864   -8.8411 C.ar    1  UNL1        0.0077
      5 C         -21.2218   -6.0236  -10.1267 C.ar    1  UNL1        0.0390
      6 C         -21.3034   -7.0516  -11.0832 C.ar    1  UNL1        0.1598
      7 C         -19.8388   -7.8460   -7.1118 C.2     1  UNL1        0.2458
      8 O         -20.5936   -8.4798   -6.3257 O.2     1  UNL1       -0.2701
      9 N         -18.5478   -7.3882   -6.6611 N.am    1  UNL1       -0.3040
     10 H         -18.0645   -6.6682   -7.2439 H       1  UNL1        0.1496
     11 C         -17.8797   -7.8346   -5.4218 C.3     1  UNL1        0.0572
     12 C         -17.6197   -9.3533   -5.4686 C.3     1  UNL1        0.0196
     13 C         -18.7395   -7.4769   -4.1939 C.3     1  UNL1        0.0196
     14 C         -16.5222   -7.1121   -5.2959 C.3     1  UNL1        0.0196
     15 N         -20.9841   -9.4124  -11.6945 N.pl3   1  UNL1       -0.2120
     16 H         -21.2893   -9.1940  -12.6689 H       1  UNL1        0.1738
     17 S         -21.0978  -11.0676  -11.1864 S.O2    1  UNL1        0.0745
     18 O         -19.7131  -11.5788  -10.9009 O.2     1  UNL1       -0.1499
     19 O         -21.8880  -11.1583   -9.9121 O.2     1  UNL1       -0.1499
     20 C         -23.5896  -12.6767  -14.0744 C.ar    1  UNL1       -0.0146
     21 C         -22.6276  -13.4188  -14.8259 C.ar    1  UNL1       -0.0256
     22 C         -21.3117  -13.5206  -14.3589 C.ar    1  UNL1       -0.0032
     23 C         -20.8939  -12.8130  -13.2437 C.ar    1  UNL1        0.0207
     24 C         -21.7883  -12.0321  -12.5125 C.ar    1  UNL1        0.1353
     25 C         -23.1525  -11.9881  -12.8983 C.ar    1  UNL1        0.0722
     26 CL        -24.3006  -11.1041  -11.8894 Cl      1  UNL1       -0.0812
     27 C         -25.5243  -11.1702  -14.7779 C.3     1  UNL1        0.0047
     28 C         -25.0525  -12.6140  -14.5534 C.3     1  UNL1        0.0229
     29 C         -26.0230  -13.4150  -13.6695 C.3     1  UNL1        0.0047
     30 C         -22.9942  -14.1891  -16.0796 C.3     1  UNL1        0.0221
     31 C         -23.9937  -15.3347  -15.9294 C.3     1  UNL1        0.0047
     32 C         -22.5188  -15.6387  -16.0860 C.3     1  UNL1        0.0047
     33 O         -21.8065   -6.8146  -12.3731 O.3     1  UNL1       -0.4513
     34 C         -23.1674   -6.8305  -12.6993 C.ar    1  UNL1        0.1580
     35 C         -24.0218   -5.9157  -12.0766 C.ar    1  UNL1        0.0677
     36 C         -25.3973   -5.9504  -12.3218 C.ar    1  UNL1        0.1398
     37 F         -26.2096   -5.0977  -11.6472 F       1  UNL1       -0.2044
     38 C         -25.9295   -6.8843  -13.2290 C.ar    1  UNL1        0.0175
     39 C         -25.0625   -7.7672  -13.8932 C.ar    1  UNL1        0.0130
     40 C         -23.6887   -7.7438  -13.6347 C.ar    1  UNL1        0.0919
     41 CL        -22.6452   -8.8645  -14.4969 Cl      1  UNL1       -0.0791
     42 C         -27.4182   -7.0495  -13.3874 C.3     1  UNL1        0.1382
     43 C         -27.9092   -6.0556  -14.3912 C.2     1  UNL1        0.3234
     44 O         -27.0862   -5.4092  -15.0948 O.2     1  UNL1       -0.2497
     45 O         -29.2867   -5.8934  -14.5716 O.3     1  UNL1       -0.4215
     46 C         -29.8511   -5.0895  -15.6056 C.3     1  UNL1        0.3207
     47 O         -28.8176   -4.3007  -16.1632 O.3     1  UNL1       -0.3070
     48 C         -29.2644   -3.6553  -17.3470 C.3     1  UNL1        0.2456
     49 C         -30.5857   -2.8523  -17.1334 C.3     1  UNL1        0.1781
     50 O         -31.6274   -3.4856  -17.8337 O.3     1  UNL1       -0.3790
     51 C         -30.9406   -2.7719  -15.6332 C.3     1  UNL1        0.1733
     52 O         -29.9954   -1.9759  -14.9625 O.3     1  UNL1       -0.3793
     53 C         -30.9581   -4.1803  -15.0035 C.3     1  UNL1        0.2106
     54 O         -32.2196   -4.7641  -15.2116 O.3     1  UNL1       -0.3766
     55 H         -32.3753   -2.8349  -17.8926 H       1  UNL1        0.2106
     56 H         -30.2079   -1.0306  -15.1797 H       1  UNL1        0.2105
     57 H         -32.3712   -5.4034  -14.4677 H       1  UNL1        0.2107
     58 C         -28.1719   -2.7418  -17.8208 C.2     1  UNL1        0.3439
     59 O         -27.0144   -2.8329  -17.3307 O.2     1  UNL1       -0.2475
     60 O         -28.4250   -1.8229  -18.8351 O.3     1  UNL1       -0.4785
     61 H         -27.6931   -1.2119  -19.1772 H       1  UNL1        0.2951
@<TRIPOS>BOND
     1    27    28    1
     2    28    29    1
     3    28    20    1
     4    20    21   ar
     5    21    30    1
     6    30    31    1
     7    31    32    1
     8    21    22   ar
     9    22    23   ar
    10    23    24   ar
    11    24    17    1
    12    17    18    2
    13    17    19    2
    14    17    15    1
    15    15     1    1
    16     1     2   ar
    17     2     3   ar
    18     3     7    1
    19     7     8    2
    20     7     9   am
    21     9    11    1
    22    11    12    1
    23    11    13    1
    24    11    14    1
    25     3     4   ar
    26     4     5   ar
    27     5     6   ar
    28     6    33    1
    29    33    34    1
    30    34    35   ar
    31    35    36   ar
    32    36    37    1
    33    36    38   ar
    34    38    42    1
    35    42    43    1
    36    43    44    2
    37    43    45    1
    38    45    46    1
    39    46    47    1
    40    47    48    1
    41    48    58    1
    42    58    59    2
    43    58    60    1
    44    48    49    1
    45    49    50    1
    46    49    51    1
    47    51    52    1
    48    51    53    1
    49    53    54    1
    50    38    39   ar
    51    39    40   ar
    52    40    41    1
    53    24    25   ar
    54    25    26    1
    55    25    20   ar
    56    32    30    1
    57     6     1   ar
    58    40    34   ar
    59    53    46    1
    60    15    16    1
    61     9    10    1
    62    60    61    1
    63    50    55    1
    64    52    56    1
    65    54    57    1
@<TRIPOS>MOLECULE
*****
 61 65 0 0 0
SMALL
GASTEIGER

@<TRIPOS>ATOM
      1 C         -19.9756   -7.5867   -9.2692 C.ar    1  UNL1        0.0993
      2 C         -20.1856   -7.4624   -7.8876 C.ar    1  UNL1        0.0235
      3 C         -19.7488   -8.4583   -6.9965 C.ar    1  UNL1        0.0548
      4 C         -19.1273   -9.6049   -7.5155 C.ar    1  UNL1        0.0077
      5 C         -18.9525   -9.7546   -8.8912 C.ar    1  UNL1        0.0390
      6 C         -19.3594   -8.7419   -9.7785 C.ar    1  UNL1        0.1598
      7 C         -19.8987   -8.2975   -5.5289 C.2     1  UNL1        0.2458
      8 O         -20.9811   -8.6471   -4.9852 O.2     1  UNL1       -0.2701
      9 N         -18.8361   -7.7401   -4.7291 N.am    1  UNL1       -0.3040
     10 H         -18.0681   -7.2421   -5.2328 H       1  UNL1        0.1496
     11 C         -18.7745   -7.7905   -3.2543 C.3     1  UNL1        0.0572
     12 C         -17.3880   -8.2794   -2.7908 C.3     1  UNL1        0.0196
     13 C         -19.8784   -8.7156   -2.7059 C.3     1  UNL1        0.0196
     14 C         -19.0024   -6.3711   -2.6941 C.3     1  UNL1        0.0196
     15 N         -20.3625   -6.5284  -10.1572 N.pl3   1  UNL1       -0.2120
     16 H         -19.6320   -6.0619  -10.7396 H       1  UNL1        0.1738
     17 S         -21.8667   -5.6867   -9.9585 S.O2    1  UNL1        0.0745
     18 O         -22.2252   -5.6815   -8.4985 O.2     1  UNL1       -0.1499
     19 O         -21.7146   -4.2574  -10.3947 O.2     1  UNL1       -0.1499
     20 C         -24.7740   -8.3882  -11.1369 C.ar    1  UNL1       -0.0146
     21 C         -25.3563   -7.6504  -12.2128 C.ar    1  UNL1       -0.0256
     22 C         -24.7686   -6.4494  -12.6278 C.ar    1  UNL1       -0.0032
     23 C         -23.7024   -5.9002  -11.9347 C.ar    1  UNL1        0.0207
     24 C         -23.1384   -6.5610  -10.8440 C.ar    1  UNL1        0.1353
     25 C         -23.6438   -7.8294  -10.4596 C.ar    1  UNL1        0.0722
     26 CL        -22.8378   -8.7163   -9.1631 Cl      1  UNL1       -0.0812
     27 C         -25.8246   -9.7429   -9.2479 C.3     1  UNL1        0.0047
     28 C         -25.3824   -9.7403  -10.7183 C.3     1  UNL1        0.0229
     29 C         -24.4934  -10.9468  -11.0632 C.3     1  UNL1        0.0047
     30 C         -26.5486   -8.1620  -12.9976 C.3     1  UNL1        0.0221
     31 C         -27.4759   -7.1193  -13.6198 C.3     1  UNL1        0.0047
     32 C         -27.8992   -7.8474  -12.3618 C.3     1  UNL1        0.0047
     33 O         -19.1635   -8.8594  -11.1645 O.3     1  UNL1       -0.4513
     34 C         -20.1937   -9.0762  -12.0866 C.ar    1  UNL1        0.1580
     35 C         -20.5556   -8.0388  -12.9511 C.ar    1  UNL1        0.0677
     36 C         -21.6278   -8.1935  -13.8341 C.ar    1  UNL1        0.1398
     37 F         -22.0014   -7.1437  -14.6090 F       1  UNL1       -0.2044
     38 C         -22.3291   -9.4117  -13.8868 C.ar    1  UNL1        0.0175
     39 C         -21.9297  -10.4702  -13.0548 C.ar    1  UNL1        0.0130
     40 C         -20.8683  -10.3093  -12.1592 C.ar    1  UNL1        0.0919
     41 CL        -20.4028  -11.6665  -11.1445 Cl      1  UNL1       -0.0791
     42 C         -23.5838   -9.5489  -14.7087 C.3     1  UNL1        0.1382
     43 C         -23.2105   -9.9913  -16.0876 C.2     1  UNL1        0.3234
     44 O         -22.1561   -9.5579  -16.6263 O.2     1  UNL1       -0.2497
     45 O         -24.0171  -10.9264  -16.7446 O.3     1  UNL1       -0.4215
     46 C         -24.0208  -12.3168  -16.4271 C.3     1  UNL1        0.3207
     47 O         -24.8954  -12.5158  -15.3331 O.3     1  UNL1       -0.3070
     48 C         -25.1234  -13.9016  -15.1208 C.3     1  UNL1        0.2456
     49 C         -23.7988  -14.7167  -14.9884 C.3     1  UNL1        0.1781
     50 O         -23.6577  -15.5510  -16.1112 O.3     1  UNL1       -0.3790
     51 C         -22.5827  -13.7715  -14.8861 C.3     1  UNL1        0.1733
     52 O         -22.6256  -13.0709  -13.6678 O.3     1  UNL1       -0.3793
     53 C         -22.5798  -12.7626  -16.0533 C.3     1  UNL1        0.2106
     54 O         -21.9578  -13.3483  -17.1693 O.3     1  UNL1       -0.3766
     55 H         -22.9640  -16.2252  -15.8866 H       1  UNL1        0.2106
     56 H         -22.3361  -13.7044  -12.9601 H       1  UNL1        0.2105
     57 H         -21.5665  -12.6106  -17.7055 H       1  UNL1        0.2107
     58 C         -25.9531  -14.0529  -13.8795 C.2     1  UNL1        0.3439
     59 O         -25.4015  -14.3242  -12.7792 O.2     1  UNL1       -0.2475
     60 O         -27.3289  -13.8490  -13.9336 O.3     1  UNL1       -0.4785
     61 H         -27.8994  -13.9305  -13.1006 H       1  UNL1        0.2951
@<TRIPOS>BOND
     1    27    28    1
     2    28    29    1
     3    28    20    1
     4    20    21   ar
     5    21    30    1
     6    30    31    1
     7    31    32    1
     8    21    22   ar
     9    22    23   ar
    10    23    24   ar
    11    24    17    1
    12    17    18    2
    13    17    19    2
    14    17    15    1
    15    15     1    1
    16     1     2   ar
    17     2     3   ar
    18     3     7    1
    19     7     8    2
    20     7     9   am
    21     9    11    1
    22    11    12    1
    23    11    13    1
    24    11    14    1
    25     3     4   ar
    26     4     5   ar
    27     5     6   ar
    28     6    33    1
    29    33    34    1
    30    34    35   ar
    31    35    36   ar
    32    36    37    1
    33    36    38   ar
    34    38    42    1
    35    42    43    1
    36    43    44    2
    37    43    45    1
    38    45    46    1
    39    46    47    1
    40    47    48    1
    41    48    58    1
    42    58    59    2
    43    58    60    1
    44    48    49    1
    45    49    50    1
    46    49    51    1
    47    51    52    1
    48    51    53    1
    49    53    54    1
    50    38    39   ar
    51    39    40   ar
    52    40    41    1
    53    24    25   ar
    54    25    26    1
    55    25    20   ar
    56    32    30    1
    57     6     1   ar
    58    40    34   ar
    59    53    46    1
    60    15    16    1
    61     9    10    1
    62    60    61    1
    63    50    55    1
    64    52    56    1
    65    54    57    1
@<TRIPOS>MOLECULE
*****
 61 65 0 0 0
SMALL
GASTEIGER

@<TRIPOS>ATOM
      1 C         -22.7302   -9.9350  -15.9703 C.ar    1  UNL1        0.0993
      2 C         -23.5069   -9.5213  -17.0630 C.ar    1  UNL1        0.0235
      3 C         -23.3340   -8.2479  -17.6330 C.ar    1  UNL1        0.0548
      4 C         -22.3916   -7.3754  -17.0665 C.ar    1  UNL1        0.0077
      5 C         -21.6453   -7.7643  -15.9542 C.ar    1  UNL1        0.0390
      6 C         -21.7952   -9.0510  -15.4063 C.ar    1  UNL1        0.1598
      7 C         -24.0976   -7.8331  -18.8361 C.2     1  UNL1        0.2458
      8 O         -24.4193   -6.6209  -18.9653 O.2     1  UNL1       -0.2701
      9 N         -24.4819   -8.7932  -19.8410 N.am    1  UNL1       -0.3040
     10 H         -24.4180   -9.8045  -19.5867 H       1  UNL1        0.1496
     11 C         -24.9914   -8.4506  -21.1843 C.3     1  UNL1        0.0572
     12 C         -23.8661   -7.8475  -22.0482 C.3     1  UNL1        0.0196
     13 C         -26.1678   -7.4613  -21.0721 C.3     1  UNL1        0.0196
     14 C         -25.4968   -9.7360  -21.8718 C.3     1  UNL1        0.0196
     15 N         -22.8686  -11.2636  -15.4468 N.pl3   1  UNL1       -0.2120
     16 H         -22.3558  -12.0472  -15.9088 H       1  UNL1        0.1738
     17 S         -24.1907  -11.6922  -14.4080 S.O2    1  UNL1        0.0745
     18 O         -25.3620  -12.0923  -15.2611 O.2     1  UNL1       -0.1499
     19 O         -23.8155  -12.8777  -13.5653 O.2     1  UNL1       -0.1499
     20 C         -25.0682   -9.0620  -11.3337 C.ar    1  UNL1       -0.0146
     21 C         -25.1110   -7.8416  -12.0753 C.ar    1  UNL1       -0.0256
     22 C         -25.0173   -7.8753  -13.4718 C.ar    1  UNL1       -0.0032
     23 C         -24.7611   -9.0608  -14.1410 C.ar    1  UNL1        0.0207
     24 C         -24.6569  -10.2673  -13.4498 C.ar    1  UNL1        0.1353
     25 C         -24.8485  -10.2846  -12.0444 C.ar    1  UNL1        0.0722
     26 CL        -24.8463  -11.8341  -11.1980 Cl      1  UNL1       -0.0812
     27 C         -24.3131  -10.0458   -9.1046 C.3     1  UNL1        0.0047
     28 C         -25.2327   -9.0333   -9.8022 C.3     1  UNL1        0.0229
     29 C         -26.6940   -9.1555   -9.3392 C.3     1  UNL1        0.0047
     30 C         -25.3477   -6.4972  -11.4151 C.3     1  UNL1        0.0221
     31 C         -26.3267   -5.5447  -12.0996 C.3     1  UNL1        0.0047
     32 C         -24.8365   -5.3056  -12.2190 C.3     1  UNL1        0.0047
     33 O         -21.0304   -9.4731  -14.3063 O.3     1  UNL1       -0.4513
     34 C         -21.2182   -9.0135  -12.9978 C.ar    1  UNL1        0.1580
     35 C         -21.3544   -7.6396  -12.7776 C.ar    1  UNL1        0.0677
     36 C         -21.4695   -7.1380  -11.4782 C.ar    1  UNL1        0.1398
     37 F         -21.5267   -5.7949  -11.2919 F       1  UNL1       -0.2044
     38 C         -21.4874   -8.0177  -10.3807 C.ar    1  UNL1        0.0175
     39 C         -21.4037   -9.4010  -10.6083 C.ar    1  UNL1        0.0130
     40 C         -21.2711   -9.9014  -11.9070 C.ar    1  UNL1        0.0919
     41 CL        -21.1773  -11.6407  -12.1393 Cl      1  UNL1       -0.0791
     42 C         -21.4469   -7.4960   -8.9684 C.3     1  UNL1        0.1382
     43 C         -20.1254   -7.8472   -8.3628 C.2     1  UNL1        0.3234
     44 O         -19.3134   -8.5746   -8.9966 O.2     1  UNL1       -0.2497
     45 O         -19.7864   -7.3176   -7.1133 O.3     1  UNL1       -0.4215
     46 C         -19.3212   -8.1144   -6.0258 C.3     1  UNL1        0.3207
     47 O         -20.3622   -8.2086   -5.0726 O.3     1  UNL1       -0.3070
     48 C         -20.0473   -9.1768   -4.0822 C.3     1  UNL1        0.2456
     49 C         -18.6512   -8.9362   -3.4269 C.3     1  UNL1        0.1781
     50 O         -17.7762   -9.9652   -3.8168 O.3     1  UNL1       -0.3790
     51 C         -18.0733   -7.5708   -3.8565 C.3     1  UNL1        0.1733
     52 O         -18.8450   -6.5326   -3.3056 O.3     1  UNL1       -0.3793
     53 C         -18.0708   -7.4420   -5.3940 C.3     1  UNL1        0.2106
     54 O         -16.9026   -8.0327   -5.9056 O.3     1  UNL1       -0.3766
     55 H         -16.9976   -9.9331   -3.2013 H       1  UNL1        0.2106
     56 H         -18.5950   -6.4645   -2.3470 H       1  UNL1        0.2105
     57 H         -16.6921   -7.5711   -6.7586 H       1  UNL1        0.2107
     58 C         -21.1244   -9.1430   -3.0378 C.2     1  UNL1        0.3439
     59 O         -21.6265  -10.2177   -2.6119 O.2     1  UNL1       -0.2475
     60 O         -21.5386   -7.9255   -2.5052 O.3     1  UNL1       -0.4785
     61 H         -22.2522   -7.8882   -1.7873 H       1  UNL1        0.2951
@<TRIPOS>BOND
     1    27    28    1
     2    28    29    1
     3    28    20    1
     4    20    21   ar
     5    21    30    1
     6    30    31    1
     7    31    32    1
     8    21    22   ar
     9    22    23   ar
    10    23    24   ar
    11    24    17    1
    12    17    18    2
    13    17    19    2
    14    17    15    1
    15    15     1    1
    16     1     2   ar
    17     2     3   ar
    18     3     7    1
    19     7     8    2
    20     7     9   am
    21     9    11    1
    22    11    12    1
    23    11    13    1
    24    11    14    1
    25     3     4   ar
    26     4     5   ar
    27     5     6   ar
    28     6    33    1
    29    33    34    1
    30    34    35   ar
    31    35    36   ar
    32    36    37    1
    33    36    38   ar
    34    38    42    1
    35    42    43    1
    36    43    44    2
    37    43    45    1
    38    45    46    1
    39    46    47    1
    40    47    48    1
    41    48    58    1
    42    58    59    2
    43    58    60    1
    44    48    49    1
    45    49    50    1
    46    49    51    1
    47    51    52    1
    48    51    53    1
    49    53    54    1
    50    38    39   ar
    51    39    40   ar
    52    40    41    1
    53    24    25   ar
    54    25    26    1
    55    25    20   ar
    56    32    30    1
    57     6     1   ar
    58    40    34   ar
    59    53    46    1
    60    15    16    1
    61     9    10    1
    62    60    61    1
    63    50    55    1
    64    52    56    1
    65    54    57    1
