@<TRIPOS>MOLECULE
*****
 47 52 0 0 0
SMALL
GASTEIGER

@<TRIPOS>ATOM
      1 C          11.5221   80.9114   24.2018 C.ar    1  UNL1        0.0702
      2 C          12.2590   79.7582   24.5187 C.ar    1  UNL1        0.0191
      3 C          11.6053   78.5388   24.6990 C.ar    1  UNL1        0.0356
      4 C          10.2140   78.4775   24.5615 C.ar    1  UNL1        0.1318
      5 N           9.5205   79.5946   24.2142 N.ar    1  UNL1       -0.2279
      6 C          10.1356   80.7932   24.0313 C.ar    1  UNL1        0.1149
      7 N           9.5221   77.2297   24.7147 N.pl3   1  UNL1       -0.2924
      8 C           9.1972   76.7978   26.0812 C.3     1  UNL1        0.0923
      9 C           8.0812   75.7415   26.0896 C.3     1  UNL1        0.0252
     10 C           6.9665   76.1332   25.0958 C.3     1  UNL1        0.0472
     11 C           7.4978   76.3069   23.6426 C.3     1  UNL1        0.0261
     12 C           9.0342   76.4280   23.5727 C.3     1  UNL1        0.1035
     13 C           9.4910   76.9424   22.1935 C.3     1  UNL1        0.1567
     14 O           8.6783   78.0080   21.7845 O.3     1  UNL1       -0.3802
     15 H           8.9991   78.2690   20.8824 H       1  UNL1        0.2105
     16 C           5.7971   75.1381   25.1555 C.3     1  UNL1        0.2054
     17 O           4.8642   75.4028   24.1087 O.3     1  UNL1       -0.4755
     18 C           3.9541   76.4693   24.1062 C.ar    1  UNL1        0.1388
     19 C           3.1591   76.7851   25.2227 C.ar    1  UNL1        0.0369
     20 C           2.2713   77.8611   25.1693 C.ar    1  UNL1        0.0033
     21 C           2.1615   78.6277   24.0068 C.ar    1  UNL1        0.0066
     22 C           2.9396   78.3208   22.8764 C.ar    1  UNL1        0.0785
     23 C           3.8405   77.2418   22.9439 C.ar    1  UNL1        0.0433
     24 C           2.8405   79.1265   21.6346 C.2     1  UNL1        0.3381
     25 O           3.8499   79.2566   20.8920 O.2     1  UNL1       -0.2451
     26 O           1.6489   79.7398   21.2495 O.3     1  UNL1       -0.4771
     27 H           0.7765   79.5939   21.7404 H       1  UNL1        0.2954
     28 C          12.8440   82.9234   25.0060 C.2     1  UNL1        0.2839
     29 O          12.7011   82.6123   26.2191 O.2     1  UNL1       -0.2665
     30 N          12.1601   82.1813   23.9832 N.am    1  UNL1       -0.2766
     31 H          12.0462   82.6288   23.0456 H       1  UNL1        0.1553
     32 C          15.1680   82.9856   22.7997 C.3     1  UNL1        0.0345
     33 C          14.6985   84.1101   23.6727 C.ar    1  UNL1        0.0202
     34 C          13.6835   84.0786   24.6356 C.ar    1  UNL1        0.1946
     35 O          13.5584   85.2668   25.1996 O.2     1  UNL1       -0.4492
     36 C          14.4408   86.0671   24.6531 C.ar    1  UNL1        0.1452
     37 C          14.6601   87.4083   24.9473 C.ar    1  UNL1        0.0375
     38 C          15.6672   88.0838   24.2367 C.ar    1  UNL1        0.0031
     39 C          16.4363   87.4130   23.2476 C.ar    1  UNL1        0.0002
     40 C          16.1804   86.0469   22.9783 C.ar    1  UNL1        0.0028
     41 C          15.1731   85.4075   23.7027 C.ar    1  UNL1        0.0337
     42 C          17.4977   88.1372   22.5033 C.ar    1  UNL1        0.0000
     43 C          18.7520   88.3761   23.0965 C.ar    1  UNL1        0.0000
     44 C          19.7500   89.0575   22.3928 C.ar    1  UNL1        0.0000
     45 C          19.5084   89.5077   21.0930 C.ar    1  UNL1        0.0000
     46 C          18.2683   89.2771   20.4936 C.ar    1  UNL1        0.0000
     47 C          17.2670   88.5956   21.1922 C.ar    1  UNL1        0.0000
@<TRIPOS>BOND
     1    32    33    1
     2    33    34   ar
     3    34    28    1
     4    28    29    2
     5    28    30   am
     6    30     1    1
     7     1     2   ar
     8     2     3   ar
     9     3     4   ar
    10     4     7    1
    11     7     8    1
    12     8     9    1
    13     9    10    1
    14    10    16    1
    15    16    17    1
    16    17    18    1
    17    18    19   ar
    18    19    20   ar
    19    20    21   ar
    20    21    22   ar
    21    22    24    1
    22    24    25    2
    23    24    26    1
    24    22    23   ar
    25    10    11    1
    26    11    12    1
    27    12    13    1
    28    13    14    1
    29     4     5   ar
    30     5     6   ar
    31    34    35   ar
    32    35    36   ar
    33    36    37   ar
    34    37    38   ar
    35    38    39   ar
    36    39    42    1
    37    42    43   ar
    38    43    44   ar
    39    44    45   ar
    40    45    46   ar
    41    46    47   ar
    42    39    40   ar
    43    40    41   ar
    44    41    33   ar
    45     6     1   ar
    46    41    36   ar
    47    12     7    1
    48    47    42   ar
    49    23    18   ar
    50    30    31    1
    51    26    27    1
    52    14    15    1
@<TRIPOS>MOLECULE
*****
 47 52 0 0 0
SMALL
GASTEIGER

@<TRIPOS>ATOM
      1 C          10.5556   81.0494   25.1198 C.ar    1  UNL1        0.0702
      2 C          10.0462   80.7035   26.3824 C.ar    1  UNL1        0.0191
      3 C           9.3559   79.5030   26.5524 C.ar    1  UNL1        0.0356
      4 C           9.1772   78.6514   25.4563 C.ar    1  UNL1        0.1318
      5 N           9.7121   78.9822   24.2506 N.ar    1  UNL1       -0.2279
      6 C          10.3903   80.1452   24.0613 C.ar    1  UNL1        0.1149
      7 N           8.4950   77.3985   25.6121 N.pl3   1  UNL1       -0.2924
      8 C           7.1006   77.3242   25.1542 C.3     1  UNL1        0.0923
      9 C           6.6550   75.8701   24.9345 C.3     1  UNL1        0.0252
     10 C           7.7673   75.0717   24.2212 C.3     1  UNL1        0.0472
     11 C           9.1091   75.0833   25.0109 C.3     1  UNL1        0.0261
     12 C           9.1562   76.1714   26.1038 C.3     1  UNL1        0.1035
     13 C          10.5940   76.3855   26.6161 C.3     1  UNL1        0.1567
     14 O          10.5688   76.8696   27.9307 O.3     1  UNL1       -0.3802
     15 H          11.5156   77.0183   28.1881 H       1  UNL1        0.2105
     16 C           7.3071   73.6392   23.9089 C.3     1  UNL1        0.2054
     17 O           7.7737   73.2357   22.6222 O.3     1  UNL1       -0.4755
     18 C           9.1235   73.0629   22.2845 C.ar    1  UNL1        0.1388
     19 C           9.7715   71.8182   22.3803 C.ar    1  UNL1        0.0369
     20 C          11.1168   71.6994   22.0270 C.ar    1  UNL1        0.0033
     21 C          11.8302   72.8148   21.5818 C.ar    1  UNL1        0.0066
     22 C          11.2029   74.0699   21.4900 C.ar    1  UNL1        0.0785
     23 C           9.8433   74.1774   21.8368 C.ar    1  UNL1        0.0433
     24 C          11.9427   75.2648   21.0147 C.2     1  UNL1        0.3381
     25 O          12.2131   76.1940   21.8214 O.2     1  UNL1       -0.2451
     26 O          12.3672   75.3886   19.6922 O.3     1  UNL1       -0.4771
     27 H          12.2763   74.6403   19.0175 H       1  UNL1        0.2954
     28 C          12.7277   82.3318   24.8362 C.2     1  UNL1        0.2839
     29 O          13.4284   81.3527   25.2091 O.2     1  UNL1       -0.2665
     30 N          11.2942   82.2649   24.9085 N.am    1  UNL1       -0.2766
     31 H          10.7598   83.1629   24.8909 H       1  UNL1        0.1553
     32 C          15.5384   82.5611   23.3130 C.3     1  UNL1        0.0345
     33 C          14.6069   83.6713   23.6964 C.ar    1  UNL1        0.0202
     34 C          13.3804   83.5669   24.3621 C.ar    1  UNL1        0.1946
     35 O          12.8489   84.7660   24.5209 O.2     1  UNL1       -0.4492
     36 C          13.6679   85.6428   23.9937 C.ar    1  UNL1        0.1452
     37 C          13.5058   87.0228   23.9393 C.ar    1  UNL1        0.0375
     38 C          14.5158   87.7823   23.3240 C.ar    1  UNL1        0.0031
     39 C          15.6669   87.1551   22.7748 C.ar    1  UNL1        0.0002
     40 C          15.7926   85.7471   22.8509 C.ar    1  UNL1        0.0028
     41 C          14.7707   85.0244   23.4686 C.ar    1  UNL1        0.0337
     42 C          16.7275   87.9680   22.1272 C.ar    1  UNL1        0.0000
     43 C          17.9736   88.1510   22.7564 C.ar    1  UNL1        0.0000
     44 C          18.9709   88.9161   22.1437 C.ar    1  UNL1        0.0000
     45 C          18.7366   89.5065   20.8999 C.ar    1  UNL1        0.0000
     46 C          17.5047   89.3327   20.2656 C.ar    1  UNL1        0.0000
     47 C          16.5041   88.5679   20.8732 C.ar    1  UNL1        0.0000
@<TRIPOS>BOND
     1    32    33    1
     2    33    34   ar
     3    34    28    1
     4    28    29    2
     5    28    30   am
     6    30     1    1
     7     1     2   ar
     8     2     3   ar
     9     3     4   ar
    10     4     7    1
    11     7     8    1
    12     8     9    1
    13     9    10    1
    14    10    16    1
    15    16    17    1
    16    17    18    1
    17    18    19   ar
    18    19    20   ar
    19    20    21   ar
    20    21    22   ar
    21    22    24    1
    22    24    25    2
    23    24    26    1
    24    22    23   ar
    25    10    11    1
    26    11    12    1
    27    12    13    1
    28    13    14    1
    29     4     5   ar
    30     5     6   ar
    31    34    35   ar
    32    35    36   ar
    33    36    37   ar
    34    37    38   ar
    35    38    39   ar
    36    39    42    1
    37    42    43   ar
    38    43    44   ar
    39    44    45   ar
    40    45    46   ar
    41    46    47   ar
    42    39    40   ar
    43    40    41   ar
    44    41    33   ar
    45     6     1   ar
    46    41    36   ar
    47    12     7    1
    48    47    42   ar
    49    23    18   ar
    50    30    31    1
    51    26    27    1
    52    14    15    1
@<TRIPOS>MOLECULE
*****
 47 52 0 0 0
SMALL
GASTEIGER

@<TRIPOS>ATOM
      1 C           9.9244   79.3856   24.4937 C.ar    1  UNL1        0.0702
      2 C           9.5304   78.4947   25.5058 C.ar    1  UNL1        0.0191
      3 C           8.8605   77.3157   25.1771 C.ar    1  UNL1        0.0356
      4 C           8.5865   77.0320   23.8344 C.ar    1  UNL1        0.1318
      5 N           9.0110   77.8852   22.8642 N.ar    1  UNL1       -0.2279
      6 C           9.6671   79.0386   23.1599 C.ar    1  UNL1        0.1149
      7 N           7.9235   75.8128   23.4691 N.pl3   1  UNL1       -0.2924
      8 C           6.5484   75.6185   23.9495 C.3     1  UNL1        0.0923
      9 C           5.8084   74.5516   23.1277 C.3     1  UNL1        0.0252
     10 C           6.1044   74.7344   21.6235 C.3     1  UNL1        0.0472
     11 C           7.6264   74.6648   21.3029 C.3     1  UNL1        0.0261
     12 C           8.5140   74.8113   22.5563 C.3     1  UNL1        0.1035
     13 C           9.9807   75.0880   22.1718 C.3     1  UNL1        0.1567
     14 O          10.0338   75.8994   21.0307 O.3     1  UNL1       -0.3802
     15 H          10.9963   76.0111   20.8164 H       1  UNL1        0.2105
     16 C           5.3014   73.7353   20.7759 C.3     1  UNL1        0.2054
     17 O           4.1794   74.3809   20.1753 O.3     1  UNL1       -0.4755
     18 C           3.8821   75.7446   20.3084 C.ar    1  UNL1        0.1388
     19 C           4.5832   76.7414   19.6061 C.ar    1  UNL1        0.0369
     20 C           4.2440   78.0855   19.7714 C.ar    1  UNL1        0.0033
     21 C           3.2112   78.4507   20.6381 C.ar    1  UNL1        0.0066
     22 C           2.5061   77.4695   21.3575 C.ar    1  UNL1        0.0785
     23 C           2.8472   76.1165   21.1752 C.ar    1  UNL1        0.0433
     24 C           1.4031   77.8377   22.2788 C.2     1  UNL1        0.3381
     25 O           1.6417   78.5639   23.2803 O.2     1  UNL1       -0.2451
     26 O           0.0923   77.4141   22.0625 O.3     1  UNL1       -0.4771
     27 H          -0.1900   76.9175   21.2276 H       1  UNL1        0.2954
     28 C          12.0705   80.7141   24.7614 C.2     1  UNL1        0.2839
     29 O          12.7903   79.6802   24.7217 O.2     1  UNL1       -0.2665
     30 N          10.6386   80.5983   24.7883 N.am    1  UNL1       -0.2766
     31 H          10.0862   81.4198   25.1235 H       1  UNL1        0.1553
     32 C          13.1159   82.2325   27.3833 C.3     1  UNL1        0.0345
     33 C          13.1570   82.7137   25.9641 C.ar    1  UNL1        0.0202
     34 C          12.6988   82.0476   24.8219 C.ar    1  UNL1        0.1946
     35 O          12.9089   82.7912   23.7502 O.2     1  UNL1       -0.4492
     36 C          13.4786   83.9057   24.1386 C.ar    1  UNL1        0.1452
     37 C          13.8731   84.9743   23.3411 C.ar    1  UNL1        0.0375
     38 C          14.4686   86.0819   23.9688 C.ar    1  UNL1        0.0031
     39 C          14.6604   86.1055   25.3768 C.ar    1  UNL1        0.0002
     40 C          14.2448   84.9964   26.1523 C.ar    1  UNL1        0.0028
     41 C          13.6573   83.9136   25.4960 C.ar    1  UNL1        0.0337
     42 C          15.2907   87.2813   26.0289 C.ar    1  UNL1        0.0000
     43 C          14.9533   87.6338   27.3496 C.ar    1  UNL1        0.0000
     44 C          15.5492   88.7410   27.9613 C.ar    1  UNL1        0.0000
     45 C          16.4856   89.5076   27.2641 C.ar    1  UNL1        0.0000
     46 C          16.8285   89.1685   25.9535 C.ar    1  UNL1        0.0000
     47 C          16.2364   88.0619   25.3371 C.ar    1  UNL1        0.0000
@<TRIPOS>BOND
     1    32    33    1
     2    33    34   ar
     3    34    28    1
     4    28    29    2
     5    28    30   am
     6    30     1    1
     7     1     2   ar
     8     2     3   ar
     9     3     4   ar
    10     4     7    1
    11     7     8    1
    12     8     9    1
    13     9    10    1
    14    10    16    1
    15    16    17    1
    16    17    18    1
    17    18    19   ar
    18    19    20   ar
    19    20    21   ar
    20    21    22   ar
    21    22    24    1
    22    24    25    2
    23    24    26    1
    24    22    23   ar
    25    10    11    1
    26    11    12    1
    27    12    13    1
    28    13    14    1
    29     4     5   ar
    30     5     6   ar
    31    34    35   ar
    32    35    36   ar
    33    36    37   ar
    34    37    38   ar
    35    38    39   ar
    36    39    42    1
    37    42    43   ar
    38    43    44   ar
    39    44    45   ar
    40    45    46   ar
    41    46    47   ar
    42    39    40   ar
    43    40    41   ar
    44    41    33   ar
    45     6     1   ar
    46    41    36   ar
    47    12     7    1
    48    47    42   ar
    49    23    18   ar
    50    30    31    1
    51    26    27    1
    52    14    15    1
@<TRIPOS>MOLECULE
*****
 47 52 0 0 0
SMALL
GASTEIGER

@<TRIPOS>ATOM
      1 C           9.7893   79.5963   24.2873 C.ar    1  UNL1        0.0702
      2 C           9.5152   78.6812   25.3172 C.ar    1  UNL1        0.0191
      3 C           8.8262   77.5005   25.0377 C.ar    1  UNL1        0.0356
      4 C           8.4131   77.2393   23.7264 C.ar    1  UNL1        0.1318
      5 N           8.7225   78.1164   22.7342 N.ar    1  UNL1       -0.2279
      6 C           9.3944   79.2720   22.9818 C.ar    1  UNL1        0.1149
      7 N           7.7276   76.0192   23.4090 N.pl3   1  UNL1       -0.2924
      8 C           6.2588   76.0369   23.4477 C.3     1  UNL1        0.0923
      9 C           5.6586   74.8665   22.6531 C.3     1  UNL1        0.0252
     10 C           6.4144   74.6820   21.3195 C.3     1  UNL1        0.0472
     11 C           7.9373   74.4337   21.5272 C.3     1  UNL1        0.0261
     12 C           8.4196   74.7975   22.9469 C.3     1  UNL1        0.1035
     13 C           9.9576   74.8751   23.0107 C.3     1  UNL1        0.1567
     14 O          10.3977   74.6259   24.3174 O.3     1  UNL1       -0.3802
     15 H          11.3851   74.7239   24.2993 H       1  UNL1        0.2105
     16 C           5.7719   73.5762   20.4676 C.3     1  UNL1        0.2054
     17 O           5.4362   74.0761   19.1739 O.3     1  UNL1       -0.4755
     18 C           4.6019   75.1783   18.9397 C.ar    1  UNL1        0.1388
     19 C           3.1989   75.0807   18.9635 C.ar    1  UNL1        0.0369
     20 C           2.4137   76.2107   18.7280 C.ar    1  UNL1        0.0033
     21 C           3.0139   77.4436   18.4618 C.ar    1  UNL1        0.0066
     22 C           4.4148   77.5589   18.4226 C.ar    1  UNL1        0.0785
     23 C           5.1981   76.4169   18.6732 C.ar    1  UNL1        0.0433
     24 C           5.0704   78.8607   18.1464 C.2     1  UNL1        0.3381
     25 O           4.4417   79.7570   17.5230 O.2     1  UNL1       -0.2451
     26 O           6.3698   79.1343   18.5719 O.3     1  UNL1       -0.4771
     27 H           6.8945   78.5036   19.1638 H       1  UNL1        0.2954
     28 C          11.9332   80.8653   24.7728 C.2     1  UNL1        0.2839
     29 O          12.5717   79.8115   25.0386 O.2     1  UNL1       -0.2665
     30 N          10.5182   80.8119   24.5289 N.am    1  UNL1       -0.2766
     31 H           9.9718   81.6987   24.6154 H       1  UNL1        0.1553
     32 C          13.1699   82.4267   27.2839 C.3     1  UNL1        0.0345
     33 C          13.1734   82.8493   25.8457 C.ar    1  UNL1        0.0202
     34 C          12.6317   82.1646   24.7520 C.ar    1  UNL1        0.1946
     35 O          12.8327   82.8536   23.6427 O.2     1  UNL1       -0.4492
     36 C          13.4758   83.9504   23.9607 C.ar    1  UNL1        0.1452
     37 C          13.8896   84.9645   23.1040 C.ar    1  UNL1        0.0375
     38 C          14.5686   86.0623   23.6601 C.ar    1  UNL1        0.0031
     39 C          14.8230   86.1304   25.0567 C.ar    1  UNL1        0.0002
     40 C          14.3851   85.0762   25.8939 C.ar    1  UNL1        0.0028
     41 C          13.7141   84.0016   25.3079 C.ar    1  UNL1        0.0337
     42 C          15.5413   87.2955   25.6328 C.ar    1  UNL1        0.0000
     43 C          15.1772   87.8097   26.8919 C.ar    1  UNL1        0.0000
     44 C          15.8561   88.9062   27.4323 C.ar    1  UNL1        0.0000
     45 C          16.9027   89.5011   26.7244 C.ar    1  UNL1        0.0000
     46 C          17.2732   89.0005   25.4744 C.ar    1  UNL1        0.0000
     47 C          16.5984   87.9037   24.9295 C.ar    1  UNL1        0.0000
@<TRIPOS>BOND
     1    32    33    1
     2    33    34   ar
     3    34    28    1
     4    28    29    2
     5    28    30   am
     6    30     1    1
     7     1     2   ar
     8     2     3   ar
     9     3     4   ar
    10     4     7    1
    11     7     8    1
    12     8     9    1
    13     9    10    1
    14    10    16    1
    15    16    17    1
    16    17    18    1
    17    18    19   ar
    18    19    20   ar
    19    20    21   ar
    20    21    22   ar
    21    22    24    1
    22    24    25    2
    23    24    26    1
    24    22    23   ar
    25    10    11    1
    26    11    12    1
    27    12    13    1
    28    13    14    1
    29     4     5   ar
    30     5     6   ar
    31    34    35   ar
    32    35    36   ar
    33    36    37   ar
    34    37    38   ar
    35    38    39   ar
    36    39    42    1
    37    42    43   ar
    38    43    44   ar
    39    44    45   ar
    40    45    46   ar
    41    46    47   ar
    42    39    40   ar
    43    40    41   ar
    44    41    33   ar
    45     6     1   ar
    46    41    36   ar
    47    12     7    1
    48    47    42   ar
    49    23    18   ar
    50    30    31    1
    51    26    27    1
    52    14    15    1
@<TRIPOS>MOLECULE
*****
 47 52 0 0 0
SMALL
GASTEIGER

@<TRIPOS>ATOM
      1 C          12.0507   81.3380   25.3814 C.ar    1  UNL1        0.0702
      2 C          13.1911   81.7000   26.1174 C.ar    1  UNL1        0.0191
      3 C          14.0011   82.7486   25.6802 C.ar    1  UNL1        0.0356
      4 C          13.6666   83.4324   24.5059 C.ar    1  UNL1        0.1318
      5 N          12.5368   83.0959   23.8277 N.ar    1  UNL1       -0.2279
      6 C          11.7312   82.0795   24.2353 C.ar    1  UNL1        0.1149
      7 N          14.4684   84.5321   24.0509 N.pl3   1  UNL1       -0.2924
      8 C          15.0913   84.4143   22.7252 C.3     1  UNL1        0.0923
      9 C          15.5020   85.7870   22.1700 C.3     1  UNL1        0.0252
     10 C          14.3903   86.8253   22.4341 C.3     1  UNL1        0.0472
     11 C          14.0521   86.9641   23.9476 C.3     1  UNL1        0.0261
     12 C          14.6029   85.8005   24.7978 C.3     1  UNL1        0.1035
     13 C          13.9639   85.7833   26.2004 C.3     1  UNL1        0.1567
     14 O          13.7309   87.0936   26.6386 O.3     1  UNL1       -0.3802
     15 H          13.3543   87.0156   27.5534 H       1  UNL1        0.2105
     16 C          14.7405   88.1831   21.8057 C.3     1  UNL1        0.2054
     17 O          14.6227   88.1194   20.3851 O.3     1  UNL1       -0.4755
     18 C          14.2148   86.9834   19.6716 C.ar    1  UNL1        0.1388
     19 C          12.8630   86.6148   19.5491 C.ar    1  UNL1        0.0369
     20 C          12.5101   85.4758   18.8232 C.ar    1  UNL1        0.0033
     21 C          13.4953   84.6916   18.2186 C.ar    1  UNL1        0.0066
     22 C          14.8530   85.0375   18.3392 C.ar    1  UNL1        0.0785
     23 C          15.1981   86.1941   19.0627 C.ar    1  UNL1        0.0433
     24 C          15.9130   84.2197   17.7001 C.2     1  UNL1        0.3381
     25 O          16.5934   83.4221   18.3988 O.2     1  UNL1       -0.2451
     26 O          16.1748   84.2943   16.3325 O.3     1  UNL1       -0.4771
     27 H          15.6025   84.8334   15.6959 H       1  UNL1        0.2954
     28 C          11.5472   78.8924   25.8378 C.2     1  UNL1        0.2839
     29 O          12.5863   78.5015   25.2412 O.2     1  UNL1       -0.2665
     30 N          11.1765   80.2804   25.8112 N.am    1  UNL1       -0.2766
     31 H          10.1865   80.5281   26.0371 H       1  UNL1        0.1553
     32 C           8.4073   78.4347   25.3861 C.3     1  UNL1        0.0345
     33 C           9.3142   77.7137   26.3374 C.ar    1  UNL1        0.0202
     34 C          10.6850   77.9172   26.5320 C.ar    1  UNL1        0.1946
     35 O          11.1383   77.0883   27.4557 O.2     1  UNL1       -0.4492
     36 C          10.1320   76.3588   27.8712 C.ar    1  UNL1        0.1452
     37 C          10.1561   75.3606   28.8389 C.ar    1  UNL1        0.0375
     38 C           8.9519   74.6989   29.1350 C.ar    1  UNL1        0.0031
     39 C           7.7475   75.0425   28.4633 C.ar    1  UNL1        0.0002
     40 C           7.7666   76.0646   27.4840 C.ar    1  UNL1        0.0028
     41 C           8.9798   76.7003   27.2152 C.ar    1  UNL1        0.0337
     42 C           6.4813   74.3365   28.7847 C.ar    1  UNL1        0.0000
     43 C           6.0292   73.2746   27.9782 C.ar    1  UNL1        0.0000
     44 C           4.8370   72.6110   28.2839 C.ar    1  UNL1        0.0000
     45 C           4.0837   72.9986   29.3943 C.ar    1  UNL1        0.0000
     46 C           4.5213   74.0505   30.2019 C.ar    1  UNL1        0.0000
     47 C           5.7131   74.7172   29.9015 C.ar    1  UNL1        0.0000
@<TRIPOS>BOND
     1    32    33    1
     2    33    34   ar
     3    34    28    1
     4    28    29    2
     5    28    30   am
     6    30     1    1
     7     1     2   ar
     8     2     3   ar
     9     3     4   ar
    10     4     7    1
    11     7     8    1
    12     8     9    1
    13     9    10    1
    14    10    16    1
    15    16    17    1
    16    17    18    1
    17    18    19   ar
    18    19    20   ar
    19    20    21   ar
    20    21    22   ar
    21    22    24    1
    22    24    25    2
    23    24    26    1
    24    22    23   ar
    25    10    11    1
    26    11    12    1
    27    12    13    1
    28    13    14    1
    29     4     5   ar
    30     5     6   ar
    31    34    35   ar
    32    35    36   ar
    33    36    37   ar
    34    37    38   ar
    35    38    39   ar
    36    39    42    1
    37    42    43   ar
    38    43    44   ar
    39    44    45   ar
    40    45    46   ar
    41    46    47   ar
    42    39    40   ar
    43    40    41   ar
    44    41    33   ar
    45     6     1   ar
    46    41    36   ar
    47    12     7    1
    48    47    42   ar
    49    23    18   ar
    50    30    31    1
    51    26    27    1
    52    14    15    1
@<TRIPOS>MOLECULE
*****
 47 52 0 0 0
SMALL
GASTEIGER

@<TRIPOS>ATOM
      1 C          11.9890   81.0134   25.1584 C.ar    1  UNL1        0.0702
      2 C          13.3903   80.9310   25.2124 C.ar    1  UNL1        0.0191
      3 C          14.1702   82.0119   24.7998 C.ar    1  UNL1        0.0356
      4 C          13.5440   83.1734   24.3335 C.ar    1  UNL1        0.1318
      5 N          12.1863   83.2515   24.3263 N.ar    1  UNL1       -0.2279
      6 C          11.4057   82.2124   24.7254 C.ar    1  UNL1        0.1149
      7 N          14.3239   84.3083   23.9299 N.pl3   1  UNL1       -0.2924
      8 C          14.8708   84.3048   22.5659 C.3     1  UNL1        0.0923
      9 C          15.2558   85.7202   22.1080 C.3     1  UNL1        0.0252
     10 C          14.1655   86.7316   22.5223 C.3     1  UNL1        0.0472
     11 C          13.9136   86.7401   24.0588 C.3     1  UNL1        0.0261
     12 C          14.5060   85.5081   24.7739 C.3     1  UNL1        0.1035
     13 C          13.9469   85.3706   26.2036 C.3     1  UNL1        0.1567
     14 O          13.9368   86.6198   26.8381 O.3     1  UNL1       -0.3802
     15 H          13.6017   86.4590   27.7582 H       1  UNL1        0.2105
     16 C          14.4860   88.1384   21.9937 C.3     1  UNL1        0.2054
     17 O          15.0987   88.9259   23.0139 O.3     1  UNL1       -0.4755
     18 C          16.4763   88.9586   23.2729 C.ar    1  UNL1        0.1388
     19 C          17.4363   88.9922   22.2455 C.ar    1  UNL1        0.0369
     20 C          18.7964   89.0286   22.5580 C.ar    1  UNL1        0.0033
     21 C          19.2140   89.0262   23.8909 C.ar    1  UNL1        0.0066
     22 C          18.2697   88.9815   24.9320 C.ar    1  UNL1        0.0785
     23 C          16.9006   88.9572   24.6072 C.ar    1  UNL1        0.0433
     24 C          18.6939   88.9832   26.3535 C.2     1  UNL1        0.3381
     25 O          19.8906   89.2446   26.6482 O.2     1  UNL1       -0.2451
     26 O          17.7980   88.7165   27.3883 O.3     1  UNL1       -0.4771
     27 H          16.8049   88.6005   27.2341 H       1  UNL1        0.2954
     28 C          11.6397   78.6310   25.9614 C.2     1  UNL1        0.2839
     29 O          12.8184   78.2926   25.6703 O.2     1  UNL1       -0.2665
     30 N          11.1495   79.9318   25.5977 N.am    1  UNL1       -0.2766
     31 H          10.1147   80.0758   25.5695 H       1  UNL1        0.1553
     32 C           8.4721   78.3428   25.5666 C.3     1  UNL1        0.0345
     33 C           9.3622   77.5456   26.4717 C.ar    1  UNL1        0.0202
     34 C          10.7453   77.6751   26.6416 C.ar    1  UNL1        0.1946
     35 O          11.1765   76.7932   27.5259 O.2     1  UNL1       -0.4492
     36 C          10.1444   76.0993   27.9392 C.ar    1  UNL1        0.1452
     37 C          10.1397   75.0677   28.8715 C.ar    1  UNL1        0.0375
     38 C           8.9108   74.4555   29.1725 C.ar    1  UNL1        0.0031
     39 C           7.7109   74.8807   28.5407 C.ar    1  UNL1        0.0002
     40 C           7.7597   75.9345   27.5966 C.ar    1  UNL1        0.0028
     41 C           8.9968   76.5194   27.3218 C.ar    1  UNL1        0.0337
     42 C           6.4184   74.2263   28.8668 C.ar    1  UNL1        0.0000
     43 C           5.8970   73.2172   28.0349 C.ar    1  UNL1        0.0000
     44 C           4.6802   72.6020   28.3451 C.ar    1  UNL1        0.0000
     45 C           3.9711   72.9861   29.4854 C.ar    1  UNL1        0.0000
     46 C           4.4775   73.9861   30.3184 C.ar    1  UNL1        0.0000
     47 C           5.6942   74.6041   30.0136 C.ar    1  UNL1        0.0000
@<TRIPOS>BOND
     1    32    33    1
     2    33    34   ar
     3    34    28    1
     4    28    29    2
     5    28    30   am
     6    30     1    1
     7     1     2   ar
     8     2     3   ar
     9     3     4   ar
    10     4     7    1
    11     7     8    1
    12     8     9    1
    13     9    10    1
    14    10    16    1
    15    16    17    1
    16    17    18    1
    17    18    19   ar
    18    19    20   ar
    19    20    21   ar
    20    21    22   ar
    21    22    24    1
    22    24    25    2
    23    24    26    1
    24    22    23   ar
    25    10    11    1
    26    11    12    1
    27    12    13    1
    28    13    14    1
    29     4     5   ar
    30     5     6   ar
    31    34    35   ar
    32    35    36   ar
    33    36    37   ar
    34    37    38   ar
    35    38    39   ar
    36    39    42    1
    37    42    43   ar
    38    43    44   ar
    39    44    45   ar
    40    45    46   ar
    41    46    47   ar
    42    39    40   ar
    43    40    41   ar
    44    41    33   ar
    45     6     1   ar
    46    41    36   ar
    47    12     7    1
    48    47    42   ar
    49    23    18   ar
    50    30    31    1
    51    26    27    1
    52    14    15    1
@<TRIPOS>MOLECULE
*****
 47 52 0 0 0
SMALL
GASTEIGER

@<TRIPOS>ATOM
      1 C          11.8239   80.8050   25.2255 C.ar    1  UNL1        0.0702
      2 C          13.2171   80.6769   25.0987 C.ar    1  UNL1        0.0191
      3 C          13.9868   81.7730   24.7075 C.ar    1  UNL1        0.0356
      4 C          13.3586   82.9954   24.4438 C.ar    1  UNL1        0.1318
      5 N          12.0141   83.1130   24.6110 N.ar    1  UNL1       -0.2279
      6 C          11.2438   82.0600   24.9932 C.ar    1  UNL1        0.1149
      7 N          14.1317   84.1442   24.0670 N.pl3   1  UNL1       -0.2924
      8 C          14.5402   84.2547   22.6598 C.3     1  UNL1        0.0923
      9 C          14.9245   85.6971   22.2947 C.3     1  UNL1        0.0252
     10 C          13.9145   86.6911   22.9075 C.3     1  UNL1        0.0472
     11 C          13.8166   86.5625   24.4560 C.3     1  UNL1        0.0261
     12 C          14.4360   85.2554   24.9930 C.3     1  UNL1        0.1035
     13 C          14.0171   84.9987   26.4539 C.3     1  UNL1        0.1567
     14 O          13.9331   86.2116   27.1502 O.3     1  UNL1       -0.3802
     15 H          13.6954   85.9772   28.0847 H       1  UNL1        0.2105
     16 C          14.2272   88.1331   22.4782 C.3     1  UNL1        0.2054
     17 O          14.5506   88.1799   21.0891 O.3     1  UNL1       -0.4755
     18 C          13.6300   88.4535   20.0676 C.ar    1  UNL1        0.1388
     19 C          12.2639   88.6710   20.3218 C.ar    1  UNL1        0.0369
     20 C          11.3898   88.9445   19.2683 C.ar    1  UNL1        0.0033
     21 C          11.8631   88.9985   17.9552 C.ar    1  UNL1        0.0066
     22 C          13.2234   88.7727   17.6797 C.ar    1  UNL1        0.0785
     23 C          14.0991   88.5098   18.7495 C.ar    1  UNL1        0.0433
     24 C          13.7455   88.8307   16.2923 C.2     1  UNL1        0.3381
     25 O          12.9578   88.6754   15.3213 O.2     1  UNL1       -0.2451
     26 O          15.0927   89.0694   16.0232 O.3     1  UNL1       -0.4771
     27 H          15.7603   89.3046   16.7459 H       1  UNL1        0.2954
     28 C          11.5120   78.4475   26.1129 C.2     1  UNL1        0.2839
     29 O          12.7232   78.1504   25.9301 O.2     1  UNL1       -0.2665
     30 N          10.9983   79.7072   25.6502 N.am    1  UNL1       -0.2766
     31 H           9.9638   79.8026   25.5354 H       1  UNL1        0.1553
     32 C           8.3688   78.0979   25.5921 C.3     1  UNL1        0.0345
     33 C           9.2349   77.3270   26.5424 C.ar    1  UNL1        0.0202
     34 C          10.6073   77.4833   26.7672 C.ar    1  UNL1        0.1946
     35 O          11.0172   76.6193   27.6789 O.2     1  UNL1       -0.4492
     36 C           9.9812   75.9116   28.0579 C.ar    1  UNL1        0.1452
     37 C           9.9563   74.8906   29.0015 C.ar    1  UNL1        0.0375
     38 C           8.7270   74.2598   29.2592 C.ar    1  UNL1        0.0031
     39 C           7.5468   74.6562   28.5737 C.ar    1  UNL1        0.0002
     40 C           7.6159   75.7000   27.6199 C.ar    1  UNL1        0.0028
     41 C           8.8528   76.3040   27.3891 C.ar    1  UNL1        0.0337
     42 C           6.2536   73.9823   28.8544 C.ar    1  UNL1        0.0000
     43 C           5.8147   72.9126   28.0511 C.ar    1  UNL1        0.0000
     44 C           4.5971   72.2793   28.3185 C.ar    1  UNL1        0.0000
     45 C           3.8051   72.7053   29.3871 C.ar    1  UNL1        0.0000
     46 C           4.2293   73.7654   30.1911 C.ar    1  UNL1        0.0000
     47 C           5.4464   74.4019   29.9290 C.ar    1  UNL1        0.0000
@<TRIPOS>BOND
     1    32    33    1
     2    33    34   ar
     3    34    28    1
     4    28    29    2
     5    28    30   am
     6    30     1    1
     7     1     2   ar
     8     2     3   ar
     9     3     4   ar
    10     4     7    1
    11     7     8    1
    12     8     9    1
    13     9    10    1
    14    10    16    1
    15    16    17    1
    16    17    18    1
    17    18    19   ar
    18    19    20   ar
    19    20    21   ar
    20    21    22   ar
    21    22    24    1
    22    24    25    2
    23    24    26    1
    24    22    23   ar
    25    10    11    1
    26    11    12    1
    27    12    13    1
    28    13    14    1
    29     4     5   ar
    30     5     6   ar
    31    34    35   ar
    32    35    36   ar
    33    36    37   ar
    34    37    38   ar
    35    38    39   ar
    36    39    42    1
    37    42    43   ar
    38    43    44   ar
    39    44    45   ar
    40    45    46   ar
    41    46    47   ar
    42    39    40   ar
    43    40    41   ar
    44    41    33   ar
    45     6     1   ar
    46    41    36   ar
    47    12     7    1
    48    47    42   ar
    49    23    18   ar
    50    30    31    1
    51    26    27    1
    52    14    15    1
@<TRIPOS>MOLECULE
*****
 47 52 0 0 0
SMALL
GASTEIGER

@<TRIPOS>ATOM
      1 C          10.5972   81.0639   24.9536 C.ar    1  UNL1        0.0702
      2 C          10.3340   80.5286   26.2254 C.ar    1  UNL1        0.0191
      3 C           9.6384   79.3251   26.3466 C.ar    1  UNL1        0.0356
      4 C           9.2077   78.6606   25.1928 C.ar    1  UNL1        0.1318
      5 N           9.5065   79.1717   23.9686 N.ar    1  UNL1       -0.2279
      6 C          10.1846   80.3413   23.8253 C.ar    1  UNL1        0.1149
      7 N           8.5150   77.4077   25.2907 N.pl3   1  UNL1       -0.2924
      8 C           7.1409   77.4314   25.8111 C.3     1  UNL1        0.0923
      9 C           6.3698   76.1585   25.4284 C.3     1  UNL1        0.0252
     10 C           6.6545   75.7823   23.9584 C.3     1  UNL1        0.0472
     11 C           8.1713   75.5660   23.6817 C.3     1  UNL1        0.0261
     12 C           9.0745   76.1316   24.7974 C.3     1  UNL1        0.1035
     13 C          10.5429   76.2169   24.3368 C.3     1  UNL1        0.1567
     14 O          10.6201   76.8570   23.0927 O.3     1  UNL1       -0.3802
     15 H          11.5791   76.8493   22.8377 H       1  UNL1        0.2105
     16 C           5.8216   74.5649   23.5274 C.3     1  UNL1        0.2054
     17 O           5.1245   74.8431   22.3139 O.3     1  UNL1       -0.4755
     18 C           4.5802   76.0909   21.9781 C.ar    1  UNL1        0.1388
     19 C           5.2241   76.9837   21.1026 C.ar    1  UNL1        0.0369
     20 C           4.6365   78.2127   20.7977 C.ar    1  UNL1        0.0033
     21 C           3.4093   78.5672   21.3630 C.ar    1  UNL1        0.0066
     22 C           2.7555   77.6929   22.2493 C.ar    1  UNL1        0.0785
     23 C           3.3498   76.4511   22.5411 C.ar    1  UNL1        0.0433
     24 C           1.4494   78.0498   22.8556 C.2     1  UNL1        0.3381
     25 O           0.6786   78.8455   22.2556 O.2     1  UNL1       -0.2451
     26 O           1.0348   77.5159   24.0753 O.3     1  UNL1       -0.4771
     27 H           1.5537   76.7955   24.5603 H       1  UNL1        0.2954
     28 C          12.7615   82.3888   24.8955 C.2     1  UNL1        0.2839
     29 O          13.4272   81.4447   25.3996 O.2     1  UNL1       -0.2665
     30 N          11.3324   82.2881   24.7848 N.am    1  UNL1       -0.2766
     31 H          10.7869   83.1705   24.6578 H       1  UNL1        0.1553
     32 C          15.5111   82.5822   23.2600 C.3     1  UNL1        0.0345
     33 C          14.6454   83.7081   23.7399 C.ar    1  UNL1        0.0202
     34 C          13.4454   83.6193   24.4544 C.ar    1  UNL1        0.1946
     35 O          12.9730   84.8291   24.6966 O.2     1  UNL1       -0.4492
     36 C          13.8053   85.6981   24.1772 C.ar    1  UNL1        0.1452
     37 C          13.7003   87.0844   24.1989 C.ar    1  UNL1        0.0375
     38 C          14.7144   87.8331   23.5771 C.ar    1  UNL1        0.0031
     39 C          15.8128   87.1889   22.9459 C.ar    1  UNL1        0.0002
     40 C          15.8813   85.7749   22.9460 C.ar    1  UNL1        0.0028
     41 C          14.8570   85.0633   23.5726 C.ar    1  UNL1        0.0337
     42 C          16.8784   87.9905   22.2922 C.ar    1  UNL1        0.0000
     43 C          18.1106   88.2055   22.9385 C.ar    1  UNL1        0.0000
     44 C          19.1125   88.9599   22.3200 C.ar    1  UNL1        0.0000
     45 C          18.8968   89.5075   21.0535 C.ar    1  UNL1        0.0000
     46 C          17.6787   89.3015   20.4022 C.ar    1  UNL1        0.0000
     47 C          16.6736   88.5473   21.0154 C.ar    1  UNL1        0.0000
@<TRIPOS>BOND
     1    32    33    1
     2    33    34   ar
     3    34    28    1
     4    28    29    2
     5    28    30   am
     6    30     1    1
     7     1     2   ar
     8     2     3   ar
     9     3     4   ar
    10     4     7    1
    11     7     8    1
    12     8     9    1
    13     9    10    1
    14    10    16    1
    15    16    17    1
    16    17    18    1
    17    18    19   ar
    18    19    20   ar
    19    20    21   ar
    20    21    22   ar
    21    22    24    1
    22    24    25    2
    23    24    26    1
    24    22    23   ar
    25    10    11    1
    26    11    12    1
    27    12    13    1
    28    13    14    1
    29     4     5   ar
    30     5     6   ar
    31    34    35   ar
    32    35    36   ar
    33    36    37   ar
    34    37    38   ar
    35    38    39   ar
    36    39    42    1
    37    42    43   ar
    38    43    44   ar
    39    44    45   ar
    40    45    46   ar
    41    46    47   ar
    42    39    40   ar
    43    40    41   ar
    44    41    33   ar
    45     6     1   ar
    46    41    36   ar
    47    12     7    1
    48    47    42   ar
    49    23    18   ar
    50    30    31    1
    51    26    27    1
    52    14    15    1
@<TRIPOS>MOLECULE
*****
 47 52 0 0 0
SMALL
GASTEIGER

@<TRIPOS>ATOM
      1 C          11.5804   80.8002   24.1714 C.ar    1  UNL1        0.0702
      2 C          12.3511   79.6764   24.5126 C.ar    1  UNL1        0.0191
      3 C          11.7333   78.4430   24.7222 C.ar    1  UNL1        0.0356
      4 C          10.3440   78.3384   24.5897 C.ar    1  UNL1        0.1318
      5 N           9.6179   79.4268   24.2188 N.ar    1  UNL1       -0.2279
      6 C          10.1976   80.6381   24.0072 C.ar    1  UNL1        0.1149
      7 N           9.6889   77.0749   24.7729 N.pl3   1  UNL1       -0.2924
      8 C           9.3805   76.6644   26.1498 C.3     1  UNL1        0.0923
      9 C           8.2954   75.5769   26.1854 C.3     1  UNL1        0.0252
     10 C           7.1671   75.9141   25.1870 C.3     1  UNL1        0.0472
     11 C           7.6891   76.0705   23.7285 C.3     1  UNL1        0.0261
     12 C           9.2212   76.2343   23.6507 C.3     1  UNL1        0.1035
     13 C           9.6591   76.7307   22.2588 C.3     1  UNL1        0.1567
     14 O           9.0391   75.9689   21.2596 O.3     1  UNL1       -0.3802
     15 H           9.3860   76.3125   20.3956 H       1  UNL1        0.2105
     16 C           6.0270   74.8873   25.2728 C.3     1  UNL1        0.2054
     17 O           4.9889   75.3662   26.1267 O.3     1  UNL1       -0.4755
     18 C           4.9314   75.1432   27.5098 C.ar    1  UNL1        0.1388
     19 C           4.8173   73.8546   28.0619 C.ar    1  UNL1        0.0369
     20 C           4.7685   73.6874   29.4470 C.ar    1  UNL1        0.0033
     21 C           4.8268   74.7967   30.2938 C.ar    1  UNL1        0.0066
     22 C           4.9296   76.0938   29.7605 C.ar    1  UNL1        0.0785
     23 C           4.9903   76.2516   28.3634 C.ar    1  UNL1        0.0433
     24 C           4.9977   77.2837   30.6439 C.2     1  UNL1        0.3381
     25 O           6.1180   77.7122   31.0297 O.2     1  UNL1       -0.2451
     26 O           3.8501   77.9610   31.0546 O.3     1  UNL1       -0.4771
     27 H           2.9286   77.7368   30.7024 H       1  UNL1        0.2954
     28 C          12.8319   82.8742   24.9298 C.2     1  UNL1        0.2839
     29 O          12.6870   82.5930   26.1498 O.2     1  UNL1       -0.2665
     30 N          12.1810   82.0828   23.9225 N.am    1  UNL1       -0.2766
     31 H          12.0623   82.5000   22.9716 H       1  UNL1        0.1553
     32 C          15.3640   82.8907   22.9649 C.3     1  UNL1        0.0345
     33 C          14.7444   84.0558   23.6762 C.ar    1  UNL1        0.0202
     34 C          13.6388   84.0442   24.5340 C.ar    1  UNL1        0.1946
     35 O          13.3895   85.2674   24.9666 O.2     1  UNL1       -0.4492
     36 C          14.2772   86.0716   24.4347 C.ar    1  UNL1        0.1452
     37 C          14.3891   87.4452   24.6190 C.ar    1  UNL1        0.0375
     38 C          15.4246   88.1190   23.9485 C.ar    1  UNL1        0.0031
     39 C          16.3282   87.4141   23.1081 C.ar    1  UNL1        0.0002
     40 C          16.1788   86.0155   22.9473 C.ar    1  UNL1        0.0028
     41 C          15.1396   85.3790   23.6278 C.ar    1  UNL1        0.0337
     42 C          17.4184   88.1367   22.4049 C.ar    1  UNL1        0.0000
     43 C          17.2178   88.6492   21.1090 C.ar    1  UNL1        0.0000
     44 C          18.2459   89.3302   20.4498 C.ar    1  UNL1        0.0000
     45 C          19.4828   89.5066   21.0739 C.ar    1  UNL1        0.0000
     46 C          19.6943   89.0028   22.3591 C.ar    1  UNL1        0.0000
     47 C          18.6696   88.3218   23.0235 C.ar    1  UNL1        0.0000
@<TRIPOS>BOND
     1    32    33    1
     2    33    34   ar
     3    34    28    1
     4    28    29    2
     5    28    30   am
     6    30     1    1
     7     1     2   ar
     8     2     3   ar
     9     3     4   ar
    10     4     7    1
    11     7     8    1
    12     8     9    1
    13     9    10    1
    14    10    16    1
    15    16    17    1
    16    17    18    1
    17    18    19   ar
    18    19    20   ar
    19    20    21   ar
    20    21    22   ar
    21    22    24    1
    22    24    25    2
    23    24    26    1
    24    22    23   ar
    25    10    11    1
    26    11    12    1
    27    12    13    1
    28    13    14    1
    29     4     5   ar
    30     5     6   ar
    31    34    35   ar
    32    35    36   ar
    33    36    37   ar
    34    37    38   ar
    35    38    39   ar
    36    39    42    1
    37    42    43   ar
    38    43    44   ar
    39    44    45   ar
    40    45    46   ar
    41    46    47   ar
    42    39    40   ar
    43    40    41   ar
    44    41    33   ar
    45     6     1   ar
    46    41    36   ar
    47    12     7    1
    48    47    42   ar
    49    23    18   ar
    50    30    31    1
    51    26    27    1
    52    14    15    1
