@<TRIPOS>MOLECULE
*****
 51 57 0 0 0
SMALL
GASTEIGER

@<TRIPOS>ATOM
      1 C         -61.4267  -47.3245  -25.4747 C.ar    1  UNL1        0.0360
      2 C         -62.5019  -48.1388  -25.8756 C.ar    1  UNL1        0.0043
      3 C         -62.7290  -49.3723  -25.2584 C.ar    1  UNL1        0.0148
      4 C         -61.8774  -49.8240  -24.2363 C.ar    1  UNL1        0.0516
      5 C         -60.8209  -49.0040  -23.8182 C.ar    1  UNL1        0.0148
      6 C         -60.5911  -47.7707  -24.4346 C.ar    1  UNL1        0.0043
      7 N         -60.8283  -42.4737  -25.4609 N.ar    1  UNL1       -0.2357
      8 N         -60.4988  -41.6114  -26.4196 N.ar    1  UNL1       -0.1663
      9 C         -60.4351  -42.2840  -27.5968 C.ar    1  UNL1        0.1260
     10 C         -60.7227  -43.6124  -27.3519 C.ar    1  UNL1        0.0880
     11 C         -60.7375  -44.7667  -28.1284 C.ar    1  UNL1        0.1380
     12 N         -60.9646  -45.9519  -27.4852 N.ar    1  UNL1       -0.2117
     13 C         -61.1847  -46.0156  -26.1298 C.ar    1  UNL1        0.1653
     14 N         -61.1694  -44.8661  -25.3849 N.ar    1  UNL1       -0.2079
     15 C         -60.9458  -43.6898  -26.0175 C.ar    1  UNL1        0.1652
     16 C         -61.7018  -42.1264  -19.9020 C.2     1  UNL1        0.4050
     17 O         -60.7187  -41.9433  -19.1313 O.2     1  UNL1       -0.2262
     18 N         -61.4785  -42.4902  -21.2778 N.am    1  UNL1       -0.2459
     19 C         -60.1074  -42.7781  -21.7293 C.3     1  UNL1        0.0987
     20 C         -60.0656  -43.1558  -23.2143 C.3     1  UNL1        0.0461
     21 C         -60.8912  -42.1508  -24.0322 C.3     1  UNL1        0.1102
     22 C         -62.3659  -42.0793  -23.5627 C.3     1  UNL1        0.0461
     23 C         -62.6138  -42.7183  -22.1849 C.3     1  UNL1        0.0987
     24 C         -63.4308  -40.8236  -18.6997 C.3     1  UNL1        0.2573
     25 O         -63.0055  -41.9767  -19.4160 O.3     1  UNL1       -0.4304
     26 N         -60.4884  -44.7390  -29.5421 N.pl3   1  UNL1       -0.2879
     27 C         -61.5821  -44.4333  -30.4682 C.3     1  UNL1        0.1242
     28 C         -61.0046  -43.8920  -31.7788 C.3     1  UNL1        0.1636
     29 O         -60.0329  -44.7787  -32.3022 O.3     1  UNL1       -0.3501
     30 C         -58.9256  -44.8519  -31.4229 C.3     1  UNL1        0.1636
     31 C         -59.3345  -45.4629  -30.0784 C.3     1  UNL1        0.1242
     32 N         -62.1037  -51.0777  -23.5692 N.am    1  UNL1       -0.2681
     33 C         -63.3323  -51.8175  -23.6370 C.2     1  UNL1        0.3082
     34 O         -64.2267  -51.4915  -24.4641 O.2     1  UNL1       -0.2522
     35 N         -63.5332  -52.9318  -22.7541 N.am    1  UNL1       -0.2681
     36 H         -61.2971  -51.5263  -23.0788 H       1  UNL1        0.1564
     37 H         -62.9058  -53.0068  -21.9216 H       1  UNL1        0.1564
     38 C         -64.6178  -53.8688  -22.8701 C.ar    1  UNL1        0.0516
     39 C         -64.5639  -55.0745  -22.1558 C.ar    1  UNL1        0.0144
     40 C         -65.5960  -56.0102  -22.2644 C.ar    1  UNL1       -0.0029
     41 C         -66.6892  -55.7639  -23.1094 C.ar    1  UNL1       -0.0207
     42 C         -66.7394  -54.5649  -23.8361 C.ar    1  UNL1       -0.0029
     43 C         -65.7069  -53.6287  -23.7267 C.ar    1  UNL1        0.0144
     44 C         -67.8253  -56.7503  -23.1920 C.3     1  UNL1        0.0437
     45 C         -68.6607  -56.7490  -21.9042 C.3     1  UNL1        0.0769
     46 N         -68.4188  -55.5250  -21.1095 N.3     1  UNL1       -0.2681
     47 C         -69.5579  -54.5925  -21.2262 C.3     1  UNL1        0.1046
     48 C         -69.4386  -53.4411  -20.2076 C.3     1  UNL1        0.1595
     49 O         -68.1316  -53.3744  -19.6743 O.3     1  UNL1       -0.3508
     50 C         -67.8648  -54.5386  -18.9113 C.3     1  UNL1        0.1595
     51 C         -68.1708  -55.8365  -19.6893 C.3     1  UNL1        0.1046
@<TRIPOS>BOND
     1    24    25    1
     2    25    16    1
     3    16    17    2
     4    16    18   am
     5    18    19    1
     6    19    20    1
     7    20    21    1
     8    21     7    1
     9     7     8   ar
    10     8     9   ar
    11     9    10   ar
    12    10    11   ar
    13    11    26    1
    14    26    27    1
    15    27    28    1
    16    28    29    1
    17    29    30    1
    18    30    31    1
    19    11    12   ar
    20    12    13   ar
    21    13     1    1
    22     1     2   ar
    23     2     3   ar
    24     3     4   ar
    25     4    32    1
    26    32    33   am
    27    33    34    2
    28    33    35   am
    29    35    38    1
    30    38    39   ar
    31    39    40   ar
    32    40    41   ar
    33    41    44    1
    34    44    45    1
    35    45    46    1
    36    46    47    1
    37    47    48    1
    38    48    49    1
    39    49    50    1
    40    50    51    1
    41    41    42   ar
    42    42    43   ar
    43     4     5   ar
    44     5     6   ar
    45    13    14   ar
    46    14    15   ar
    47    21    22    1
    48    22    23    1
    49    23    18    1
    50    15     7   ar
    51    15    10   ar
    52    31    26    1
    53     6     1   ar
    54    43    38   ar
    55    51    46    1
    56    32    36    1
    57    35    37    1
@<TRIPOS>MOLECULE
*****
 51 57 0 0 0
SMALL
GASTEIGER

@<TRIPOS>ATOM
      1 C         -62.3433  -47.2360  -25.7160 C.ar    1  UNL1        0.0360
      2 C         -61.2916  -47.6310  -24.8689 C.ar    1  UNL1        0.0043
      3 C         -61.3320  -48.8642  -24.2119 C.ar    1  UNL1        0.0148
      4 C         -62.4316  -49.7229  -24.3775 C.ar    1  UNL1        0.0516
      5 C         -63.4686  -49.3428  -25.2398 C.ar    1  UNL1        0.0148
      6 C         -63.4310  -48.1098  -25.8970 C.ar    1  UNL1        0.0043
      7 N         -63.1202  -42.4203  -26.0228 N.ar    1  UNL1       -0.2357
      8 N         -62.7940  -41.5198  -26.9469 N.ar    1  UNL1       -0.1663
      9 C         -62.2351  -42.1696  -27.9993 C.ar    1  UNL1        0.1260
     10 C         -62.2035  -43.5190  -27.7069 C.ar    1  UNL1        0.0880
     11 C         -61.6931  -44.6442  -28.3464 C.ar    1  UNL1        0.1380
     12 N         -61.7516  -45.8307  -27.6691 N.ar    1  UNL1       -0.2117
     13 C         -62.3016  -45.9270  -26.4129 C.ar    1  UNL1        0.1653
     14 N         -62.8017  -44.8069  -25.8033 N.ar    1  UNL1       -0.2079
     15 C         -62.7467  -43.6297  -26.4704 C.ar    1  UNL1        0.1652
     16 C         -64.3416  -40.4569  -20.8810 C.2     1  UNL1        0.4050
     17 O         -65.5327  -40.1414  -20.6058 O.2     1  UNL1       -0.2262
     18 N         -63.9588  -40.6946  -22.2492 N.am    1  UNL1       -0.2459
     19 C         -64.9318  -40.4306  -23.3216 C.3     1  UNL1        0.0987
     20 C         -64.3466  -40.7299  -24.7063 C.3     1  UNL1        0.0461
     21 C         -63.6504  -42.0996  -24.6941 C.3     1  UNL1        0.1102
     22 C         -62.5239  -42.1787  -23.6334 C.3     1  UNL1        0.0461
     23 C         -62.5722  -41.0516  -22.5867 C.3     1  UNL1        0.0987
     24 C         -63.6470  -40.1308  -18.5265 C.3     1  UNL1        0.2573
     25 O         -63.3968  -40.5731  -19.8552 O.3     1  UNL1       -0.4304
     26 N         -61.0908  -44.5752  -29.6479 N.pl3   1  UNL1       -0.2879
     27 C         -61.9176  -44.2643  -30.8171 C.3     1  UNL1        0.1242
     28 C         -61.0364  -43.6789  -31.9240 C.3     1  UNL1        0.1636
     29 O         -59.9426  -44.5347  -32.1988 O.3     1  UNL1       -0.3501
     30 C         -59.0961  -44.6118  -31.0665 C.3     1  UNL1        0.1636
     31 C         -59.8214  -45.2648  -29.8850 C.3     1  UNL1        0.1242
     32 N         -62.4859  -51.0068  -23.7320 N.am    1  UNL1       -0.2681
     33 C         -63.6569  -51.8360  -23.6821 C.2     1  UNL1        0.3082
     34 O         -64.6642  -51.5579  -24.3882 O.2     1  UNL1       -0.2522
     35 N         -63.6706  -52.9845  -22.8206 N.am    1  UNL1       -0.2681
     36 H         -61.5965  -51.4052  -23.3542 H       1  UNL1        0.1564
     37 H         -62.9454  -53.0329  -22.0696 H       1  UNL1        0.1564
     38 C         -64.6905  -53.9980  -22.8420 C.ar    1  UNL1        0.0516
     39 C         -65.8522  -53.7883  -23.5992 C.ar    1  UNL1        0.0144
     40 C         -66.8665  -54.7492  -23.6232 C.ar    1  UNL1       -0.0029
     41 C         -66.7443  -55.9269  -22.8697 C.ar    1  UNL1       -0.0207
     42 C         -65.5895  -56.1334  -22.1002 C.ar    1  UNL1       -0.0029
     43 C         -64.5748  -55.1722  -22.0769 C.ar    1  UNL1        0.0144
     44 C         -67.8155  -56.9849  -22.9310 C.3     1  UNL1        0.0437
     45 C         -68.6600  -56.9994  -21.6493 C.3     1  UNL1        0.0769
     46 N         -68.6229  -55.6870  -20.9679 N.3     1  UNL1       -0.2681
     47 C         -69.9199  -54.9931  -21.0990 C.3     1  UNL1        0.1046
     48 C         -69.9815  -53.7547  -20.1826 C.3     1  UNL1        0.1595
     49 O         -68.6916  -53.4028  -19.7248 O.3     1  UNL1       -0.3508
     50 C         -68.1841  -54.4269  -18.8867 C.3     1  UNL1        0.1595
     51 C         -68.2697  -55.8220  -19.5423 C.3     1  UNL1        0.1046
@<TRIPOS>BOND
     1    24    25    1
     2    25    16    1
     3    16    17    2
     4    16    18   am
     5    18    19    1
     6    19    20    1
     7    20    21    1
     8    21     7    1
     9     7     8   ar
    10     8     9   ar
    11     9    10   ar
    12    10    11   ar
    13    11    26    1
    14    26    27    1
    15    27    28    1
    16    28    29    1
    17    29    30    1
    18    30    31    1
    19    11    12   ar
    20    12    13   ar
    21    13     1    1
    22     1     2   ar
    23     2     3   ar
    24     3     4   ar
    25     4    32    1
    26    32    33   am
    27    33    34    2
    28    33    35   am
    29    35    38    1
    30    38    39   ar
    31    39    40   ar
    32    40    41   ar
    33    41    44    1
    34    44    45    1
    35    45    46    1
    36    46    47    1
    37    47    48    1
    38    48    49    1
    39    49    50    1
    40    50    51    1
    41    41    42   ar
    42    42    43   ar
    43     4     5   ar
    44     5     6   ar
    45    13    14   ar
    46    14    15   ar
    47    21    22    1
    48    22    23    1
    49    23    18    1
    50    15     7   ar
    51    15    10   ar
    52    31    26    1
    53     6     1   ar
    54    43    38   ar
    55    51    46    1
    56    32    36    1
    57    35    37    1
@<TRIPOS>MOLECULE
*****
 51 57 0 0 0
SMALL
GASTEIGER

@<TRIPOS>ATOM
      1 C         -61.4601  -47.3103  -25.4394 C.ar    1  UNL1        0.0360
      2 C         -60.6552  -47.7433  -24.3696 C.ar    1  UNL1        0.0043
      3 C         -60.8997  -48.9704  -23.7465 C.ar    1  UNL1        0.0148
      4 C         -61.9631  -49.7846  -24.1710 C.ar    1  UNL1        0.0516
      5 C         -62.7507  -49.3672  -25.2522 C.ar    1  UNL1        0.0148
      6 C         -62.5088  -48.1401  -25.8762 C.ar    1  UNL1        0.0043
      7 N         -60.8408  -42.4621  -25.4542 N.ar    1  UNL1       -0.2357
      8 N         -60.4919  -41.6089  -26.4142 N.ar    1  UNL1       -0.1663
      9 C         -60.4119  -42.2911  -27.5848 C.ar    1  UNL1        0.1260
     10 C         -60.7093  -43.6163  -27.3341 C.ar    1  UNL1        0.0880
     11 C         -60.7164  -44.7767  -28.1016 C.ar    1  UNL1        0.1380
     12 N         -60.9591  -45.9557  -27.4528 N.ar    1  UNL1       -0.2117
     13 C         -61.2016  -46.0077  -26.1007 C.ar    1  UNL1        0.1653
     14 N         -61.1935  -44.8523  -25.3648 N.ar    1  UNL1       -0.2079
     15 C         -60.9545  -43.6821  -26.0030 C.ar    1  UNL1        0.1652
     16 C         -61.7884  -42.0770  -19.9100 C.2     1  UNL1        0.4050
     17 O         -60.8174  -41.8750  -19.1287 O.2     1  UNL1       -0.2262
     18 N         -61.5433  -42.4500  -21.2796 N.am    1  UNL1       -0.2459
     19 C         -60.1633  -42.7249  -21.7113 C.3     1  UNL1        0.0987
     20 C         -60.0981  -43.1150  -23.1922 C.3     1  UNL1        0.0461
     21 C         -60.9257  -42.1275  -24.0293 C.3     1  UNL1        0.1102
     22 C         -62.4070  -42.0702  -23.5789 C.3     1  UNL1        0.0461
     23 C         -62.6643  -42.7002  -22.1987 C.3     1  UNL1        0.0987
     24 C         -63.5058  -40.8689  -18.5973 C.3     1  UNL1        0.2573
     25 O         -63.0999  -41.9393  -19.4416 O.3     1  UNL1       -0.4304
     26 N         -60.4441  -44.7613  -29.5112 N.pl3   1  UNL1       -0.2879
     27 C         -61.5221  -44.4622  -30.4577 C.3     1  UNL1        0.1242
     28 C         -60.9224  -43.9329  -31.7632 C.3     1  UNL1        0.1636
     29 O         -59.9435  -44.8252  -32.2630 O.3     1  UNL1       -0.3501
     30 C         -58.8508  -44.8922  -31.3651 C.3     1  UNL1        0.1636
     31 C         -59.2825  -45.4912  -30.0223 C.3     1  UNL1        0.1242
     32 N         -62.2205  -51.0619  -23.5626 N.am    1  UNL1       -0.2681
     33 C         -63.4472  -51.7933  -23.7096 C.2     1  UNL1        0.3082
     34 O         -64.3055  -51.4319  -24.5601 O.2     1  UNL1       -0.2522
     35 N         -63.6879  -52.9396  -22.8794 N.am    1  UNL1       -0.2681
     36 H         -61.4363  -51.5325  -23.0567 H       1  UNL1        0.1564
     37 H         -63.0959  -53.0492  -22.0250 H       1  UNL1        0.1564
     38 C         -64.7692  -53.8667  -23.0762 C.ar    1  UNL1        0.0516
     39 C         -65.6061  -53.7198  -24.1920 C.ar    1  UNL1        0.0144
     40 C         -66.6750  -54.5962  -24.3975 C.ar    1  UNL1       -0.0029
     41 C         -66.9378  -55.6210  -23.4752 C.ar    1  UNL1       -0.0207
     42 C         -66.1109  -55.7620  -22.3507 C.ar    1  UNL1       -0.0029
     43 C         -65.0414  -54.8855  -22.1458 C.ar    1  UNL1        0.0144
     44 C         -68.0609  -56.5955  -23.7193 C.3     1  UNL1        0.0437
     45 C         -68.2748  -56.8366  -25.2201 C.3     1  UNL1        0.0769
     46 N         -68.9470  -55.6836  -25.8578 N.3     1  UNL1       -0.2681
     47 C         -69.0416  -55.8763  -27.3189 C.3     1  UNL1        0.1046
     48 C         -69.9618  -54.8179  -27.9595 C.3     1  UNL1        0.1595
     49 O         -70.1961  -53.7480  -27.0664 O.3     1  UNL1       -0.3508
     50 C         -70.9305  -54.2105  -25.9459 C.3     1  UNL1        0.1595
     51 C         -70.2914  -55.4561  -25.2953 C.3     1  UNL1        0.1046
@<TRIPOS>BOND
     1    24    25    1
     2    25    16    1
     3    16    17    2
     4    16    18   am
     5    18    19    1
     6    19    20    1
     7    20    21    1
     8    21     7    1
     9     7     8   ar
    10     8     9   ar
    11     9    10   ar
    12    10    11   ar
    13    11    26    1
    14    26    27    1
    15    27    28    1
    16    28    29    1
    17    29    30    1
    18    30    31    1
    19    11    12   ar
    20    12    13   ar
    21    13     1    1
    22     1     2   ar
    23     2     3   ar
    24     3     4   ar
    25     4    32    1
    26    32    33   am
    27    33    34    2
    28    33    35   am
    29    35    38    1
    30    38    39   ar
    31    39    40   ar
    32    40    41   ar
    33    41    44    1
    34    44    45    1
    35    45    46    1
    36    46    47    1
    37    47    48    1
    38    48    49    1
    39    49    50    1
    40    50    51    1
    41    41    42   ar
    42    42    43   ar
    43     4     5   ar
    44     5     6   ar
    45    13    14   ar
    46    14    15   ar
    47    21    22    1
    48    22    23    1
    49    23    18    1
    50    15     7   ar
    51    15    10   ar
    52    31    26    1
    53     6     1   ar
    54    43    38   ar
    55    51    46    1
    56    32    36    1
    57    35    37    1
@<TRIPOS>MOLECULE
*****
 51 57 0 0 0
SMALL
GASTEIGER

@<TRIPOS>ATOM
      1 C         -61.5364  -47.2901  -25.4568 C.ar    1  UNL1        0.0360
      2 C         -60.7096  -47.7720  -24.4254 C.ar    1  UNL1        0.0043
      3 C         -60.9795  -48.9984  -23.8114 C.ar    1  UNL1        0.0148
      4 C         -62.0901  -49.7628  -24.2065 C.ar    1  UNL1        0.0516
      5 C         -62.9007  -49.2969  -25.2502 C.ar    1  UNL1        0.0148
      6 C         -62.6335  -48.0705  -25.8649 C.ar    1  UNL1        0.0043
      7 N         -60.7787  -42.4616  -25.4303 N.ar    1  UNL1       -0.2357
      8 N         -60.4204  -41.6083  -26.3868 N.ar    1  UNL1       -0.1663
      9 C         -60.3783  -42.2796  -27.5656 C.ar    1  UNL1        0.1260
     10 C         -60.7096  -43.5984  -27.3242 C.ar    1  UNL1        0.0880
     11 C         -60.7619  -44.7497  -28.1036 C.ar    1  UNL1        0.1380
     12 N         -61.0282  -45.9283  -27.4636 N.ar    1  UNL1       -0.2117
     13 C         -61.2510  -45.9882  -26.1084 C.ar    1  UNL1        0.1653
     14 N         -61.1984  -44.8417  -25.3606 N.ar    1  UNL1       -0.2079
     15 C         -60.9358  -43.6718  -25.9902 C.ar    1  UNL1        0.1652
     16 C         -61.6396  -42.1027  -19.8703 C.2     1  UNL1        0.4050
     17 O         -60.6513  -41.9494  -19.0996 O.2     1  UNL1       -0.2262
     18 N         -61.4273  -42.4694  -21.2470 N.am    1  UNL1       -0.2459
     19 C         -60.0652  -42.7952  -21.6998 C.3     1  UNL1        0.0987
     20 C         -60.0347  -43.1705  -23.1857 C.3     1  UNL1        0.0461
     21 C         -60.8318  -42.1404  -24.0009 C.3     1  UNL1        0.1102
     22 C         -62.3037  -42.0280  -23.5305 C.3     1  UNL1        0.0461
     23 C         -62.5691  -42.6630  -22.1541 C.3     1  UNL1        0.0987
     24 C         -63.3702  -40.6974  -18.7923 C.3     1  UNL1        0.2573
     25 O         -62.9383  -41.9171  -19.3833 O.3     1  UNL1       -0.4304
     26 N         -60.5112  -44.7266  -29.5172 N.pl3   1  UNL1       -0.2879
     27 C         -61.6042  -44.4251  -30.4455 C.3     1  UNL1        0.1242
     28 C         -61.0256  -43.8878  -31.7574 C.3     1  UNL1        0.1636
     29 O         -60.0525  -44.7754  -32.2765 O.3     1  UNL1       -0.3501
     30 C         -58.9461  -44.8446  -31.3958 C.3     1  UNL1        0.1636
     31 C         -59.3560  -45.4513  -30.0496 C.3     1  UNL1        0.1242
     32 N         -62.3754  -51.0386  -23.6074 N.am    1  UNL1       -0.2681
     33 C         -63.6065  -51.7559  -23.7843 C.2     1  UNL1        0.3082
     34 O         -64.4411  -51.3830  -24.6532 O.2     1  UNL1       -0.2522
     35 N         -63.8787  -52.9014  -22.9627 N.am    1  UNL1       -0.2681
     36 H         -61.6083  -51.5191  -23.0850 H       1  UNL1        0.1564
     37 H         -63.3076  -53.0196  -22.0954 H       1  UNL1        0.1564
     38 C         -64.9655  -53.8160  -23.1866 C.ar    1  UNL1        0.0516
     39 C         -65.2981  -54.7454  -22.1903 C.ar    1  UNL1        0.0144
     40 C         -66.3382  -55.6571  -22.3894 C.ar    1  UNL1       -0.0029
     41 C         -67.0479  -55.6686  -23.6001 C.ar    1  UNL1       -0.0207
     42 C         -66.7085  -54.7494  -24.6042 C.ar    1  UNL1       -0.0029
     43 C         -65.6683  -53.8371  -24.4045 C.ar    1  UNL1        0.0144
     44 C         -68.2000  -56.6193  -23.7986 C.3     1  UNL1        0.0437
     45 C         -68.6596  -56.6418  -25.2629 C.3     1  UNL1        0.0769
     46 N         -70.0823  -56.2551  -25.3841 N.3     1  UNL1       -0.2681
     47 C         -70.7889  -56.4535  -24.1026 C.3     1  UNL1        0.1046
     48 C         -72.1924  -55.8163  -24.1386 C.3     1  UNL1        0.1595
     49 O         -72.5760  -55.5187  -25.4658 O.3     1  UNL1       -0.3508
     50 C         -71.7279  -54.5148  -25.9966 C.3     1  UNL1        0.1595
     51 C         -70.2319  -54.8561  -25.8264 C.3     1  UNL1        0.1046
@<TRIPOS>BOND
     1    24    25    1
     2    25    16    1
     3    16    17    2
     4    16    18   am
     5    18    19    1
     6    19    20    1
     7    20    21    1
     8    21     7    1
     9     7     8   ar
    10     8     9   ar
    11     9    10   ar
    12    10    11   ar
    13    11    26    1
    14    26    27    1
    15    27    28    1
    16    28    29    1
    17    29    30    1
    18    30    31    1
    19    11    12   ar
    20    12    13   ar
    21    13     1    1
    22     1     2   ar
    23     2     3   ar
    24     3     4   ar
    25     4    32    1
    26    32    33   am
    27    33    34    2
    28    33    35   am
    29    35    38    1
    30    38    39   ar
    31    39    40   ar
    32    40    41   ar
    33    41    44    1
    34    44    45    1
    35    45    46    1
    36    46    47    1
    37    47    48    1
    38    48    49    1
    39    49    50    1
    40    50    51    1
    41    41    42   ar
    42    42    43   ar
    43     4     5   ar
    44     5     6   ar
    45    13    14   ar
    46    14    15   ar
    47    21    22    1
    48    22    23    1
    49    23    18    1
    50    15     7   ar
    51    15    10   ar
    52    31    26    1
    53     6     1   ar
    54    43    38   ar
    55    51    46    1
    56    32    36    1
    57    35    37    1
@<TRIPOS>MOLECULE
*****
 51 57 0 0 0
SMALL
GASTEIGER

@<TRIPOS>ATOM
      1 C         -62.9925  -47.2844  -25.6606 C.ar    1  UNL1        0.0360
      2 C         -62.0108  -47.6011  -24.7037 C.ar    1  UNL1        0.0043
      3 C         -61.9810  -48.8643  -24.1060 C.ar    1  UNL1        0.0148
      4 C         -62.9408  -49.8335  -24.4425 C.ar    1  UNL1        0.0516
      5 C         -63.9045  -49.5292  -25.4132 C.ar    1  UNL1        0.0148
      6 C         -63.9369  -48.2664  -26.0115 C.ar    1  UNL1        0.0043
      7 N         -62.4899  -42.4228  -25.6342 N.ar    1  UNL1       -0.2357
      8 N         -62.5481  -41.5133  -26.6042 N.ar    1  UNL1       -0.1663
      9 C         -62.9154  -42.1357  -27.7530 C.ar    1  UNL1        0.1260
     10 C         -63.0762  -43.4807  -27.4838 C.ar    1  UNL1        0.0880
     11 C         -63.3627  -44.6027  -28.2549 C.ar    1  UNL1        0.1380
     12 N         -63.3219  -45.8189  -27.6313 N.ar    1  UNL1       -0.2117
     13 C         -63.0252  -45.9437  -26.2948 C.ar    1  UNL1        0.1653
     14 N         -62.7499  -44.8252  -25.5534 N.ar    1  UNL1       -0.2079
     15 C         -62.7899  -43.6184  -26.1664 C.ar    1  UNL1        0.1652
     16 C         -61.3734  -42.2342  -20.1113 C.2     1  UNL1        0.4050
     17 O         -60.1725  -42.1935  -19.7237 O.2     1  UNL1       -0.2262
     18 N         -61.6757  -42.5576  -21.4821 N.am    1  UNL1       -0.2459
     19 C         -60.5837  -42.9715  -22.3781 C.3     1  UNL1        0.0987
     20 C         -61.0940  -43.2841  -23.7893 C.3     1  UNL1        0.0461
     21 C         -62.0249  -42.1598  -24.2690 C.3     1  UNL1        0.1102
     22 C         -63.2328  -41.9503  -23.3217 C.3     1  UNL1        0.0461
     23 C         -63.0703  -42.6203  -21.9458 C.3     1  UNL1        0.0987
     24 C         -62.9406  -40.6619  -19.0141 C.3     1  UNL1        0.2573
     25 O         -62.4071  -41.9664  -19.2067 O.3     1  UNL1       -0.4304
     26 N         -63.6535  -44.5107  -29.6579 N.pl3   1  UNL1       -0.2879
     27 C         -64.8260  -45.1986  -30.2050 C.3     1  UNL1        0.1242
     28 C         -65.2589  -44.5140  -31.5043 C.3     1  UNL1        0.1636
     29 O         -64.1716  -44.4162  -32.4056 O.3     1  UNL1       -0.3501
     30 C         -63.1745  -43.5682  -31.8658 C.3     1  UNL1        0.1636
     31 C         -62.5768  -44.1703  -30.5897 C.3     1  UNL1        0.1242
     32 N         -62.9173  -51.1480  -23.8599 N.am    1  UNL1       -0.2681
     33 C         -64.0725  -51.9887  -23.7182 C.2     1  UNL1        0.3082
     34 O         -65.1546  -51.6849  -24.2902 O.2     1  UNL1       -0.2522
     35 N         -63.9844  -53.1783  -22.9192 N.am    1  UNL1       -0.2681
     36 H         -61.9895  -51.5568  -23.6062 H       1  UNL1        0.1564
     37 H         -63.1779  -53.2573  -22.2591 H       1  UNL1        0.1564
     38 C         -64.9970  -54.1982  -22.8748 C.ar    1  UNL1        0.0516
     39 C         -66.1164  -54.0925  -23.7131 C.ar    1  UNL1        0.0144
     40 C         -67.1236  -55.0605  -23.6772 C.ar    1  UNL1       -0.0029
     41 C         -67.0376  -56.1391  -22.7833 C.ar    1  UNL1       -0.0207
     42 C         -65.9259  -56.2403  -21.9335 C.ar    1  UNL1       -0.0029
     43 C         -64.9182  -55.2721  -21.9701 C.ar    1  UNL1        0.0144
     44 C         -68.0992  -57.2085  -22.7760 C.3     1  UNL1        0.0437
     45 C         -69.4016  -56.6982  -22.1440 C.3     1  UNL1        0.0769
     46 N         -69.1287  -55.7091  -21.0784 N.3     1  UNL1       -0.2681
     47 C         -70.1209  -54.6159  -21.1135 C.3     1  UNL1        0.1046
     48 C         -70.0086  -53.7245  -19.8604 C.3     1  UNL1        0.1595
     49 O         -68.7903  -53.9591  -19.1836 O.3     1  UNL1       -0.3508
     50 C         -68.7735  -55.2799  -18.6698 C.3     1  UNL1        0.1595
     51 C         -69.1205  -56.3344  -19.7426 C.3     1  UNL1        0.1046
@<TRIPOS>BOND
     1    24    25    1
     2    25    16    1
     3    16    17    2
     4    16    18   am
     5    18    19    1
     6    19    20    1
     7    20    21    1
     8    21     7    1
     9     7     8   ar
    10     8     9   ar
    11     9    10   ar
    12    10    11   ar
    13    11    26    1
    14    26    27    1
    15    27    28    1
    16    28    29    1
    17    29    30    1
    18    30    31    1
    19    11    12   ar
    20    12    13   ar
    21    13     1    1
    22     1     2   ar
    23     2     3   ar
    24     3     4   ar
    25     4    32    1
    26    32    33   am
    27    33    34    2
    28    33    35   am
    29    35    38    1
    30    38    39   ar
    31    39    40   ar
    32    40    41   ar
    33    41    44    1
    34    44    45    1
    35    45    46    1
    36    46    47    1
    37    47    48    1
    38    48    49    1
    39    49    50    1
    40    50    51    1
    41    41    42   ar
    42    42    43   ar
    43     4     5   ar
    44     5     6   ar
    45    13    14   ar
    46    14    15   ar
    47    21    22    1
    48    22    23    1
    49    23    18    1
    50    15     7   ar
    51    15    10   ar
    52    31    26    1
    53     6     1   ar
    54    43    38   ar
    55    51    46    1
    56    32    36    1
    57    35    37    1
@<TRIPOS>MOLECULE
*****
 51 57 0 0 0
SMALL
GASTEIGER

@<TRIPOS>ATOM
      1 C         -69.4972  -54.9219  -24.1012 C.ar    1  UNL1        0.0360
      2 C         -68.4191  -55.3576  -24.8934 C.ar    1  UNL1        0.0043
      3 C         -67.1010  -55.1151  -24.4967 C.ar    1  UNL1        0.0148
      4 C         -66.8329  -54.4195  -23.3058 C.ar    1  UNL1        0.0516
      5 C         -67.9042  -54.0063  -22.5027 C.ar    1  UNL1        0.0148
      6 C         -69.2231  -54.2467  -22.8978 C.ar    1  UNL1        0.0043
      7 N         -74.1289  -56.2589  -23.2958 N.ar    1  UNL1       -0.2357
      8 N         -75.2100  -56.2472  -24.0719 N.ar    1  UNL1       -0.1663
      9 C         -74.8357  -55.8731  -25.3217 C.ar    1  UNL1        0.1260
     10 C         -73.4758  -55.6321  -25.3118 C.ar    1  UNL1        0.0880
     11 C         -72.5616  -55.1611  -26.2488 C.ar    1  UNL1        0.1380
     12 N         -71.2826  -54.9385  -25.8194 N.ar    1  UNL1       -0.2117
     13 C         -70.8966  -55.1783  -24.5220 C.ar    1  UNL1        0.1653
     14 N         -71.8123  -55.6456  -23.6168 N.ar    1  UNL1       -0.2079
     15 C         -73.0801  -55.8684  -24.0375 C.ar    1  UNL1        0.1652
     16 C         -73.8594  -56.1682  -17.6652 C.2     1  UNL1        0.4050
     17 O         -74.8227  -56.6298  -16.9919 O.2     1  UNL1       -0.2262
     18 N         -74.0185  -55.9292  -19.0768 N.am    1  UNL1       -0.2459
     19 C         -75.3475  -56.0974  -19.6866 C.3     1  UNL1        0.0987
     20 C         -75.3266  -55.7911  -21.1884 C.3     1  UNL1        0.0461
     21 C         -74.1401  -56.5080  -21.8511 C.3     1  UNL1        0.1102
     22 C         -72.7821  -56.1014  -21.2259 C.3     1  UNL1        0.0461
     23 C         -72.9092  -55.3807  -19.8722 C.3     1  UNL1        0.0987
     24 C         -72.5032  -54.8842  -16.0391 C.3     1  UNL1        0.2573
     25 O         -72.6407  -55.8889  -17.0367 O.3     1  UNL1       -0.4304
     26 N         -72.9363  -54.8779  -27.6056 N.pl3   1  UNL1       -0.2879
     27 C         -72.4604  -55.7433  -28.6880 C.3     1  UNL1        0.1242
     28 C         -73.4078  -55.6302  -29.8855 C.3     1  UNL1        0.1636
     29 O         -73.5821  -54.2762  -30.2603 O.3     1  UNL1       -0.3501
     30 C         -74.2305  -53.5688  -29.2192 C.3     1  UNL1        0.1636
     31 C         -73.3548  -53.5212  -27.9626 C.3     1  UNL1        0.1242
     32 N         -65.4859  -54.1785  -22.8635 N.am    1  UNL1       -0.2681
     33 C         -64.6944  -53.0501  -23.2652 C.2     1  UNL1        0.3082
     34 O         -65.2249  -52.0895  -23.8868 O.2     1  UNL1       -0.2522
     35 N         -63.2932  -53.0254  -22.9530 N.am    1  UNL1       -0.2681
     36 H         -65.0872  -54.8118  -22.1339 H       1  UNL1        0.1564
     37 H         -62.8428  -53.9296  -22.6846 H       1  UNL1        0.1564
     38 C         -62.4504  -51.8714  -23.1126 C.ar    1  UNL1        0.0516
     39 C         -61.1967  -51.8436  -22.4846 C.ar    1  UNL1        0.0144
     40 C         -60.3655  -50.7272  -22.6088 C.ar    1  UNL1       -0.0029
     41 C         -60.7866  -49.6092  -23.3454 C.ar    1  UNL1       -0.0207
     42 C         -62.0460  -49.6282  -23.9633 C.ar    1  UNL1       -0.0029
     43 C         -62.8770  -50.7455  -23.8394 C.ar    1  UNL1        0.0144
     44 C         -59.8729  -48.4237  -23.5194 C.3     1  UNL1        0.0437
     45 C         -60.6474  -47.1869  -23.9954 C.3     1  UNL1        0.0769
     46 N         -60.6800  -46.1400  -22.9508 N.3     1  UNL1       -0.2681
     47 C         -59.6055  -45.1507  -23.1685 C.3     1  UNL1        0.1046
     48 C         -59.7864  -43.9244  -22.2515 C.3     1  UNL1        0.1595
     49 O         -60.7058  -44.2026  -21.2150 O.3     1  UNL1       -0.3508
     50 C         -61.9955  -44.4169  -21.7624 C.3     1  UNL1        0.1595
     51 C         -61.9865  -45.4571  -22.9031 C.3     1  UNL1        0.1046
@<TRIPOS>BOND
     1    24    25    1
     2    25    16    1
     3    16    17    2
     4    16    18   am
     5    18    19    1
     6    19    20    1
     7    20    21    1
     8    21     7    1
     9     7     8   ar
    10     8     9   ar
    11     9    10   ar
    12    10    11   ar
    13    11    26    1
    14    26    27    1
    15    27    28    1
    16    28    29    1
    17    29    30    1
    18    30    31    1
    19    11    12   ar
    20    12    13   ar
    21    13     1    1
    22     1     2   ar
    23     2     3   ar
    24     3     4   ar
    25     4    32    1
    26    32    33   am
    27    33    34    2
    28    33    35   am
    29    35    38    1
    30    38    39   ar
    31    39    40   ar
    32    40    41   ar
    33    41    44    1
    34    44    45    1
    35    45    46    1
    36    46    47    1
    37    47    48    1
    38    48    49    1
    39    49    50    1
    40    50    51    1
    41    41    42   ar
    42    42    43   ar
    43     4     5   ar
    44     5     6   ar
    45    13    14   ar
    46    14    15   ar
    47    21    22    1
    48    22    23    1
    49    23    18    1
    50    15     7   ar
    51    15    10   ar
    52    31    26    1
    53     6     1   ar
    54    43    38   ar
    55    51    46    1
    56    32    36    1
    57    35    37    1
@<TRIPOS>MOLECULE
*****
 51 57 0 0 0
SMALL
GASTEIGER

@<TRIPOS>ATOM
      1 C         -62.8394  -48.0035  -24.4711 C.ar    1  UNL1        0.0360
      2 C         -64.0417  -48.5313  -24.9768 C.ar    1  UNL1        0.0043
      3 C         -64.3142  -49.8989  -24.8813 C.ar    1  UNL1        0.0148
      4 C         -63.3841  -50.7702  -24.2901 C.ar    1  UNL1        0.0516
      5 C         -62.1971  -50.2437  -23.7635 C.ar    1  UNL1        0.0148
      6 C         -61.9218  -48.8767  -23.8588 C.ar    1  UNL1        0.0043
      7 N         -62.4570  -43.7821  -26.9048 N.ar    1  UNL1       -0.2357
      8 N         -62.2109  -42.5378  -26.5019 N.ar    1  UNL1       -0.1663
      9 C         -61.9326  -42.5650  -25.1738 C.ar    1  UNL1        0.1260
     10 C         -62.0241  -43.8729  -24.7396 C.ar    1  UNL1        0.0880
     11 C         -61.9251  -44.4989  -23.5010 C.ar    1  UNL1        0.1380
     12 N         -62.2007  -45.8373  -23.4515 N.ar    1  UNL1       -0.2117
     13 C         -62.5491  -46.5522  -24.5729 C.ar    1  UNL1        0.1653
     14 N         -62.6369  -45.9164  -25.7830 N.ar    1  UNL1       -0.2079
     15 C         -62.3642  -44.5910  -25.8372 C.ar    1  UNL1        0.1652
     16 C         -65.0966  -45.4961  -31.5823 C.2     1  UNL1        0.4050
     17 O         -65.0929  -44.7526  -32.6028 O.2     1  UNL1       -0.2262
     18 N         -64.6750  -44.9710  -30.3089 N.am    1  UNL1       -0.2459
     19 C         -64.3770  -43.5345  -30.1895 C.3     1  UNL1        0.0987
     20 C         -63.9556  -43.1580  -28.7647 C.3     1  UNL1        0.0461
     21 C         -62.9017  -44.1517  -28.2520 C.3     1  UNL1        0.1102
     22 C         -63.4144  -45.6137  -28.2656 C.3     1  UNL1        0.0461
     23 C         -64.6848  -45.8215  -29.1088 C.3     1  UNL1        0.0987
     24 C         -65.9254  -47.4047  -32.9249 C.3     1  UNL1        0.2573
     25 O         -65.5120  -46.8279  -31.6920 O.3     1  UNL1       -0.4304
     26 N         -61.5867  -43.7782  -22.3063 N.pl3   1  UNL1       -0.2879
     27 C         -60.1792  -43.5670  -21.9575 C.3     1  UNL1        0.1242
     28 C         -60.0575  -42.3420  -21.0471 C.3     1  UNL1        0.1636
     29 O         -60.9198  -42.4599  -19.9305 O.3     1  UNL1       -0.3501
     30 C         -62.2684  -42.4562  -20.3619 C.3     1  UNL1        0.1636
     31 C         -62.5695  -43.6861  -21.2251 C.3     1  UNL1        0.1242
     32 N         -63.6512  -52.1771  -24.1580 N.am    1  UNL1       -0.2681
     33 C         -64.9184  -52.7242  -23.7628 C.2     1  UNL1        0.3082
     34 O         -65.9389  -51.9857  -23.7006 O.2     1  UNL1       -0.2522
     35 N         -65.0131  -54.1197  -23.4390 N.am    1  UNL1       -0.2681
     36 H         -62.9076  -52.8488  -24.4549 H       1  UNL1        0.1564
     37 H         -64.1227  -54.6312  -23.2445 H       1  UNL1        0.1564
     38 C         -66.2529  -54.8199  -23.2381 C.ar    1  UNL1        0.0516
     39 C         -66.5843  -55.2764  -21.9540 C.ar    1  UNL1        0.0144
     40 C         -67.7745  -55.9750  -21.7347 C.ar    1  UNL1       -0.0029
     41 C         -68.6422  -56.2488  -22.8033 C.ar    1  UNL1       -0.0207
     42 C         -68.3068  -55.8057  -24.0915 C.ar    1  UNL1       -0.0029
     43 C         -67.1164  -55.1063  -24.3104 C.ar    1  UNL1        0.0144
     44 C         -69.9479  -56.9608  -22.5608 C.3     1  UNL1        0.0437
     45 C         -71.1192  -56.2191  -23.2198 C.3     1  UNL1        0.0769
     46 N         -72.0884  -55.7424  -22.2091 N.3     1  UNL1       -0.2681
     47 C         -73.3969  -56.4035  -22.3872 C.3     1  UNL1        0.1046
     48 C         -74.3304  -56.1162  -21.1941 C.3     1  UNL1        0.1595
     49 O         -73.8423  -55.0383  -20.4215 O.3     1  UNL1       -0.3508
     50 C         -72.6120  -55.3994  -19.8174 C.3     1  UNL1        0.1595
     51 C         -71.5986  -55.9646  -20.8358 C.3     1  UNL1        0.1046
@<TRIPOS>BOND
     1    24    25    1
     2    25    16    1
     3    16    17    2
     4    16    18   am
     5    18    19    1
     6    19    20    1
     7    20    21    1
     8    21     7    1
     9     7     8   ar
    10     8     9   ar
    11     9    10   ar
    12    10    11   ar
    13    11    26    1
    14    26    27    1
    15    27    28    1
    16    28    29    1
    17    29    30    1
    18    30    31    1
    19    11    12   ar
    20    12    13   ar
    21    13     1    1
    22     1     2   ar
    23     2     3   ar
    24     3     4   ar
    25     4    32    1
    26    32    33   am
    27    33    34    2
    28    33    35   am
    29    35    38    1
    30    38    39   ar
    31    39    40   ar
    32    40    41   ar
    33    41    44    1
    34    44    45    1
    35    45    46    1
    36    46    47    1
    37    47    48    1
    38    48    49    1
    39    49    50    1
    40    50    51    1
    41    41    42   ar
    42    42    43   ar
    43     4     5   ar
    44     5     6   ar
    45    13    14   ar
    46    14    15   ar
    47    21    22    1
    48    22    23    1
    49    23    18    1
    50    15     7   ar
    51    15    10   ar
    52    31    26    1
    53     6     1   ar
    54    43    38   ar
    55    51    46    1
    56    32    36    1
    57    35    37    1
@<TRIPOS>MOLECULE
*****
 51 57 0 0 0
SMALL
GASTEIGER

@<TRIPOS>ATOM
      1 C         -69.1886  -55.5112  -22.7573 C.ar    1  UNL1        0.0360
      2 C         -68.6206  -55.4500  -21.4714 C.ar    1  UNL1        0.0043
      3 C         -67.2504  -55.2271  -21.3086 C.ar    1  UNL1        0.0148
      4 C         -66.4164  -55.0742  -22.4289 C.ar    1  UNL1        0.0516
      5 C         -66.9833  -55.1099  -23.7098 C.ar    1  UNL1        0.0148
      6 C         -68.3530  -55.3338  -23.8751 C.ar    1  UNL1        0.0043
      7 N         -73.7243  -56.2599  -21.0973 N.ar    1  UNL1       -0.2357
      8 N         -74.8995  -56.3445  -21.7161 N.ar    1  UNL1       -0.1663
      9 C         -74.6823  -56.3010  -23.0552 C.ar    1  UNL1        0.1260
     10 C         -73.3241  -56.1710  -23.2688 C.ar    1  UNL1        0.0880
     11 C         -72.5253  -56.0031  -24.3955 C.ar    1  UNL1        0.1380
     12 N         -71.1906  -55.7871  -24.1910 N.ar    1  UNL1       -0.2117
     13 C         -70.6427  -55.7486  -22.9308 C.ar    1  UNL1        0.1653
     14 N         -71.4472  -55.9202  -21.8355 N.ar    1  UNL1       -0.2079
     15 C         -72.7695  -56.1351  -22.0329 C.ar    1  UNL1        0.1652
     16 C         -73.3741  -54.8559  -15.6483 C.2     1  UNL1        0.4050
     17 O         -73.8963  -55.6094  -14.7802 O.2     1  UNL1       -0.2262
     18 N         -73.6835  -55.0435  -17.0427 N.am    1  UNL1       -0.2459
     19 C         -74.7129  -56.0246  -17.4224 C.3     1  UNL1        0.0987
     20 C         -74.9130  -56.0794  -18.9411 C.3     1  UNL1        0.0461
     21 C         -73.5497  -56.1651  -19.6447 C.3     1  UNL1        0.1102
     22 C         -72.6283  -54.9707  -19.2918 C.3     1  UNL1        0.0461
     23 C         -73.0920  -54.1662  -18.0647 C.3     1  UNL1        0.0987
     24 C         -72.9201  -52.7126  -14.4941 C.3     1  UNL1        0.2573
     25 O         -72.4974  -53.8396  -15.2522 O.3     1  UNL1       -0.4304
     26 N         -73.0681  -56.0143  -25.7247 N.pl3   1  UNL1       -0.2879
     27 C         -72.8336  -57.1680  -26.5971 C.3     1  UNL1        0.1242
     28 C         -73.9324  -57.2344  -27.6614 C.3     1  UNL1        0.1636
     29 O         -74.0400  -56.0010  -28.3480 O.3     1  UNL1       -0.3501
     30 C         -74.4644  -54.9885  -27.4540 C.3     1  UNL1        0.1636
     31 C         -73.4135  -54.7443  -26.3659 C.3     1  UNL1        0.1242
     32 N         -65.0080  -54.8199  -22.2878 N.am    1  UNL1       -0.2681
     33 C         -64.3559  -53.6209  -22.7334 C.2     1  UNL1        0.3082
     34 O         -65.0369  -52.6257  -23.1028 O.2     1  UNL1       -0.2522
     35 N         -62.9214  -53.5655  -22.7548 N.am    1  UNL1       -0.2681
     36 H         -64.4361  -55.5072  -21.7466 H       1  UNL1        0.1564
     37 H         -62.4029  -54.4713  -22.7016 H       1  UNL1        0.1564
     38 C         -62.1628  -52.3640  -22.9755 C.ar    1  UNL1        0.0516
     39 C         -60.8305  -52.3029  -22.5418 C.ar    1  UNL1        0.0144
     40 C         -60.0764  -51.1413  -22.7279 C.ar    1  UNL1       -0.0029
     41 C         -60.6520  -50.0123  -23.3310 C.ar    1  UNL1       -0.0207
     42 C         -61.9888  -50.0655  -23.7534 C.ar    1  UNL1       -0.0029
     43 C         -62.7428  -51.2279  -23.5676 C.ar    1  UNL1        0.0144
     44 C         -59.8270  -48.7752  -23.5748 C.3     1  UNL1        0.0437
     45 C         -60.7092  -47.5870  -23.9828 C.3     1  UNL1        0.0769
     46 N         -60.6123  -46.4853  -23.0004 N.3     1  UNL1       -0.2681
     47 C         -59.4223  -45.6519  -23.2653 C.3     1  UNL1        0.1046
     48 C         -59.4500  -44.3615  -22.4220 C.3     1  UNL1        0.1595
     49 O         -60.3985  -44.4621  -21.3793 O.3     1  UNL1       -0.3508
     50 C         -61.7040  -44.5455  -21.9247 C.3     1  UNL1        0.1595
     51 C         -61.8233  -45.6433  -23.0036 C.3     1  UNL1        0.1046
@<TRIPOS>BOND
     1    24    25    1
     2    25    16    1
     3    16    17    2
     4    16    18   am
     5    18    19    1
     6    19    20    1
     7    20    21    1
     8    21     7    1
     9     7     8   ar
    10     8     9   ar
    11     9    10   ar
    12    10    11   ar
    13    11    26    1
    14    26    27    1
    15    27    28    1
    16    28    29    1
    17    29    30    1
    18    30    31    1
    19    11    12   ar
    20    12    13   ar
    21    13     1    1
    22     1     2   ar
    23     2     3   ar
    24     3     4   ar
    25     4    32    1
    26    32    33   am
    27    33    34    2
    28    33    35   am
    29    35    38    1
    30    38    39   ar
    31    39    40   ar
    32    40    41   ar
    33    41    44    1
    34    44    45    1
    35    45    46    1
    36    46    47    1
    37    47    48    1
    38    48    49    1
    39    49    50    1
    40    50    51    1
    41    41    42   ar
    42    42    43   ar
    43     4     5   ar
    44     5     6   ar
    45    13    14   ar
    46    14    15   ar
    47    21    22    1
    48    22    23    1
    49    23    18    1
    50    15     7   ar
    51    15    10   ar
    52    31    26    1
    53     6     1   ar
    54    43    38   ar
    55    51    46    1
    56    32    36    1
    57    35    37    1
@<TRIPOS>MOLECULE
*****
 51 57 0 0 0
SMALL
GASTEIGER

@<TRIPOS>ATOM
      1 C         -62.3576  -47.5597  -24.2763 C.ar    1  UNL1        0.0360
      2 C         -63.5131  -48.0176  -24.9359 C.ar    1  UNL1        0.0043
      3 C         -63.8426  -49.3760  -24.9335 C.ar    1  UNL1        0.0148
      4 C         -63.0162  -50.3075  -24.2829 C.ar    1  UNL1        0.0516
      5 C         -61.8784  -49.8511  -23.6043 C.ar    1  UNL1        0.0148
      6 C         -61.5463  -48.4935  -23.6061 C.ar    1  UNL1        0.0043
      7 N         -61.1160  -43.3671  -26.4601 N.ar    1  UNL1       -0.2357
      8 N         -60.9693  -42.1280  -25.9972 N.ar    1  UNL1       -0.1663
      9 C         -61.1160  -42.1548  -24.6481 C.ar    1  UNL1        0.1260
     10 C         -61.3763  -43.4566  -24.2674 C.ar    1  UNL1        0.0880
     11 C         -61.6836  -44.0773  -23.0607 C.ar    1  UNL1        0.1380
     12 N         -62.0008  -45.4067  -23.1028 N.ar    1  UNL1       -0.2117
     13 C         -62.0069  -46.1183  -24.2790 C.ar    1  UNL1        0.1653
     14 N         -61.6974  -45.4879  -25.4551 N.ar    1  UNL1       -0.2079
     15 C         -61.3818  -44.1715  -25.4185 C.ar    1  UNL1        0.1652
     16 C         -60.8258  -43.7462  -32.0776 C.2     1  UNL1        0.4050
     17 O         -60.2549  -44.7428  -32.6020 O.2     1  UNL1       -0.2262
     18 N         -60.6731  -43.4897  -30.6684 N.am    1  UNL1       -0.2459
     19 C         -59.7398  -44.3169  -29.8866 C.3     1  UNL1        0.0987
     20 C         -59.7019  -43.8935  -28.4139 C.3     1  UNL1        0.0461
     21 C         -61.1335  -43.7321  -27.8799 C.3     1  UNL1        0.1102
     22 C         -61.9515  -42.6957  -28.6904 C.3     1  UNL1        0.0461
     23 C         -61.3224  -42.3260  -30.0453 C.3     1  UNL1        0.0987
     24 C         -62.8540  -43.2861  -33.4218 C.3     1  UNL1        0.2573
     25 O         -61.6039  -42.8931  -32.8683 O.3     1  UNL1       -0.4304
     26 N         -61.7095  -43.3592  -21.8177 N.pl3   1  UNL1       -0.2879
     27 C         -60.4525  -42.9328  -21.1969 C.3     1  UNL1        0.1242
     28 C         -60.7186  -41.7420  -20.2720 C.3     1  UNL1        0.1636
     29 O         -61.7475  -42.0453  -19.3481 O.3     1  UNL1       -0.3501
     30 C         -62.9680  -42.2470  -20.0368 C.3     1  UNL1        0.1636
     31 C         -62.8837  -43.4740  -20.9509 C.3     1  UNL1        0.1242
     32 N         -63.3458  -51.7068  -24.2454 N.am    1  UNL1       -0.2681
     33 C         -64.6781  -52.2180  -24.0871 C.2     1  UNL1        0.3082
     34 O         -65.6707  -51.4447  -24.1717 O.2     1  UNL1       -0.2522
     35 N         -64.8698  -53.6177  -23.8314 N.am    1  UNL1       -0.2681
     36 H         -62.5842  -52.3966  -24.4362 H       1  UNL1        0.1564
     37 H         -64.0414  -54.1669  -23.5079 H       1  UNL1        0.1564
     38 C         -66.1470  -54.2774  -23.8651 C.ar    1  UNL1        0.0516
     39 C         -66.8759  -54.4252  -22.6760 C.ar    1  UNL1        0.0144
     40 C         -68.1115  -55.0779  -22.6778 C.ar    1  UNL1       -0.0029
     41 C         -68.6272  -55.6147  -23.8676 C.ar    1  UNL1       -0.0207
     42 C         -67.8940  -55.4807  -25.0562 C.ar    1  UNL1       -0.0029
     43 C         -66.6583  -54.8272  -25.0542 C.ar    1  UNL1        0.0144
     44 C         -69.9804  -56.2774  -23.8804 C.3     1  UNL1        0.0437
     45 C         -70.5443  -56.3683  -25.3052 C.3     1  UNL1        0.0769
     46 N         -71.4749  -55.2532  -25.5856 N.3     1  UNL1       -0.2681
     47 C         -70.9607  -54.4059  -26.6804 C.3     1  UNL1        0.1046
     48 C         -72.0315  -53.4036  -27.1558 C.3     1  UNL1        0.1595
     49 O         -73.0849  -53.3103  -26.2184 O.3     1  UNL1       -0.3508
     50 C         -73.7759  -54.5458  -26.1486 C.3     1  UNL1        0.1595
     51 C         -72.8253  -55.7411  -25.9229 C.3     1  UNL1        0.1046
@<TRIPOS>BOND
     1    24    25    1
     2    25    16    1
     3    16    17    2
     4    16    18   am
     5    18    19    1
     6    19    20    1
     7    20    21    1
     8    21     7    1
     9     7     8   ar
    10     8     9   ar
    11     9    10   ar
    12    10    11   ar
    13    11    26    1
    14    26    27    1
    15    27    28    1
    16    28    29    1
    17    29    30    1
    18    30    31    1
    19    11    12   ar
    20    12    13   ar
    21    13     1    1
    22     1     2   ar
    23     2     3   ar
    24     3     4   ar
    25     4    32    1
    26    32    33   am
    27    33    34    2
    28    33    35   am
    29    35    38    1
    30    38    39   ar
    31    39    40   ar
    32    40    41   ar
    33    41    44    1
    34    44    45    1
    35    45    46    1
    36    46    47    1
    37    47    48    1
    38    48    49    1
    39    49    50    1
    40    50    51    1
    41    41    42   ar
    42    42    43   ar
    43     4     5   ar
    44     5     6   ar
    45    13    14   ar
    46    14    15   ar
    47    21    22    1
    48    22    23    1
    49    23    18    1
    50    15     7   ar
    51    15    10   ar
    52    31    26    1
    53     6     1   ar
    54    43    38   ar
    55    51    46    1
    56    32    36    1
    57    35    37    1
