@<TRIPOS>MOLECULE
*****
 54 60 0 0 0
SMALL
GASTEIGER

@<TRIPOS>ATOM
      1 C          60.6574   86.6600   10.5562 C.ar    1  UNL1        0.0481
      2 C          61.8287   86.6630   11.3308 C.ar    1  UNL1        0.0176
      3 C          61.8524   86.0328   12.5779 C.ar    1  UNL1        0.0382
      4 C          60.7124   85.3908   13.0743 C.ar    1  UNL1        0.1388
      5 C          59.5400   85.3777   12.2943 C.ar    1  UNL1        0.0382
      6 C          59.5155   86.0091   11.0474 C.ar    1  UNL1        0.0176
      7 N          60.2025   88.9089    7.0409 N.pl3   1  UNL1       -0.3041
      8 C          61.0298   89.4399    8.1309 C.3     1  UNL1        0.1122
      9 C          61.6559   88.2891    8.9161 C.3     1  UNL1        0.1122
     10 N          60.6245   87.3065    9.2698 N.pl3   1  UNL1       -0.3041
     11 C          59.7861   86.7736    8.1891 C.3     1  UNL1        0.1122
     12 C          59.1725   87.9199    7.3813 C.3     1  UNL1        0.1122
     13 C          60.1716   90.8557    3.2541 C.ar    1  UNL1        0.0709
     14 C          59.0284   90.8728    4.0671 C.ar    1  UNL1        0.0190
     15 C          59.0364   90.2371    5.3119 C.ar    1  UNL1        0.0160
     16 C          60.1879   89.5690    5.7610 C.ar    1  UNL1        0.0480
     17 C          61.3265   89.5416    4.9406 C.ar    1  UNL1        0.0160
     18 C          61.3176   90.1772    3.6961 C.ar    1  UNL1        0.0190
     19 N          59.4841   92.2521   -0.0213 N.ar    1  UNL1       -0.2013
     20 N          60.7748   92.5371    0.0801 N.ar    1  UNL1       -0.1319
     21 C          61.1685   92.0787    1.2865 C.ar    1  UNL1        0.2197
     22 N          62.4885   92.2685    1.7977 N.pl3   1  UNL1       -0.3273
     23 N          60.1547   91.4971    1.9676 N.ar    1  UNL1       -0.2309
     24 C          59.1184   91.6192    1.1162 C.ar    1  UNL1        0.3531
     25 O          57.9651   91.1636    1.3425 O.2     1  UNL1       -0.2443
     26 H          62.7279   92.0300    2.7845 H       1  UNL1        0.1452
     27 H          63.2184   92.7147    1.1995 H       1  UNL1        0.1452
     28 C          58.6952   92.5418   -1.2285 C.3     1  UNL1        0.1100
     29 C          57.6789   93.6735   -1.0120 C.3     1  UNL1        0.0265
     30 C          56.5451   91.3261   -2.0009 C.3     1  UNL1        0.0021
     31 C          58.0627   91.2621   -1.8173 C.3     1  UNL1        0.0245
     32 O          60.7948   84.7775   14.3352 O.3     1  UNL1       -0.4727
     33 C          61.8209   83.8768   14.7551 C.3     1  UNL1        0.2374
     34 C          61.4975   82.4375   14.3323 C.3     1  UNL1        0.1909
     35 C          62.5486   81.4537   14.7594 C.3     1  UNL1        0.1783
     36 O          62.6197   80.5059   13.7428 O.3     1  UNL1       -0.3271
     37 C          61.9403   81.0589   12.6284 C.3     1  UNL1        0.2232
     38 O          61.4521   82.3467   12.9459 O.3     1  UNL1       -0.3258
     39 C          60.7767   80.1511   12.2124 C.ar    1  UNL1        0.0404
     40 C          61.0394   78.8226   11.8096 C.ar    1  UNL1        0.0021
     41 C          60.0094   77.9837   11.3817 C.ar    1  UNL1        0.0113
     42 C          58.6984   78.4533   11.3313 C.ar    1  UNL1        0.0585
     43 CL         57.4075   77.3970   10.7883 Cl      1  UNL1       -0.0822
     44 C          58.4166   79.7693   11.6990 C.ar    1  UNL1        0.0226
     45 C          59.4391   80.6249   12.1279 C.ar    1  UNL1        0.0591
     46 CL         58.9820   82.2835   12.5109 Cl      1  UNL1       -0.0824
     47 C          62.9459   81.1852   11.4704 C.3     1  UNL1        0.1338
     48 N          62.4836   82.2145   10.5090 N.3     1  UNL1       -0.2659
     49 C          63.6136   82.8572    9.8119 C.3     1  UNL1        0.0898
     50 C          63.0959   83.9737    8.9016 C.3     1  UNL1        0.0897
     51 N          62.1381   83.4236    7.9241 N.3     1  UNL1       -0.2691
     52 C          61.6435   84.4943    7.0459 C.3     1  UNL1        0.0897
     53 C          61.0090   82.7796    8.6216 C.3     1  UNL1        0.0897
     54 C          61.5241   81.6632    9.5346 C.3     1  UNL1        0.0898
@<TRIPOS>BOND
     1    30    31    1
     2    31    28    1
     3    28    29    1
     4    28    19    1
     5    19    20   ar
     6    20    21   ar
     7    21    22    1
     8    21    23   ar
     9    23    13    1
    10    13    14   ar
    11    14    15   ar
    12    15    16   ar
    13    16     7    1
    14     7     8    1
    15     8     9    1
    16     9    10    1
    17    10     1    1
    18     1     2   ar
    19     2     3   ar
    20     3     4   ar
    21     4    32    1
    22    32    33    1
    23    33    34    1
    24    34    35    1
    25    35    36    1
    26    36    37    1
    27    37    47    1
    28    47    48    1
    29    48    49    1
    30    49    50    1
    31    50    51    1
    32    51    52    1
    33    51    53    1
    34    53    54    1
    35    37    39    1
    36    39    40   ar
    37    40    41   ar
    38    41    42   ar
    39    42    43    1
    40    42    44   ar
    41    44    45   ar
    42    45    46    1
    43    37    38    1
    44     4     5   ar
    45     5     6   ar
    46    10    11    1
    47    11    12    1
    48    16    17   ar
    49    17    18   ar
    50    23    24   ar
    51    24    25    2
    52    24    19   ar
    53    18    13   ar
    54    12     7    1
    55     6     1   ar
    56    38    34    1
    57    54    48    1
    58    45    39   ar
    59    22    26    1
    60    22    27    1
@<TRIPOS>MOLECULE
*****
 54 60 0 0 0
SMALL
GASTEIGER

@<TRIPOS>ATOM
      1 C          58.6886   85.4724    9.6985 C.ar    1  UNL1        0.0481
      2 C          58.0886   84.2253    9.4606 C.ar    1  UNL1        0.0176
      3 C          57.7296   83.3989   10.5289 C.ar    1  UNL1        0.0382
      4 C          57.9622   83.7990   11.8495 C.ar    1  UNL1        0.1388
      5 C          58.5543   85.0539   12.0903 C.ar    1  UNL1        0.0382
      6 C          58.9147   85.8802   11.0219 C.ar    1  UNL1        0.0176
      7 N          59.4579   88.3660    6.7561 N.pl3   1  UNL1       -0.3041
      8 C          60.1301   88.4684    8.0569 C.3     1  UNL1        0.1122
      9 C          60.3248   87.0755    8.6524 C.3     1  UNL1        0.1122
     10 N          59.0611   86.3304    8.6035 N.pl3   1  UNL1       -0.3041
     11 C          58.3759   86.2272    7.3094 C.3     1  UNL1        0.1122
     12 C          58.1970   87.6169    6.6932 C.3     1  UNL1        0.1122
     13 C          60.6259   90.9163    3.5527 C.ar    1  UNL1        0.0709
     14 C          59.3984   91.1145    4.2025 C.ar    1  UNL1        0.0190
     15 C          59.0136   90.2808    5.2562 C.ar    1  UNL1        0.0160
     16 C          59.8492   89.2312    5.6734 C.ar    1  UNL1        0.0480
     17 C          61.0710   89.0261    5.0135 C.ar    1  UNL1        0.0160
     18 C          61.4549   89.8599    3.9598 C.ar    1  UNL1        0.0190
     19 N          60.9545   92.9736    0.5844 N.ar    1  UNL1       -0.2013
     20 N          62.2105   92.9852    1.0083 N.ar    1  UNL1       -0.1319
     21 C          62.2325   92.2548    2.1425 C.ar    1  UNL1        0.2197
     22 N          63.4045   92.0966    2.9432 N.pl3   1  UNL1       -0.3273
     23 N          61.0115   91.7659    2.4590 N.ar    1  UNL1       -0.2309
     24 C          60.2387   92.2313    1.4589 C.ar    1  UNL1        0.3531
     25 O          59.0112   91.9709    1.3395 O.2     1  UNL1       -0.2443
     26 H          63.3630   91.6467    3.8833 H       1  UNL1        0.1452
     27 H          64.3134   92.4941    2.6184 H       1  UNL1        0.1452
     28 C          60.5289   93.6165   -0.6683 C.3     1  UNL1        0.1100
     29 C          59.2637   92.9764   -1.2601 C.3     1  UNL1        0.0265
     30 C          62.3737   92.3851   -2.0017 C.3     1  UNL1        0.0021
     31 C          61.6899   93.7158   -1.6816 C.3     1  UNL1        0.0245
     32 O          57.5834   82.9253   12.8819 O.3     1  UNL1       -0.4727
     33 C          58.2930   81.7506   13.2780 C.3     1  UNL1        0.2374
     34 C          59.6140   81.6191   12.5081 C.3     1  UNL1        0.1909
     35 C          60.3954   80.3964   12.8946 C.3     1  UNL1        0.1783
     36 O          61.7360   80.7647   12.8316 O.3     1  UNL1       -0.3271
     37 C          61.7624   82.1806   12.7711 C.3     1  UNL1        0.2232
     38 O          60.4457   82.6937   12.8013 O.3     1  UNL1       -0.3258
     39 C          62.4704   82.6440   11.4926 C.ar    1  UNL1        0.0404
     40 C          61.7715   83.4424   10.5596 C.ar    1  UNL1        0.0021
     41 C          62.3708   83.8437    9.3648 C.ar    1  UNL1        0.0113
     42 C          63.6728   83.4470    9.0661 C.ar    1  UNL1        0.0585
     43 CL         64.4204   83.9497    7.5609 Cl      1  UNL1       -0.0822
     44 C          64.3750   82.6369    9.9588 C.ar    1  UNL1        0.0226
     45 C          63.7871   82.2231   11.1608 C.ar    1  UNL1        0.0591
     46 CL         64.7402   81.1530   12.1870 Cl      1  UNL1       -0.0824
     47 C          62.5206   82.6975   14.0065 C.3     1  UNL1        0.1338
     48 N          62.2835   84.1512   14.1739 N.3     1  UNL1       -0.2659
     49 C          61.2863   84.4242   15.2259 C.3     1  UNL1        0.0898
     50 C          61.0053   85.9271   15.2988 C.3     1  UNL1        0.0897
     51 N          62.2547   86.6606   15.5758 N.3     1  UNL1       -0.2691
     52 C          61.9854   88.1042   15.6507 C.3     1  UNL1        0.0897
     53 C          63.2523   86.3861   14.5243 C.3     1  UNL1        0.0897
     54 C          63.5341   84.8827   14.4477 C.3     1  UNL1        0.0898
@<TRIPOS>BOND
     1    30    31    1
     2    31    28    1
     3    28    29    1
     4    28    19    1
     5    19    20   ar
     6    20    21   ar
     7    21    22    1
     8    21    23   ar
     9    23    13    1
    10    13    14   ar
    11    14    15   ar
    12    15    16   ar
    13    16     7    1
    14     7     8    1
    15     8     9    1
    16     9    10    1
    17    10     1    1
    18     1     2   ar
    19     2     3   ar
    20     3     4   ar
    21     4    32    1
    22    32    33    1
    23    33    34    1
    24    34    35    1
    25    35    36    1
    26    36    37    1
    27    37    47    1
    28    47    48    1
    29    48    49    1
    30    49    50    1
    31    50    51    1
    32    51    52    1
    33    51    53    1
    34    53    54    1
    35    37    39    1
    36    39    40   ar
    37    40    41   ar
    38    41    42   ar
    39    42    43    1
    40    42    44   ar
    41    44    45   ar
    42    45    46    1
    43    37    38    1
    44     4     5   ar
    45     5     6   ar
    46    10    11    1
    47    11    12    1
    48    16    17   ar
    49    17    18   ar
    50    23    24   ar
    51    24    25    2
    52    24    19   ar
    53    18    13   ar
    54    12     7    1
    55     6     1   ar
    56    38    34    1
    57    54    48    1
    58    45    39   ar
    59    22    26    1
    60    22    27    1
@<TRIPOS>MOLECULE
*****
 54 60 0 0 0
SMALL
GASTEIGER

@<TRIPOS>ATOM
      1 C          58.6195   83.1567   10.3316 C.ar    1  UNL1        0.0481
      2 C          58.4751   83.4186   11.7036 C.ar    1  UNL1        0.0176
      3 C          58.2397   82.3735   12.6012 C.ar    1  UNL1        0.0382
      4 C          58.1436   81.0529   12.1487 C.ar    1  UNL1        0.1388
      5 C          58.2986   80.7872   10.7744 C.ar    1  UNL1        0.0382
      6 C          58.5327   81.8324    9.8762 C.ar    1  UNL1        0.0176
      7 N          58.9596   86.5755    7.9194 N.pl3   1  UNL1       -0.3041
      8 C          59.6125   86.5564    9.2339 C.3     1  UNL1        0.1122
      9 C          60.0064   85.1263    9.5978 C.3     1  UNL1        0.1122
     10 N          58.8628   84.2276    9.4000 N.pl3   1  UNL1       -0.3041
     11 C          58.1971   84.2430    8.0917 C.3     1  UNL1        0.1122
     12 C          57.8193   85.6757    7.7072 C.3     1  UNL1        0.1122
     13 C          59.7445   89.7624    5.2069 C.ar    1  UNL1        0.0709
     14 C          58.4258   89.3509    5.4514 C.ar    1  UNL1        0.0190
     15 C          58.1648   88.3070    6.3434 C.ar    1  UNL1        0.0160
     16 C          59.2205   87.6541    7.0016 C.ar    1  UNL1        0.0480
     17 C          60.5402   88.0584    6.7458 C.ar    1  UNL1        0.0160
     18 C          60.8003   89.1020    5.8536 C.ar    1  UNL1        0.0190
     19 N          60.8815   92.0178    2.6047 N.ar    1  UNL1       -0.2013
     20 N          60.0366   92.8156    3.2427 N.ar    1  UNL1       -0.1319
     21 C          59.5145   92.0843    4.2493 C.ar    1  UNL1        0.2197
     22 N          58.4977   92.5773    5.1226 N.pl3   1  UNL1       -0.3273
     23 N          60.0104   90.8260    4.2769 N.ar    1  UNL1       -0.2309
     24 C          60.8664   90.8229    3.2371 C.ar    1  UNL1        0.3531
     25 O          61.5877   89.8379    2.9233 O.2     1  UNL1       -0.2443
     26 H          58.0129   91.9497    5.8001 H       1  UNL1        0.1452
     27 H          58.1808   93.5688    5.0439 H       1  UNL1        0.1452
     28 C          61.7027   92.4683    1.4704 C.3     1  UNL1        0.1100
     29 C          61.5503   91.5659    0.2363 C.3     1  UNL1        0.0265
     30 C          64.1996   91.9823    0.9946 C.3     1  UNL1        0.0021
     31 C          63.1741   92.6887    1.8835 C.3     1  UNL1        0.0245
     32 O          57.9026   80.0447   13.0965 O.3     1  UNL1       -0.4727
     33 C          58.9023   79.2473   13.7330 C.3     1  UNL1        0.2374
     34 C          60.3067   79.6380   13.2534 C.3     1  UNL1        0.1909
     35 C          61.3984   79.0074   14.0692 C.3     1  UNL1        0.1783
     36 O          62.4193   79.9511   14.1347 O.3     1  UNL1       -0.3271
     37 C          61.8577   81.1821   13.7121 C.3     1  UNL1        0.2232
     38 O          60.4925   81.0090   13.3894 O.3     1  UNL1       -0.3258
     39 C          62.6150   81.7197   12.4922 C.ar    1  UNL1        0.0404
     40 C          61.8919   82.1435   11.3547 C.ar    1  UNL1        0.0021
     41 C          62.5511   82.5956   10.2106 C.ar    1  UNL1        0.0113
     42 C          63.9437   82.6217   10.1685 C.ar    1  UNL1        0.0585
     43 CL         64.7682   83.1861    8.7268 Cl      1  UNL1       -0.0822
     44 C          64.6810   82.1839   11.2691 C.ar    1  UNL1        0.0226
     45 C          64.0349   81.7245   12.4237 C.ar    1  UNL1        0.0591
     46 CL         65.0612   81.1390   13.7316 Cl      1  UNL1       -0.0824
     47 C          61.9652   82.1813   14.8776 C.3     1  UNL1        0.1338
     48 N          62.0596   83.5639   14.3514 N.3     1  UNL1       -0.2659
     49 C          60.8331   84.3367   14.6237 C.3     1  UNL1        0.0898
     50 C          60.9386   85.7228   13.9828 C.3     1  UNL1        0.0897
     51 N          62.1185   86.4334   14.5104 N.3     1  UNL1       -0.2691
     52 C          62.2185   87.7670   13.8990 C.3     1  UNL1        0.0897
     53 C          63.3448   85.6596   14.2392 C.3     1  UNL1        0.0897
     54 C          63.2413   84.2714   14.8776 C.3     1  UNL1        0.0898
@<TRIPOS>BOND
     1    30    31    1
     2    31    28    1
     3    28    29    1
     4    28    19    1
     5    19    20   ar
     6    20    21   ar
     7    21    22    1
     8    21    23   ar
     9    23    13    1
    10    13    14   ar
    11    14    15   ar
    12    15    16   ar
    13    16     7    1
    14     7     8    1
    15     8     9    1
    16     9    10    1
    17    10     1    1
    18     1     2   ar
    19     2     3   ar
    20     3     4   ar
    21     4    32    1
    22    32    33    1
    23    33    34    1
    24    34    35    1
    25    35    36    1
    26    36    37    1
    27    37    47    1
    28    47    48    1
    29    48    49    1
    30    49    50    1
    31    50    51    1
    32    51    52    1
    33    51    53    1
    34    53    54    1
    35    37    39    1
    36    39    40   ar
    37    40    41   ar
    38    41    42   ar
    39    42    43    1
    40    42    44   ar
    41    44    45   ar
    42    45    46    1
    43    37    38    1
    44     4     5   ar
    45     5     6   ar
    46    10    11    1
    47    11    12    1
    48    16    17   ar
    49    17    18   ar
    50    23    24   ar
    51    24    25    2
    52    24    19   ar
    53    18    13   ar
    54    12     7    1
    55     6     1   ar
    56    38    34    1
    57    54    48    1
    58    45    39   ar
    59    22    26    1
    60    22    27    1
@<TRIPOS>MOLECULE
*****
 54 60 0 0 0
SMALL
GASTEIGER

@<TRIPOS>ATOM
      1 C          60.5262   87.1944   10.5814 C.ar    1  UNL1        0.0481
      2 C          59.3126   86.7500   11.1307 C.ar    1  UNL1        0.0176
      3 C          59.2676   86.2553   12.4369 C.ar    1  UNL1        0.0382
      4 C          60.4280   86.1939   13.2166 C.ar    1  UNL1        0.1388
      5 C          61.6441   86.6489   12.6711 C.ar    1  UNL1        0.0382
      6 C          61.6896   87.1426   11.3641 C.ar    1  UNL1        0.0176
      7 N          60.3273   89.0817    6.8371 N.pl3   1  UNL1       -0.3041
      8 C          61.1121   89.7004    7.9121 C.3     1  UNL1        0.1122
      9 C          61.6599   88.6206    8.8431 C.3     1  UNL1        0.1122
     10 N          60.5812   87.7062    9.2364 N.pl3   1  UNL1       -0.3041
     11 C          59.7846   87.0868    8.1702 C.3     1  UNL1        0.1122
     12 C          59.2505   88.1596    7.2179 C.3     1  UNL1        0.1122
     13 C          60.5558   90.6291    2.8768 C.ar    1  UNL1        0.0709
     14 C          59.4044   90.8359    3.6511 C.ar    1  UNL1        0.0190
     15 C          59.3275   90.3316    4.9524 C.ar    1  UNL1        0.0160
     16 C          60.4005   89.6073    5.4982 C.ar    1  UNL1        0.0480
     17 C          61.5466   89.3900    4.7174 C.ar    1  UNL1        0.0160
     18 C          61.6226   89.8942    3.4163 C.ar    1  UNL1        0.0190
     19 N          61.4032   91.9385   -0.3971 N.ar    1  UNL1       -0.2013
     20 N          60.0804   91.9498   -0.4841 N.ar    1  UNL1       -0.1319
     21 C          59.6214   91.4603    0.6865 C.ar    1  UNL1        0.2197
     22 N          58.2343   91.2436    0.9485 N.pl3   1  UNL1       -0.3273
     23 N          60.6253   91.1357    1.5331 N.ar    1  UNL1       -0.2309
     24 C          61.7248   91.4537    0.8233 C.ar    1  UNL1        0.3531
     25 O          62.9011   91.3462    1.2633 O.2     1  UNL1       -0.2443
     26 H          57.9160   90.7361    1.8024 H       1  UNL1        0.1452
     27 H          57.5205   91.5373    0.2458 H       1  UNL1        0.1452
     28 C          62.2773   92.4562   -1.4609 C.3     1  UNL1        0.1100
     29 C          63.3579   91.4476   -1.8799 C.3     1  UNL1        0.0265
     30 C          64.3245   93.8437   -0.6983 C.3     1  UNL1        0.0021
     31 C          62.8492   93.8454   -1.1037 C.3     1  UNL1        0.0245
     32 O          60.3223   85.6842   14.5211 O.3     1  UNL1       -0.4727
     33 C          61.3006   84.8779   15.1794 C.3     1  UNL1        0.2374
     34 C          61.3489   83.4677   14.5760 C.3     1  UNL1        0.1909
     35 C          62.7197   83.0845   14.0974 C.3     1  UNL1        0.1783
     36 O          62.5232   82.3093   12.9584 O.3     1  UNL1       -0.3271
     37 C          61.1757   82.5060   12.5647 C.3     1  UNL1        0.2232
     38 O          60.5360   83.4029   13.4502 O.3     1  UNL1       -0.3258
     39 C          60.4265   81.1683   12.5504 C.ar    1  UNL1        0.0404
     40 C          61.1564   79.9621   12.4593 C.ar    1  UNL1        0.0021
     41 C          60.5044   78.7296   12.3981 C.ar    1  UNL1        0.0113
     42 C          59.1122   78.6720   12.4114 C.ar    1  UNL1        0.0585
     43 CL         58.2967   77.1211   12.3295 Cl      1  UNL1       -0.0822
     44 C          58.3680   79.8504   12.4745 C.ar    1  UNL1        0.0226
     45 C          59.0068   81.0954   12.5336 C.ar    1  UNL1        0.0591
     46 CL         57.9719   82.5220   12.5500 Cl      1  UNL1       -0.0824
     47 C          61.1751   83.1219   11.1544 C.3     1  UNL1        0.1338
     48 N          60.3034   82.3278   10.2561 N.3     1  UNL1       -0.2659
     49 C          59.4549   83.1923    9.4144 C.3     1  UNL1        0.0898
     50 C          58.5084   82.3319    8.5735 C.3     1  UNL1        0.0897
     51 N          59.2855   81.4027    7.7320 N.3     1  UNL1       -0.2691
     52 C          58.3776   80.5788    6.9201 C.3     1  UNL1        0.0897
     53 C          60.1351   80.5394    8.5740 C.3     1  UNL1        0.0897
     54 C          61.0820   81.3975    9.4180 C.3     1  UNL1        0.0898
@<TRIPOS>BOND
     1    30    31    1
     2    31    28    1
     3    28    29    1
     4    28    19    1
     5    19    20   ar
     6    20    21   ar
     7    21    22    1
     8    21    23   ar
     9    23    13    1
    10    13    14   ar
    11    14    15   ar
    12    15    16   ar
    13    16     7    1
    14     7     8    1
    15     8     9    1
    16     9    10    1
    17    10     1    1
    18     1     2   ar
    19     2     3   ar
    20     3     4   ar
    21     4    32    1
    22    32    33    1
    23    33    34    1
    24    34    35    1
    25    35    36    1
    26    36    37    1
    27    37    47    1
    28    47    48    1
    29    48    49    1
    30    49    50    1
    31    50    51    1
    32    51    52    1
    33    51    53    1
    34    53    54    1
    35    37    39    1
    36    39    40   ar
    37    40    41   ar
    38    41    42   ar
    39    42    43    1
    40    42    44   ar
    41    44    45   ar
    42    45    46    1
    43    37    38    1
    44     4     5   ar
    45     5     6   ar
    46    10    11    1
    47    11    12    1
    48    16    17   ar
    49    17    18   ar
    50    23    24   ar
    51    24    25    2
    52    24    19   ar
    53    18    13   ar
    54    12     7    1
    55     6     1   ar
    56    38    34    1
    57    54    48    1
    58    45    39   ar
    59    22    26    1
    60    22    27    1
@<TRIPOS>MOLECULE
*****
 54 60 0 0 0
SMALL
GASTEIGER

@<TRIPOS>ATOM
      1 C          59.2322   82.6479    8.7370 C.ar    1  UNL1        0.0481
      2 C          58.2127   82.3904    9.6678 C.ar    1  UNL1        0.0176
      3 C          58.1932   81.1877   10.3793 C.ar    1  UNL1        0.0382
      4 C          59.1859   80.2227   10.1759 C.ar    1  UNL1        0.1388
      5 C          60.2150   80.4836    9.2506 C.ar    1  UNL1        0.0382
      6 C          60.2341   81.6860    8.5378 C.ar    1  UNL1        0.0176
      7 N          59.5159   86.4858    7.0599 N.pl3   1  UNL1       -0.3041
      8 C          60.7366   85.6929    7.2491 C.3     1  UNL1        0.1122
      9 C          60.4105   84.2043    7.1463 C.3     1  UNL1        0.1122
     10 N          59.2601   83.8849    8.0001 N.pl3   1  UNL1       -0.3041
     11 C          58.0359   84.6759    7.8250 C.3     1  UNL1        0.1122
     12 C          58.3562   86.1707    7.9030 C.3     1  UNL1        0.1122
     13 C          59.6503   90.1308    4.8631 C.ar    1  UNL1        0.0709
     14 C          60.8209   89.3851    5.0675 C.ar    1  UNL1        0.0190
     15 C          60.7795   88.1868    5.7857 C.ar    1  UNL1        0.0160
     16 C          59.5658   87.7178    6.3159 C.ar    1  UNL1        0.0480
     17 C          58.3979   88.4719    6.1217 C.ar    1  UNL1        0.0160
     18 C          58.4402   89.6700    5.4037 C.ar    1  UNL1        0.0190
     19 N          60.1267   92.9002    2.5707 N.ar    1  UNL1       -0.2013
     20 N          59.5378   93.5355    3.5743 N.ar    1  UNL1       -0.1319
     21 C          59.2820   92.6014    4.5137 C.ar    1  UNL1        0.2197
     22 N          58.5786   92.8871    5.7233 N.pl3   1  UNL1       -0.3273
     23 N          59.6993   91.3709    4.1373 N.ar    1  UNL1       -0.2309
     24 C          60.2275   91.5977    2.9193 C.ar    1  UNL1        0.3531
     25 O          60.7793   90.7093    2.2157 O.2     1  UNL1       -0.2443
     26 H          58.2715   92.1248    6.3657 H       1  UNL1        0.1452
     27 H          58.3044   93.8694    5.9455 H       1  UNL1        0.1452
     28 C          60.6185   93.5900    1.3683 C.3     1  UNL1        0.1100
     29 C          59.9071   93.1249    0.0884 C.3     1  UNL1        0.0265
     30 C          62.6856   92.6947    0.0942 C.3     1  UNL1        0.0021
     31 C          62.1579   93.5274    1.2642 C.3     1  UNL1        0.0245
     32 O          59.1126   79.0319   10.9171 O.3     1  UNL1       -0.4727
     33 C          60.2264   78.3246   11.4647 C.3     1  UNL1        0.2374
     34 C          60.9918   79.1956   12.4699 C.3     1  UNL1        0.1909
     35 C          60.2663   79.3551   13.7750 C.3     1  UNL1        0.1783
     36 O          60.5392   80.6494   14.2075 O.3     1  UNL1       -0.3271
     37 C          61.0778   81.3412   13.0936 C.3     1  UNL1        0.2232
     38 O          61.1361   80.4849   11.9706 O.3     1  UNL1       -0.3258
     39 C          62.4817   81.8632   13.4214 C.ar    1  UNL1        0.0404
     40 C          62.8094   82.1893   14.7565 C.ar    1  UNL1        0.0021
     41 C          64.0627   82.7095   15.0830 C.ar    1  UNL1        0.0113
     42 C          65.0111   82.9302   14.0862 C.ar    1  UNL1        0.0585
     43 CL         66.5833   83.5887   14.5004 Cl      1  UNL1       -0.0822
     44 C          64.7027   82.6409   12.7566 C.ar    1  UNL1        0.0226
     45 C          63.4487   82.1211   12.4118 C.ar    1  UNL1        0.0591
     46 CL         63.1433   81.8483   10.6975 Cl      1  UNL1       -0.0824
     47 C          60.1439   82.5198   12.7661 C.3     1  UNL1        0.1338
     48 N          60.9359   83.7620   12.6013 N.3     1  UNL1       -0.2659
     49 C          60.7452   84.3579   11.2656 C.3     1  UNL1        0.0898
     50 C          61.6508   85.5819   11.1080 C.3     1  UNL1        0.0897
     51 N          61.3468   86.5723   12.1580 N.3     1  UNL1       -0.2691
     52 C          62.2128   87.7507   12.0050 C.3     1  UNL1        0.0897
     53 C          61.5361   85.9755   13.4937 C.3     1  UNL1        0.0897
     54 C          60.6326   84.7493   13.6536 C.3     1  UNL1        0.0898
@<TRIPOS>BOND
     1    30    31    1
     2    31    28    1
     3    28    29    1
     4    28    19    1
     5    19    20   ar
     6    20    21   ar
     7    21    22    1
     8    21    23   ar
     9    23    13    1
    10    13    14   ar
    11    14    15   ar
    12    15    16   ar
    13    16     7    1
    14     7     8    1
    15     8     9    1
    16     9    10    1
    17    10     1    1
    18     1     2   ar
    19     2     3   ar
    20     3     4   ar
    21     4    32    1
    22    32    33    1
    23    33    34    1
    24    34    35    1
    25    35    36    1
    26    36    37    1
    27    37    47    1
    28    47    48    1
    29    48    49    1
    30    49    50    1
    31    50    51    1
    32    51    52    1
    33    51    53    1
    34    53    54    1
    35    37    39    1
    36    39    40   ar
    37    40    41   ar
    38    41    42   ar
    39    42    43    1
    40    42    44   ar
    41    44    45   ar
    42    45    46    1
    43    37    38    1
    44     4     5   ar
    45     5     6   ar
    46    10    11    1
    47    11    12    1
    48    16    17   ar
    49    17    18   ar
    50    23    24   ar
    51    24    25    2
    52    24    19   ar
    53    18    13   ar
    54    12     7    1
    55     6     1   ar
    56    38    34    1
    57    54    48    1
    58    45    39   ar
    59    22    26    1
    60    22    27    1
@<TRIPOS>MOLECULE
*****
 54 60 0 0 0
SMALL
GASTEIGER

@<TRIPOS>ATOM
      1 C          60.0011   86.7044   10.4562 C.ar    1  UNL1        0.0481
      2 C          59.0526   85.6882   10.6554 C.ar    1  UNL1        0.0176
      3 C          59.0728   84.9225   11.8243 C.ar    1  UNL1        0.0382
      4 C          60.0363   85.1545   12.8123 C.ar    1  UNL1        0.1388
      5 C          60.9818   86.1802   12.6189 C.ar    1  UNL1        0.0382
      6 C          60.9626   86.9454   11.4492 C.ar    1  UNL1        0.0176
      7 N          60.3393   88.6547    6.7543 N.pl3   1  UNL1       -0.3041
      8 C          59.5806   87.4011    6.8386 C.3     1  UNL1        0.1122
      9 C          58.9649   87.2588    8.2291 C.3     1  UNL1        0.1122
     10 N          59.9870   87.4984    9.2548 N.pl3   1  UNL1       -0.3041
     11 C          60.7573   88.7456    9.1768 C.3     1  UNL1        0.1122
     12 C          61.3593   88.9090    7.7789 C.3     1  UNL1        0.1122
     13 C          60.2585   90.9581    3.1740 C.ar    1  UNL1        0.0709
     14 C          59.1222   90.8854    3.9936 C.ar    1  UNL1        0.0190
     15 C          59.1465   90.1325    5.1709 C.ar    1  UNL1        0.0160
     16 C          60.3077   89.4354    5.5445 C.ar    1  UNL1        0.0480
     17 C          61.4395   89.4984    4.7165 C.ar    1  UNL1        0.0160
     18 C          61.4142   90.2512    3.5395 C.ar    1  UNL1        0.0190
     19 N          59.5547   92.6051    0.0207 N.ar    1  UNL1       -0.2013
     20 N          60.8072   92.9978    0.2068 N.ar    1  UNL1       -0.1319
     21 C          61.2007   92.4598    1.3799 C.ar    1  UNL1        0.2197
     22 N          62.4769   92.7199    1.9658 N.pl3   1  UNL1       -0.3273
     23 N          60.2248   91.7207    1.9558 N.ar    1  UNL1       -0.2309
     24 C          59.2124   91.8301    1.0744 C.ar    1  UNL1        0.3531
     25 O          58.1016   91.2484    1.2038 O.2     1  UNL1       -0.2443
     26 H          62.7033   92.4073    2.9348 H       1  UNL1        0.1452
     27 H          63.1806   93.2899    1.4467 H       1  UNL1        0.1452
     28 C          58.7847   92.9392   -1.1873 C.3     1  UNL1        0.1100
     29 C          57.5761   93.8388   -0.8867 C.3     1  UNL1        0.0265
     30 C          56.9909   91.1670   -1.7694 C.3     1  UNL1        0.0021
     31 C          58.4156   91.6765   -1.9959 C.3     1  UNL1        0.0245
     32 O          60.0094   84.3513   13.9641 O.3     1  UNL1       -0.4727
     33 C          61.1443   83.7317   14.5712 C.3     1  UNL1        0.2374
     34 C          61.7645   82.6832   13.6378 C.3     1  UNL1        0.1909
     35 C          63.0107   83.1720   12.9575 C.3     1  UNL1        0.1783
     36 O          62.9975   82.6072   11.6856 O.3     1  UNL1       -0.3271
     37 C          61.6841   82.1167   11.4762 C.3     1  UNL1        0.2232
     38 O          60.8806   82.3783   12.6092 O.3     1  UNL1       -0.3258
     39 C          61.7184   80.6087   11.2016 C.ar    1  UNL1        0.0404
     40 C          62.5707   80.1033   10.1944 C.ar    1  UNL1        0.0021
     41 C          62.5934   78.7420    9.8876 C.ar    1  UNL1        0.0113
     42 C          61.7580   77.8568   10.5661 C.ar    1  UNL1        0.0585
     43 CL         61.7863   76.1473   10.1739 Cl      1  UNL1       -0.0822
     44 C          60.8884   78.3345   11.5469 C.ar    1  UNL1        0.0226
     45 C          60.8513   79.6981   11.8647 C.ar    1  UNL1        0.0591
     46 CL         59.6741   80.2021   13.0758 Cl      1  UNL1       -0.0824
     47 C          61.0853   82.8560   10.2666 C.3     1  UNL1        0.1338
     48 N          60.3428   81.9025    9.4080 N.3     1  UNL1       -0.2659
     49 C          58.9284   81.7917    9.8115 C.3     1  UNL1        0.0898
     50 C          58.2264   80.7306    8.9605 C.3     1  UNL1        0.0897
     51 N          58.3244   81.0844    7.5319 N.3     1  UNL1       -0.2691
     52 C          57.6463   80.0683    6.7135 C.3     1  UNL1        0.0897
     53 C          59.7391   81.1966    7.1291 C.3     1  UNL1        0.0897
     54 C          60.4447   82.2564    7.9803 C.3     1  UNL1        0.0898
@<TRIPOS>BOND
     1    30    31    1
     2    31    28    1
     3    28    29    1
     4    28    19    1
     5    19    20   ar
     6    20    21   ar
     7    21    22    1
     8    21    23   ar
     9    23    13    1
    10    13    14   ar
    11    14    15   ar
    12    15    16   ar
    13    16     7    1
    14     7     8    1
    15     8     9    1
    16     9    10    1
    17    10     1    1
    18     1     2   ar
    19     2     3   ar
    20     3     4   ar
    21     4    32    1
    22    32    33    1
    23    33    34    1
    24    34    35    1
    25    35    36    1
    26    36    37    1
    27    37    47    1
    28    47    48    1
    29    48    49    1
    30    49    50    1
    31    50    51    1
    32    51    52    1
    33    51    53    1
    34    53    54    1
    35    37    39    1
    36    39    40   ar
    37    40    41   ar
    38    41    42   ar
    39    42    43    1
    40    42    44   ar
    41    44    45   ar
    42    45    46    1
    43    37    38    1
    44     4     5   ar
    45     5     6   ar
    46    10    11    1
    47    11    12    1
    48    16    17   ar
    49    17    18   ar
    50    23    24   ar
    51    24    25    2
    52    24    19   ar
    53    18    13   ar
    54    12     7    1
    55     6     1   ar
    56    38    34    1
    57    54    48    1
    58    45    39   ar
    59    22    26    1
    60    22    27    1
