@<TRIPOS>MOLECULE
*****
 53 59 0 0 0
SMALL
GASTEIGER

@<TRIPOS>ATOM
      1 C          59.7994   86.8334   10.5353 C.ar    1  UNL1        0.0487
      2 C          58.6316   86.1042   10.8368 C.ar    1  UNL1        0.0176
      3 C          58.6027   85.2065   11.9072 C.ar    1  UNL1        0.0382
      4 C          59.7479   85.0055   12.6992 C.ar    1  UNL1        0.1388
      5 C          60.9042   85.7359   12.4123 C.ar    1  UNL1        0.0382
      6 C          60.9359   86.6342   11.3428 C.ar    1  UNL1        0.0176
      7 N          59.6668   89.6430    7.2712 N.pl3   1  UNL1       -0.3034
      8 C          60.6263   89.8823    8.3576 C.3     1  UNL1        0.1123
      9 C          60.2117   89.1684    9.6518 C.3     1  UNL1        0.1129
     10 N          59.8290   87.7624    9.4198 N.pl3   1  UNL1       -0.2974
     11 C          59.3211   87.3502    8.0973 C.3     1  UNL1        0.1377
     12 S          60.6817   86.6434    7.1009 S.3     1  UNL1       -0.1475
     13 C          58.6982   88.5448    7.3656 C.3     1  UNL1        0.1217
     14 H          59.8158   86.2007    6.0827 H       1  UNL1        0.1039
     15 C          59.8182   92.0729    3.7783 C.ar    1  UNL1        0.0699
     16 C          60.9881   91.4851    4.2905 C.ar    1  UNL1        0.0190
     17 C          60.9371   90.6869    5.4367 C.ar    1  UNL1        0.0160
     18 C          59.7167   90.4594    6.0894 C.ar    1  UNL1        0.0481
     19 C          58.5468   91.0390    5.5781 C.ar    1  UNL1        0.0160
     20 C          58.5961   91.8353    4.4307 C.ar    1  UNL1        0.0190
     21 N          59.8496   93.5940    0.4847 N.ar    1  UNL1       -0.2024
     22 N          60.0577   94.6624    1.2409 N.ar    1  UNL1       -0.1442
     23 C          60.0615   94.2277    2.5199 C.ar    1  UNL1        0.2073
     24 N          59.8621   92.8917    2.5935 N.ar    1  UNL1       -0.2398
     25 C          59.7450   92.5298    1.3005 C.ar    1  UNL1        0.3522
     26 O          59.5990   91.3430    0.9006 O.2     1  UNL1       -0.2444
     27 C          59.8307   93.6025   -0.9815 C.3     1  UNL1        0.1099
     28 C          60.9040   94.5687   -1.4964 C.3     1  UNL1        0.0265
     29 C          57.4573   92.7901   -1.4876 C.3     1  UNL1        0.0021
     30 C          58.4205   93.9775   -1.4819 C.3     1  UNL1        0.0245
     31 O          59.7850   84.1154   13.7859 O.3     1  UNL1       -0.4727
     32 C          60.3885   82.8196   13.7990 C.3     1  UNL1        0.2374
     33 C          59.9642   82.0053   12.5696 C.3     1  UNL1        0.1909
     34 C          60.3948   80.5691   12.6132 C.3     1  UNL1        0.1783
     35 O          60.6412   80.2114   11.2919 O.3     1  UNL1       -0.3266
     36 C          60.8171   81.4211   10.5795 C.3     1  UNL1        0.2314
     37 O          60.5525   82.5289   11.4221 O.3     1  UNL1       -0.3254
     38 C          59.8770   81.4433    9.3709 C.ar    1  UNL1        0.0410
     39 C          60.3120   82.0194    8.1565 C.ar    1  UNL1        0.0022
     40 C          59.4855   82.0359    7.0317 C.ar    1  UNL1        0.0113
     41 C          58.2161   81.4631    7.0858 C.ar    1  UNL1        0.0585
     42 CL         57.1822   81.4837    5.6688 Cl      1  UNL1       -0.0822
     43 C          57.7752   80.8603    8.2641 C.ar    1  UNL1        0.0226
     44 C          58.5923   80.8343    9.4015 C.ar    1  UNL1        0.0591
     45 CL         57.9587   79.9995   10.8194 Cl      1  UNL1       -0.0824
     46 C          62.2751   81.5243   10.0852 C.3     1  UNL1        0.1893
     47 N          62.9987   82.5810   10.7944 N.ar    1  UNL1       -0.2313
     48 N          63.4671   82.4527   12.0223 N.ar    1  UNL1       -0.1532
     49 C          64.1204   83.6016   12.2831 C.ar    1  UNL1        0.1604
     50 C          64.8639   83.8538   13.5503 C.3     1  UNL1        0.0756
     51 N          64.1073   84.4625   11.2416 N.ar    1  UNL1       -0.2146
     52 C          63.3852   83.7856   10.3267 C.ar    1  UNL1        0.1381
     53 C          63.0775   84.3203    8.9638 C.3     1  UNL1        0.0734
@<TRIPOS>BOND
     1    29    30    1
     2    30    27    1
     3    27    28    1
     4    27    21    1
     5    21    22   ar
     6    22    23   ar
     7    23    24   ar
     8    24    15    1
     9    15    16   ar
    10    16    17   ar
    11    17    18   ar
    12    18     7    1
    13     7     8    1
    14     8     9    1
    15     9    10    1
    16    10     1    1
    17     1     2   ar
    18     2     3   ar
    19     3     4   ar
    20     4    31    1
    21    31    32    1
    22    32    33    1
    23    33    34    1
    24    34    35    1
    25    35    36    1
    26    36    46    1
    27    46    47    1
    28    47    48   ar
    29    48    49   ar
    30    49    50    1
    31    49    51   ar
    32    51    52   ar
    33    52    53    1
    34    36    38    1
    35    38    39   ar
    36    39    40   ar
    37    40    41   ar
    38    41    42    1
    39    41    43   ar
    40    43    44   ar
    41    44    45    1
    42    36    37    1
    43     4     5   ar
    44     5     6   ar
    45    10    11    1
    46    11    12    1
    47    11    13    1
    48    18    19   ar
    49    19    20   ar
    50    24    25   ar
    51    25    26    2
    52    25    21   ar
    53    20    15   ar
    54    13     7    1
    55     6     1   ar
    56    37    33    1
    57    52    47   ar
    58    44    38   ar
    59    12    14    1
@<TRIPOS>MOLECULE
*****
 53 59 0 0 0
SMALL
GASTEIGER

@<TRIPOS>ATOM
      1 C          60.0563   83.3316   12.9506 C.ar    1  UNL1        0.0487
      2 C          58.7611   83.4933   12.4191 C.ar    1  UNL1        0.0176
      3 C          58.0382   82.3957   11.9445 C.ar    1  UNL1        0.0382
      4 C          58.5981   81.1055   11.9787 C.ar    1  UNL1        0.1388
      5 C          59.8769   80.9383   12.5168 C.ar    1  UNL1        0.0382
      6 C          60.6018   82.0339   12.9922 C.ar    1  UNL1        0.0176
      7 N          62.1170   86.7598   14.5528 N.pl3   1  UNL1       -0.3034
      8 C          62.7749   85.4490   14.6382 C.3     1  UNL1        0.1123
      9 C          61.7642   84.2971   14.5488 C.3     1  UNL1        0.1129
     10 N          60.8078   84.4739   13.4390 N.pl3   1  UNL1       -0.2974
     11 C          60.4995   85.8302   12.9470 C.3     1  UNL1        0.1377
     12 S          61.5298   86.2110   11.4851 S.3     1  UNL1       -0.1475
     13 C          60.7435   86.8688   14.0480 C.3     1  UNL1        0.1217
     14 H          60.8336   87.4017   11.2024 H       1  UNL1        0.1039
     15 C          64.2872   90.2580   15.6391 C.ar    1  UNL1        0.0699
     16 C          64.5544   89.5999   14.4258 C.ar    1  UNL1        0.0190
     17 C          63.8408   88.4522   14.0698 C.ar    1  UNL1        0.0160
     18 C          62.8461   87.9435   14.9177 C.ar    1  UNL1        0.0481
     19 C          62.5726   88.6003   16.1259 C.ar    1  UNL1        0.0160
     20 C          63.2838   89.7496   16.4818 C.ar    1  UNL1        0.0190
     21 N          66.5268   93.0699   16.1291 N.ar    1  UNL1       -0.2024
     22 N          65.6231   93.3211   17.0656 N.ar    1  UNL1       -0.1442
     23 C          64.7072   92.3313   16.9849 C.ar    1  UNL1        0.2073
     24 N          65.0145   91.4453   16.0098 N.ar    1  UNL1       -0.2398
     25 C          66.1642   91.9350   15.5049 C.ar    1  UNL1        0.3522
     26 O          66.8384   91.3815   14.5946 O.2     1  UNL1       -0.2444
     27 C          67.7374   93.8665   15.9053 C.3     1  UNL1        0.1099
     28 C          67.7101   94.4413   14.4842 C.3     1  UNL1        0.0265
     29 C          69.7335   92.6424   14.8726 C.3     1  UNL1        0.0021
     30 C          68.9866   92.9975   16.1586 C.3     1  UNL1        0.0245
     31 O          57.9255   79.9626   11.5140 O.3     1  UNL1       -0.4727
     32 C          57.6464   79.6404   10.1495 C.3     1  UNL1        0.2374
     33 C          57.8110   80.8732    9.2509 C.3     1  UNL1        0.1909
     34 C          57.7185   80.5733    7.7841 C.3     1  UNL1        0.1783
     35 O          58.5761   81.4747    7.1625 O.3     1  UNL1       -0.3266
     36 C          59.4589   81.9391    8.1659 C.3     1  UNL1        0.2314
     37 O          59.0727   81.4321    9.4312 O.3     1  UNL1       -0.3254
     38 C          59.4476   83.4703    8.1871 C.ar    1  UNL1        0.0410
     39 C          58.6840   84.1509    9.1616 C.ar    1  UNL1        0.0022
     40 C          58.6701   85.5455    9.2193 C.ar    1  UNL1        0.0113
     41 C          59.4301   86.2920    8.3207 C.ar    1  UNL1        0.0585
     42 CL         59.4116   88.0445    8.3989 Cl      1  UNL1       -0.0822
     43 C          60.2169   85.6431    7.3689 C.ar    1  UNL1        0.0226
     44 C          60.2429   84.2444    7.2981 C.ar    1  UNL1        0.0591
     45 CL         61.3126   83.5268    6.0941 Cl      1  UNL1       -0.0824
     46 C          60.8907   81.4503    7.8632 C.3     1  UNL1        0.1893
     47 N          61.7691   81.6441    9.0182 N.ar    1  UNL1       -0.2313
     48 N          62.2487   82.8179    9.3866 N.ar    1  UNL1       -0.1532
     49 C          62.9439   82.5870   10.5172 C.ar    1  UNL1        0.1604
     50 C          63.6020   83.6638   11.3107 C.3     1  UNL1        0.0756
     51 N          62.9047   81.2928   10.9040 N.ar    1  UNL1       -0.2146
     52 C          62.1613   80.7309    9.9301 C.ar    1  UNL1        0.1381
     53 C          61.8162   79.2757    9.8963 C.3     1  UNL1        0.0734
@<TRIPOS>BOND
     1    29    30    1
     2    30    27    1
     3    27    28    1
     4    27    21    1
     5    21    22   ar
     6    22    23   ar
     7    23    24   ar
     8    24    15    1
     9    15    16   ar
    10    16    17   ar
    11    17    18   ar
    12    18     7    1
    13     7     8    1
    14     8     9    1
    15     9    10    1
    16    10     1    1
    17     1     2   ar
    18     2     3   ar
    19     3     4   ar
    20     4    31    1
    21    31    32    1
    22    32    33    1
    23    33    34    1
    24    34    35    1
    25    35    36    1
    26    36    46    1
    27    46    47    1
    28    47    48   ar
    29    48    49   ar
    30    49    50    1
    31    49    51   ar
    32    51    52   ar
    33    52    53    1
    34    36    38    1
    35    38    39   ar
    36    39    40   ar
    37    40    41   ar
    38    41    42    1
    39    41    43   ar
    40    43    44   ar
    41    44    45    1
    42    36    37    1
    43     4     5   ar
    44     5     6   ar
    45    10    11    1
    46    11    12    1
    47    11    13    1
    48    18    19   ar
    49    19    20   ar
    50    24    25   ar
    51    25    26    2
    52    25    21   ar
    53    20    15   ar
    54    13     7    1
    55     6     1   ar
    56    37    33    1
    57    52    47   ar
    58    44    38   ar
    59    12    14    1
@<TRIPOS>MOLECULE
*****
 53 59 0 0 0
SMALL
GASTEIGER

@<TRIPOS>ATOM
      1 C          60.4375   87.5132   11.1847 C.ar    1  UNL1        0.0487
      2 C          59.3050   87.0047   11.8519 C.ar    1  UNL1        0.0176
      3 C          59.4358   86.2939   13.0478 C.ar    1  UNL1        0.0382
      4 C          60.7075   86.0625   13.6032 C.ar    1  UNL1        0.1388
      5 C          61.8324   86.5758   12.9521 C.ar    1  UNL1        0.0382
      6 C          61.7045   87.2870   11.7565 C.ar    1  UNL1        0.0176
      7 N          60.2395   89.6163    7.4293 N.pl3   1  UNL1       -0.3034
      8 C          59.2338   88.5806    7.7013 C.3     1  UNL1        0.1123
      9 C          59.7183   87.5797    8.7595 C.3     1  UNL1        0.1129
     10 N          60.3000   88.2475    9.9397 N.pl3   1  UNL1       -0.2974
     11 C          60.8880   89.5939    9.8037 C.3     1  UNL1        0.1377
     12 S          59.6613   90.8603   10.2884 S.3     1  UNL1       -0.1475
     13 C          61.3511   89.8340    8.3621 C.3     1  UNL1        0.1217
     14 H          60.6016   91.9073   10.2408 H       1  UNL1        0.1039
     15 C          59.8279   92.1046    3.9990 C.ar    1  UNL1        0.0699
     16 C          61.0834   91.5817    4.3554 C.ar    1  UNL1        0.0190
     17 C          61.2172   90.7643    5.4812 C.ar    1  UNL1        0.0160
     18 C          60.0992   90.4524    6.2686 C.ar    1  UNL1        0.0481
     19 C          58.8443   90.9671    5.9130 C.ar    1  UNL1        0.0160
     20 C          58.7088   91.7825    4.7861 C.ar    1  UNL1        0.0190
     21 N          59.4174   93.6741    0.7539 N.ar    1  UNL1       -0.2024
     22 N          59.5615   94.7467    1.5191 N.ar    1  UNL1       -0.1442
     23 C          59.7189   94.2940    2.7821 C.ar    1  UNL1        0.2073
     24 N          59.6813   92.9427    2.8362 N.ar    1  UNL1       -0.2398
     25 C          59.5024   92.5914    1.5473 C.ar    1  UNL1        0.3522
     26 O          59.4622   91.4026    1.1292 O.2     1  UNL1       -0.2444
     27 C          59.2792   93.7050   -0.7056 C.3     1  UNL1        0.1099
     28 C          60.1387   94.8414   -1.2719 C.3     1  UNL1        0.0265
     29 C          57.1142   92.5150   -1.3732 C.3     1  UNL1        0.0021
     30 C          57.7914   93.8551   -1.0846 C.3     1  UNL1        0.0245
     31 O          60.9068   85.3526   14.7994 O.3     1  UNL1       -0.4727
     32 C          62.0313   84.5298   15.1186 C.3     1  UNL1        0.2374
     33 C          61.9406   83.1761   14.4018 C.3     1  UNL1        0.1909
     34 C          63.2733   82.5569   14.1006 C.3     1  UNL1        0.1783
     35 O          63.1027   81.8620   12.9080 O.3     1  UNL1       -0.3266
     36 C          61.9438   82.3982   12.2985 C.3     1  UNL1        0.2314
     37 O          61.3207   83.3296   13.1653 O.3     1  UNL1       -0.3254
     38 C          60.9730   81.2631   11.9607 C.ar    1  UNL1        0.0410
     39 C          59.7148   81.2048   12.6008 C.ar    1  UNL1        0.0022
     40 C          58.8004   80.1943   12.2987 C.ar    1  UNL1        0.0113
     41 C          59.1108   79.2315   11.3400 C.ar    1  UNL1        0.0585
     42 CL         57.9573   77.9651   10.9617 Cl      1  UNL1       -0.0822
     43 C          60.3340   79.2853   10.6714 C.ar    1  UNL1        0.0226
     44 C          61.2623   80.2931   10.9620 C.ar    1  UNL1        0.0591
     45 CL         62.7529   80.2996   10.0202 Cl      1  UNL1       -0.0824
     46 C          62.3340   83.1308   10.9979 C.3     1  UNL1        0.1893
     47 N          61.1460   83.5551   10.2551 N.ar    1  UNL1       -0.2313
     48 N          59.9134   83.4398   10.7145 N.ar    1  UNL1       -0.1532
     49 C          59.1234   84.0002    9.7781 C.ar    1  UNL1        0.1604
     50 C          57.6472   84.1436    9.9281 C.3     1  UNL1        0.0756
     51 N          59.8192   84.4991    8.7326 N.ar    1  UNL1       -0.2146
     52 C          61.0883   84.1925    9.0678 C.ar    1  UNL1        0.1381
     53 C          62.2693   84.5403    8.2179 C.3     1  UNL1        0.0734
@<TRIPOS>BOND
     1    29    30    1
     2    30    27    1
     3    27    28    1
     4    27    21    1
     5    21    22   ar
     6    22    23   ar
     7    23    24   ar
     8    24    15    1
     9    15    16   ar
    10    16    17   ar
    11    17    18   ar
    12    18     7    1
    13     7     8    1
    14     8     9    1
    15     9    10    1
    16    10     1    1
    17     1     2   ar
    18     2     3   ar
    19     3     4   ar
    20     4    31    1
    21    31    32    1
    22    32    33    1
    23    33    34    1
    24    34    35    1
    25    35    36    1
    26    36    46    1
    27    46    47    1
    28    47    48   ar
    29    48    49   ar
    30    49    50    1
    31    49    51   ar
    32    51    52   ar
    33    52    53    1
    34    36    38    1
    35    38    39   ar
    36    39    40   ar
    37    40    41   ar
    38    41    42    1
    39    41    43   ar
    40    43    44   ar
    41    44    45    1
    42    36    37    1
    43     4     5   ar
    44     5     6   ar
    45    10    11    1
    46    11    12    1
    47    11    13    1
    48    18    19   ar
    49    19    20   ar
    50    24    25   ar
    51    25    26    2
    52    25    21   ar
    53    20    15   ar
    54    13     7    1
    55     6     1   ar
    56    37    33    1
    57    52    47   ar
    58    44    38   ar
    59    12    14    1
@<TRIPOS>MOLECULE
*****
 53 59 0 0 0
SMALL
GASTEIGER

@<TRIPOS>ATOM
      1 C          60.0243   87.4520   11.0229 C.ar    1  UNL1        0.0487
      2 C          59.0913   86.4315   11.2953 C.ar    1  UNL1        0.0176
      3 C          59.1524   85.7026   12.4860 C.ar    1  UNL1        0.0382
      4 C          60.1583   85.9685   13.4328 C.ar    1  UNL1        0.1388
      5 C          61.0778   86.9882   13.1731 C.ar    1  UNL1        0.0382
      6 C          61.0190   87.7186   11.9837 C.ar    1  UNL1        0.0176
      7 N          60.0435   89.5945    7.2846 N.pl3   1  UNL1       -0.3034
      8 C          58.9530   88.6429    7.5363 C.3     1  UNL1        0.1123
      9 C          59.3413   87.5970    8.5907 C.3     1  UNL1        0.1129
     10 N          59.9621   88.2052    9.7832 N.pl3   1  UNL1       -0.2974
     11 C          60.6602   89.4997    9.6657 C.3     1  UNL1        0.1377
     12 S          59.5362   90.8588   10.1483 S.3     1  UNL1       -0.1475
     13 C          61.1582   89.7125    8.2315 C.3     1  UNL1        0.1217
     14 H          60.5598   91.8252   10.1204 H       1  UNL1        0.1039
     15 C          59.8770   92.1359    3.8727 C.ar    1  UNL1        0.0699
     16 C          61.0928   91.5521    4.2696 C.ar    1  UNL1        0.0190
     17 C          61.1461   90.7173    5.3892 C.ar    1  UNL1        0.0160
     18 C          59.9859   90.4487    6.1301 C.ar    1  UNL1        0.0481
     19 C          58.7702   91.0243    5.7339 C.ar    1  UNL1        0.0160
     20 C          58.7152   91.8572    4.6130 C.ar    1  UNL1        0.0190
     21 N          59.6832   93.7569    0.6327 N.ar    1  UNL1       -0.2024
     22 N          59.8034   94.8160    1.4205 N.ar    1  UNL1       -0.1442
     23 C          59.8794   94.3433    2.6837 C.ar    1  UNL1        0.2073
     24 N          59.8132   92.9924    2.7158 N.ar    1  UNL1       -0.2398
     25 C          59.7020   92.6621    1.4138 C.ar    1  UNL1        0.3522
     26 O          59.6634   91.4801    0.9768 O.2     1  UNL1       -0.2444
     27 C          59.6296   93.8102   -0.8317 C.3     1  UNL1        0.1099
     28 C          58.3773   93.0727   -1.3200 C.3     1  UNL1        0.0265
     29 C          62.1494   94.0954   -1.1758 C.3     1  UNL1        0.0021
     30 C          60.9243   93.2144   -1.4221 C.3     1  UNL1        0.0245
     31 O          60.2766   85.2696   14.6462 O.3     1  UNL1       -0.4727
     32 C          61.4952   84.8782   15.2827 C.3     1  UNL1        0.2374
     33 C          62.2697   83.8776   14.4147 C.3     1  UNL1        0.1909
     34 C          63.6904   84.2774   14.1464 C.3     1  UNL1        0.1783
     35 O          63.9813   83.7960   12.8743 O.3     1  UNL1       -0.3266
     36 C          62.7362   83.5629   12.2439 C.3     1  UNL1        0.2314
     37 O          61.6762   83.7720   13.1603 O.3     1  UNL1       -0.3254
     38 C          62.6948   82.1281   11.7104 C.ar    1  UNL1        0.0410
     39 C          61.7777   81.2039   12.2589 C.ar    1  UNL1        0.0022
     40 C          61.7021   79.8950   11.7794 C.ar    1  UNL1        0.0113
     41 C          62.5239   79.4835   10.7318 C.ar    1  UNL1        0.0585
     42 CL         62.4232   77.8385   10.1307 Cl      1  UNL1       -0.0822
     43 C          63.4160   80.3861   10.1523 C.ar    1  UNL1        0.0226
     44 C          63.5038   81.7031   10.6208 C.ar    1  UNL1        0.0591
     45 CL         64.6245   82.7749    9.7817 Cl      1  UNL1       -0.0824
     46 C          62.5602   84.5434   11.0657 C.3     1  UNL1        0.1893
     47 N          61.4934   84.1007   10.1662 N.ar    1  UNL1       -0.2313
     48 N          60.4118   83.4599   10.5701 N.ar    1  UNL1       -0.1532
     49 C          59.6550   83.2952    9.4679 C.ar    1  UNL1        0.1604
     50 C          58.3021   82.6694    9.4869 C.3     1  UNL1        0.0756
     51 N          60.2109   83.8375    8.3620 N.ar    1  UNL1       -0.2146
     52 C          61.3706   84.3285    8.8425 C.ar    1  UNL1        0.1381
     53 C          62.3729   85.0458    7.9946 C.3     1  UNL1        0.0734
@<TRIPOS>BOND
     1    29    30    1
     2    30    27    1
     3    27    28    1
     4    27    21    1
     5    21    22   ar
     6    22    23   ar
     7    23    24   ar
     8    24    15    1
     9    15    16   ar
    10    16    17   ar
    11    17    18   ar
    12    18     7    1
    13     7     8    1
    14     8     9    1
    15     9    10    1
    16    10     1    1
    17     1     2   ar
    18     2     3   ar
    19     3     4   ar
    20     4    31    1
    21    31    32    1
    22    32    33    1
    23    33    34    1
    24    34    35    1
    25    35    36    1
    26    36    46    1
    27    46    47    1
    28    47    48   ar
    29    48    49   ar
    30    49    50    1
    31    49    51   ar
    32    51    52   ar
    33    52    53    1
    34    36    38    1
    35    38    39   ar
    36    39    40   ar
    37    40    41   ar
    38    41    42    1
    39    41    43   ar
    40    43    44   ar
    41    44    45    1
    42    36    37    1
    43     4     5   ar
    44     5     6   ar
    45    10    11    1
    46    11    12    1
    47    11    13    1
    48    18    19   ar
    49    19    20   ar
    50    24    25   ar
    51    25    26    2
    52    25    21   ar
    53    20    15   ar
    54    13     7    1
    55     6     1   ar
    56    37    33    1
    57    52    47   ar
    58    44    38   ar
    59    12    14    1
@<TRIPOS>MOLECULE
*****
 53 59 0 0 0
SMALL
GASTEIGER

@<TRIPOS>ATOM
      1 C          59.4126   86.1315   10.3115 C.ar    1  UNL1        0.0487
      2 C          58.3722   85.4416   10.9655 C.ar    1  UNL1        0.0176
      3 C          57.5397   84.5659   10.2636 C.ar    1  UNL1        0.0382
      4 C          57.7195   84.3656    8.8827 C.ar    1  UNL1        0.1388
      5 C          58.7579   85.0374    8.2324 C.ar    1  UNL1        0.0382
      6 C          59.5918   85.9134    8.9317 C.ar    1  UNL1        0.0176
      7 N          62.0928   88.8679   12.2848 N.pl3   1  UNL1       -0.3034
      8 C          60.6729   89.2320   12.1879 C.3     1  UNL1        0.1123
      9 C          59.9709   88.4888   11.0428 C.3     1  UNL1        0.1129
     10 N          60.2737   87.0446   11.0415 N.pl3   1  UNL1       -0.2974
     11 C          61.5332   86.5599   11.6377 C.3     1  UNL1        0.1377
     12 S          61.2366   86.0085   13.3557 S.3     1  UNL1       -0.1475
     13 C          62.5971   87.6635   11.6152 C.3     1  UNL1        0.1217
     14 H          62.5243   85.4544   13.4872 H       1  UNL1        0.1039
     15 C          64.7231   91.2384   14.6491 C.ar    1  UNL1        0.0699
     16 C          64.5770   91.4899   13.2736 C.ar    1  UNL1        0.0190
     17 C          63.7126   90.7117   12.4987 C.ar    1  UNL1        0.0160
     18 C          62.9770   89.6710   13.0843 C.ar    1  UNL1        0.0481
     19 C          63.1156   89.4208   14.4570 C.ar    1  UNL1        0.0160
     20 C          63.9777   90.1999   15.2335 C.ar    1  UNL1        0.0190
     21 N          67.3898   93.0967   16.2610 N.ar    1  UNL1       -0.2024
     22 N          66.3937   93.3342   17.1024 N.ar    1  UNL1       -0.1442
     23 C          65.3147   92.6914   16.6049 C.ar    1  UNL1        0.2073
     24 N          65.6076   92.0406   15.4556 N.ar    1  UNL1       -0.2398
     25 C          66.9166   92.3086   15.2791 C.ar    1  UNL1        0.3522
     26 O          67.6207   91.8476   14.3403 O.2     1  UNL1       -0.2444
     27 C          68.7684   93.5589   16.4511 C.3     1  UNL1        0.1099
     28 C          68.9855   94.8482   15.6504 C.3     1  UNL1        0.0265
     29 C          70.6368   91.9765   17.1956 C.3     1  UNL1        0.0021
     30 C          69.7525   92.4445   16.0394 C.3     1  UNL1        0.0245
     31 O          56.9148   83.5026    8.1196 O.3     1  UNL1       -0.4727
     32 C          57.3073   82.2417    7.5723 C.3     1  UNL1        0.2374
     33 C          58.7855   81.9533    7.8659 C.3     1  UNL1        0.1909
     34 C          59.2586   80.6242    7.3565 C.3     1  UNL1        0.1783
     35 O          60.2194   80.1947    8.2658 O.3     1  UNL1       -0.3266
     36 C          60.0046   80.9377    9.4506 C.3     1  UNL1        0.2314
     37 O          59.0023   81.9167    9.2402 O.3     1  UNL1       -0.3254
     38 C          61.3136   81.6084    9.8770 C.ar    1  UNL1        0.0410
     39 C          61.3045   82.9579   10.2951 C.ar    1  UNL1        0.0022
     40 C          62.4779   83.5904   10.7092 C.ar    1  UNL1        0.0113
     41 C          63.6816   82.8884   10.7339 C.ar    1  UNL1        0.0585
     42 CL         65.1532   83.6868   11.2578 Cl      1  UNL1       -0.0822
     43 C          63.7113   81.5460   10.3556 C.ar    1  UNL1        0.0226
     44 C          62.5428   80.8961    9.9384 C.ar    1  UNL1        0.0591
     45 CL         62.6826   79.1854    9.5348 Cl      1  UNL1       -0.0824
     46 C          59.5327   79.9937   10.5760 C.3     1  UNL1        0.1893
     47 N          60.0790   80.4028   11.8711 N.ar    1  UNL1       -0.2313
     48 N          61.2491   80.0018   12.3336 N.ar    1  UNL1       -0.1532
     49 C          61.4162   80.6461   13.5049 C.ar    1  UNL1        0.1604
     50 C          62.6480   80.5311   14.3366 C.3     1  UNL1        0.0756
     51 N          60.3912   81.4756   13.8001 N.ar    1  UNL1       -0.2146
     52 C          59.5667   81.2881   12.7503 C.ar    1  UNL1        0.1381
     53 C          58.2586   81.9974   12.5962 C.3     1  UNL1        0.0734
@<TRIPOS>BOND
     1    29    30    1
     2    30    27    1
     3    27    28    1
     4    27    21    1
     5    21    22   ar
     6    22    23   ar
     7    23    24   ar
     8    24    15    1
     9    15    16   ar
    10    16    17   ar
    11    17    18   ar
    12    18     7    1
    13     7     8    1
    14     8     9    1
    15     9    10    1
    16    10     1    1
    17     1     2   ar
    18     2     3   ar
    19     3     4   ar
    20     4    31    1
    21    31    32    1
    22    32    33    1
    23    33    34    1
    24    34    35    1
    25    35    36    1
    26    36    46    1
    27    46    47    1
    28    47    48   ar
    29    48    49   ar
    30    49    50    1
    31    49    51   ar
    32    51    52   ar
    33    52    53    1
    34    36    38    1
    35    38    39   ar
    36    39    40   ar
    37    40    41   ar
    38    41    42    1
    39    41    43   ar
    40    43    44   ar
    41    44    45    1
    42    36    37    1
    43     4     5   ar
    44     5     6   ar
    45    10    11    1
    46    11    12    1
    47    11    13    1
    48    18    19   ar
    49    19    20   ar
    50    24    25   ar
    51    25    26    2
    52    25    21   ar
    53    20    15   ar
    54    13     7    1
    55     6     1   ar
    56    37    33    1
    57    52    47   ar
    58    44    38   ar
    59    12    14    1
@<TRIPOS>MOLECULE
*****
 53 59 0 0 0
SMALL
GASTEIGER

@<TRIPOS>ATOM
      1 C          59.7808   87.0518   10.4972 C.ar    1  UNL1        0.0487
      2 C          58.7957   86.0687   10.7190 C.ar    1  UNL1        0.0176
      3 C          58.8293   85.2642   11.8611 C.ar    1  UNL1        0.0382
      4 C          59.8587   85.4147   12.8081 C.ar    1  UNL1        0.1388
      5 C          60.8305   86.3969   12.5990 C.ar    1  UNL1        0.0382
      6 C          60.7992   87.2027   11.4582 C.ar    1  UNL1        0.0176
      7 N          59.8663   89.4067    6.8899 N.pl3   1  UNL1       -0.3034
      8 C          58.6772   88.5870    7.1584 C.3     1  UNL1        0.1123
      9 C          58.9852   87.4357    8.1259 C.3     1  UNL1        0.1129
     10 N          59.7469   87.8837    9.3077 N.pl3   1  UNL1       -0.2974
     11 C          60.5999   89.0841    9.2173 C.3     1  UNL1        0.1377
     12 S          59.6920   90.5414    9.8460 S.3     1  UNL1       -0.1475
     13 C          61.0390   89.3224    7.7678 C.3     1  UNL1        0.1217
     14 H          60.8295   91.3701    9.8056 H       1  UNL1        0.1039
     15 C          59.8367   92.1599    3.6423 C.ar    1  UNL1        0.0699
     16 C          61.0303   91.5266    4.0308 C.ar    1  UNL1        0.0190
     17 C          61.0387   90.6224    5.0964 C.ar    1  UNL1        0.0160
     18 C          59.8549   90.3326    5.7906 C.ar    1  UNL1        0.0481
     19 C          58.6613   90.9576    5.4023 C.ar    1  UNL1        0.0160
     20 C          58.6512   91.8601    4.3352 C.ar    1  UNL1        0.0190
     21 N          59.4529   94.0584    0.5746 N.ar    1  UNL1       -0.2024
     22 N          60.2111   94.8903    1.2744 N.ar    1  UNL1       -0.1442
     23 C          60.4271   94.2948    2.4677 C.ar    1  UNL1        0.2073
     24 N          59.8193   93.0884    2.5406 N.ar    1  UNL1       -0.2398
     25 C          59.2298   92.9711    1.3342 C.ar    1  UNL1        0.3522
     26 O          58.5875   91.9573    0.9478 O.2     1  UNL1       -0.2444
     27 C          59.0277   94.2846   -0.8105 C.3     1  UNL1        0.1099
     28 C          57.5255   94.0030   -0.9317 C.3     1  UNL1        0.0265
     29 C          61.3566   93.7346   -1.7176 C.3     1  UNL1        0.0021
     30 C          59.8643   93.4047   -1.7621 C.3     1  UNL1        0.0245
     31 O          59.9514   84.6355   13.9738 O.3     1  UNL1       -0.4727
     32 C          60.3380   83.2611   14.0452 C.3     1  UNL1        0.2374
     33 C          59.7044   82.4538   12.9044 C.3     1  UNL1        0.1909
     34 C          59.4259   81.0220   13.2544 C.3     1  UNL1        0.1783
     35 O          59.6027   80.3067   12.0748 O.3     1  UNL1       -0.3266
     36 C          60.3764   81.1303   11.2233 C.3     1  UNL1        0.2314
     37 O          60.5701   82.4026   11.8158 O.3     1  UNL1       -0.3254
     38 C          59.6662   81.2808    9.8750 C.ar    1  UNL1        0.0410
     39 C          58.5472   80.4705    9.5794 C.ar    1  UNL1        0.0022
     40 C          57.8664   80.5988    8.3675 C.ar    1  UNL1        0.0113
     41 C          58.2730   81.5487    7.4322 C.ar    1  UNL1        0.0585
     42 CL         57.4125   81.7081    5.9117 Cl      1  UNL1       -0.0822
     43 C          59.3558   82.3821    7.7133 C.ar    1  UNL1        0.0226
     44 C          60.0492   82.2670    8.9248 C.ar    1  UNL1        0.0591
     45 CL         61.3667   83.4057    9.2007 Cl      1  UNL1       -0.0824
     46 C          61.7593   80.4855   10.9948 C.3     1  UNL1        0.1893
     47 N          62.7180   80.9194   12.0125 N.ar    1  UNL1       -0.2313
     48 N          62.7092   80.4879   13.2604 N.ar    1  UNL1       -0.1532
     49 C          63.7766   81.0608   13.8499 C.ar    1  UNL1        0.1604
     50 C          64.1808   80.7886   15.2587 C.3     1  UNL1        0.0756
     51 N          64.4921   81.8348   13.0045 N.ar    1  UNL1       -0.2146
     52 C          63.7889   81.7252   11.8598 C.ar    1  UNL1        0.1381
     53 C          64.1776   82.4104   10.5880 C.3     1  UNL1        0.0734
@<TRIPOS>BOND
     1    29    30    1
     2    30    27    1
     3    27    28    1
     4    27    21    1
     5    21    22   ar
     6    22    23   ar
     7    23    24   ar
     8    24    15    1
     9    15    16   ar
    10    16    17   ar
    11    17    18   ar
    12    18     7    1
    13     7     8    1
    14     8     9    1
    15     9    10    1
    16    10     1    1
    17     1     2   ar
    18     2     3   ar
    19     3     4   ar
    20     4    31    1
    21    31    32    1
    22    32    33    1
    23    33    34    1
    24    34    35    1
    25    35    36    1
    26    36    46    1
    27    46    47    1
    28    47    48   ar
    29    48    49   ar
    30    49    50    1
    31    49    51   ar
    32    51    52   ar
    33    52    53    1
    34    36    38    1
    35    38    39   ar
    36    39    40   ar
    37    40    41   ar
    38    41    42    1
    39    41    43   ar
    40    43    44   ar
    41    44    45    1
    42    36    37    1
    43     4     5   ar
    44     5     6   ar
    45    10    11    1
    46    11    12    1
    47    11    13    1
    48    18    19   ar
    49    19    20   ar
    50    24    25   ar
    51    25    26    2
    52    25    21   ar
    53    20    15   ar
    54    13     7    1
    55     6     1   ar
    56    37    33    1
    57    52    47   ar
    58    44    38   ar
    59    12    14    1
