@<TRIPOS>MOLECULE
*****
 42 46 0 0 0
SMALL
GASTEIGER

@<TRIPOS>ATOM
      1 C           9.5357   79.3988   27.7948 C.3     1  UNL1        0.2392
      2 O           8.5383   78.4604   28.2121 O.3     1  UNL1       -0.4694
      3 C           7.7418   77.7826   27.2850 C.ar    1  UNL1        0.1723
      4 C           6.5947   77.0992   27.6942 C.ar    1  UNL1        0.0398
      5 C           5.7925   76.4543   26.7472 C.ar    1  UNL1        0.0026
      6 C           6.1404   76.4785   25.3830 C.ar    1  UNL1        0.0233
      7 C           7.2997   77.1664   24.9819 C.ar    1  UNL1        0.0393
      8 C           8.1053   77.7976   25.9337 C.ar    1  UNL1        0.1725
      9 O           9.2799   78.4516   25.5526 O.3     1  UNL1       -0.4679
     10 C          10.2498   78.8667   26.5205 C.3     1  UNL1        0.2305
     11 C           5.2555   75.8161   24.3539 C.3     1  UNL1        0.2223
     12 O           4.2531   76.7349   23.9163 O.3     1  UNL1       -0.4715
     13 C           3.4818   76.5094   22.7702 C.ar    1  UNL1        0.1479
     14 C           2.3320   77.2627   22.5746 C.ar    1  UNL1        0.0772
     15 C           1.5131   77.0552   21.4534 C.ar    1  UNL1        0.1785
     16 C           1.8710   76.0639   20.4997 C.ar    1  UNL1        0.2064
     17 C           3.0649   75.3089   20.6885 C.ar    1  UNL1        0.1811
     18 C           3.8681   75.5438   21.8297 C.ar    1  UNL1        0.1083
     19 C           5.1507   74.8271   22.0723 C.2     1  UNL1        0.2096
     20 O           5.4992   73.8540   21.3497 O.2     1  UNL1       -0.2884
     21 C           6.0807   75.3128   23.1571 C.3     1  UNL1        0.2169
     22 O           6.9273   74.2737   23.5799 O.3     1  UNL1       -0.3739
     23 H           7.6783   74.2317   22.9317 H       1  UNL1        0.2110
     24 O           0.3487   77.8192   21.2725 O.3     1  UNL1       -0.4682
     25 C           0.1839   79.1743   21.6792 C.3     1  UNL1        0.2526
     26 O           1.0851   75.7970   19.3622 O.3     1  UNL1       -0.4654
     27 C           0.1389   74.7475   19.1895 C.3     1  UNL1        0.2528
     28 O           3.5050   74.3252   19.7780 O.3     1  UNL1       -0.4681
     29 C           4.4000   74.4946   18.6841 C.3     1  UNL1        0.2526
     30 C          11.1605   79.9031   25.9041 C.ar    1  UNL1        0.0241
     31 C          10.7516   81.2411   25.8085 C.ar    1  UNL1        0.0026
     32 C          11.6079   82.2056   25.2756 C.ar    1  UNL1        0.0398
     33 C          12.8981   81.8504   24.8393 C.ar    1  UNL1        0.1724
     34 C          13.3215   80.5164   24.9422 C.ar    1  UNL1        0.1722
     35 C          12.4473   79.5467   25.4707 C.ar    1  UNL1        0.0393
     36 O          13.7889   82.7937   24.3028 O.3     1  UNL1       -0.4684
     37 C          13.5345   84.1927   24.2296 C.3     1  UNL1        0.2526
     38 O          14.6195   80.1944   24.5146 O.3     1  UNL1       -0.4684
     39 C          15.1901   78.8914   24.5789 C.3     1  UNL1        0.2526
     40 C          10.5060   79.6410   28.9594 C.3     1  UNL1        0.1897
     41 C           9.5246   80.1492   30.9820 C.3     1  UNL1        0.1743
     42 O           9.9692   79.1025   30.1500 O.3     1  UNL1       -0.3471
@<TRIPOS>BOND
     1    41    42    1
     2    42    40    1
     3    40     1    1
     4     1     2    1
     5     2     3    1
     6     3     4   ar
     7     4     5   ar
     8     5     6   ar
     9     6    11    1
    10    11    12    1
    11    12    13    1
    12    13    14   ar
    13    14    15   ar
    14    15    24    1
    15    24    25    1
    16    15    16   ar
    17    16    26    1
    18    26    27    1
    19    16    17   ar
    20    17    28    1
    21    28    29    1
    22    17    18   ar
    23    18    19    1
    24    19    20    2
    25    19    21    1
    26    21    22    1
    27     6     7   ar
    28     7     8   ar
    29     8     9    1
    30     9    10    1
    31    10    30    1
    32    30    31   ar
    33    31    32   ar
    34    32    33   ar
    35    33    36    1
    36    36    37    1
    37    33    34   ar
    38    34    38    1
    39    38    39    1
    40    34    35   ar
    41    10     1    1
    42    35    30   ar
    43     8     3   ar
    44    21    11    1
    45    18    13   ar
    46    22    23    1
@<TRIPOS>MOLECULE
*****
 42 46 0 0 0
SMALL
GASTEIGER

@<TRIPOS>ATOM
      1 C          10.0663   75.8339   28.0591 C.3     1  UNL1        0.2392
      2 O          10.2675   75.0448   26.8815 O.3     1  UNL1       -0.4694
      3 C           9.8000   75.4656   25.6334 C.ar    1  UNL1        0.1723
      4 C           9.7413   74.5778   24.5570 C.ar    1  UNL1        0.0398
      5 C           9.2397   75.0088   23.3246 C.ar    1  UNL1        0.0026
      6 C           8.8041   76.3373   23.1574 C.ar    1  UNL1        0.0233
      7 C           8.8710   77.2243   24.2468 C.ar    1  UNL1        0.0393
      8 C           9.3857   76.7925   25.4723 C.ar    1  UNL1        0.1725
      9 O           9.4930   77.6743   26.5509 O.3     1  UNL1       -0.4679
     10 C          10.2550   77.3383   27.7156 C.3     1  UNL1        0.2305
     11 C           8.2261   76.7949   21.8392 C.3     1  UNL1        0.2223
     12 O           7.0550   76.0352   21.5362 O.3     1  UNL1       -0.4715
     13 C           6.1489   76.4232   20.5423 C.ar    1  UNL1        0.1479
     14 C           5.2174   75.5009   20.0846 C.ar    1  UNL1        0.0772
     15 C           4.3051   75.8359   19.0716 C.ar    1  UNL1        0.1785
     16 C           4.3306   77.1419   18.5113 C.ar    1  UNL1        0.2064
     17 C           5.2704   78.0955   18.9996 C.ar    1  UNL1        0.1811
     18 C           6.1758   77.7250   20.0222 C.ar    1  UNL1        0.1083
     19 C           7.1553   78.6780   20.6137 C.2     1  UNL1        0.2096
     20 O           7.3351   79.8212   20.1126 O.2     1  UNL1       -0.2884
     21 C           7.8971   78.2973   21.8717 C.3     1  UNL1        0.2169
     22 O           9.0900   79.0325   21.9800 O.3     1  UNL1       -0.3739
     23 H           8.8509   79.9146   22.3680 H       1  UNL1        0.2110
     24 O           3.3734   74.8905   18.6129 O.3     1  UNL1       -0.4682
     25 C           2.1761   74.5214   19.2906 C.3     1  UNL1        0.2526
     26 O           3.4528   77.5358   17.4831 O.3     1  UNL1       -0.4654
     27 C           2.0504   77.7610   17.5798 C.3     1  UNL1        0.2528
     28 O           5.3453   79.4188   18.5164 O.3     1  UNL1       -0.4681
     29 C           5.3595   79.8467   17.1587 C.3     1  UNL1        0.2526
     30 C           9.8457   78.2383   28.8585 C.ar    1  UNL1        0.0241
     31 C          10.4098   79.5150   28.9941 C.ar    1  UNL1        0.0026
     32 C          10.0029   80.3615   30.0263 C.ar    1  UNL1        0.0398
     33 C           9.0117   79.9500   30.9368 C.ar    1  UNL1        0.1724
     34 C           8.4319   78.6790   30.8022 C.ar    1  UNL1        0.1722
     35 C           8.8559   77.8261   29.7646 C.ar    1  UNL1        0.0393
     36 O           8.5733   80.7757   31.9842 O.3     1  UNL1       -0.4684
     37 C           9.0112   82.1144   32.1932 C.3     1  UNL1        0.2526
     38 O           7.4337   78.3019   31.7147 O.3     1  UNL1       -0.4684
     39 C           6.4274   77.3290   31.4532 C.3     1  UNL1        0.2526
     40 C          11.0317   75.3503   29.1502 C.3     1  UNL1        0.1897
     41 C           9.1470   74.1464   29.7081 C.3     1  UNL1        0.1743
     42 O          10.5561   74.1435   29.7100 O.3     1  UNL1       -0.3471
@<TRIPOS>BOND
     1    41    42    1
     2    42    40    1
     3    40     1    1
     4     1     2    1
     5     2     3    1
     6     3     4   ar
     7     4     5   ar
     8     5     6   ar
     9     6    11    1
    10    11    12    1
    11    12    13    1
    12    13    14   ar
    13    14    15   ar
    14    15    24    1
    15    24    25    1
    16    15    16   ar
    17    16    26    1
    18    26    27    1
    19    16    17   ar
    20    17    28    1
    21    28    29    1
    22    17    18   ar
    23    18    19    1
    24    19    20    2
    25    19    21    1
    26    21    22    1
    27     6     7   ar
    28     7     8   ar
    29     8     9    1
    30     9    10    1
    31    10    30    1
    32    30    31   ar
    33    31    32   ar
    34    32    33   ar
    35    33    36    1
    36    36    37    1
    37    33    34   ar
    38    34    38    1
    39    38    39    1
    40    34    35   ar
    41    10     1    1
    42    35    30   ar
    43     8     3   ar
    44    21    11    1
    45    18    13   ar
    46    22    23    1
@<TRIPOS>MOLECULE
*****
 42 46 0 0 0
SMALL
GASTEIGER

@<TRIPOS>ATOM
      1 C           7.7592   75.1691   28.4084 C.3     1  UNL1        0.2392
      2 O           7.5859   74.2935   27.2890 O.3     1  UNL1       -0.4694
      3 C           7.6469   74.7682   25.9759 C.ar    1  UNL1        0.1723
      4 C           7.1977   73.9834   24.9117 C.ar    1  UNL1        0.0398
      5 C           7.2364   74.4887   23.6081 C.ar    1  UNL1        0.0026
      6 C           7.7377   75.7806   23.3588 C.ar    1  UNL1        0.0233
      7 C           8.1911   76.5613   24.4372 C.ar    1  UNL1        0.0393
      8 C           8.1630   76.0467   25.7363 C.ar    1  UNL1        0.1725
      9 O           8.6461   76.7976   26.8111 O.3     1  UNL1       -0.4679
     10 C           8.8771   76.2022   28.0925 C.3     1  UNL1        0.2305
     11 C           7.7447   76.3434   21.9572 C.3     1  UNL1        0.2223
     12 O           6.4043   76.5890   21.5292 O.3     1  UNL1       -0.4715
     13 C           6.1098   77.3723   20.4070 C.ar    1  UNL1        0.1479
     14 C           4.8328   77.3168   19.8648 C.ar    1  UNL1        0.0772
     15 C           4.4977   78.0646   18.7249 C.ar    1  UNL1        0.1785
     16 C           5.4788   78.8974   18.1214 C.ar    1  UNL1        0.2064
     17 C           6.7818   78.9729   18.6939 C.ar    1  UNL1        0.1811
     18 C           7.0862   78.2061   19.8437 C.ar    1  UNL1        0.1083
     19 C           8.4096   78.2663   20.5238 C.2     1  UNL1        0.2096
     20 O           9.3798   78.8838   20.0062 O.2     1  UNL1       -0.2884
     21 C           8.5761   77.6358   21.8847 C.3     1  UNL1        0.2169
     22 O           9.9276   77.3334   22.1241 O.3     1  UNL1       -0.3739
     23 H          10.3587   78.1701   22.4405 H       1  UNL1        0.2110
     24 O           3.2043   77.9928   18.1825 O.3     1  UNL1       -0.4682
     25 C           2.4371   76.8007   18.0432 C.3     1  UNL1        0.2526
     26 O           5.2107   79.6608   16.9690 O.3     1  UNL1       -0.4654
     27 C           4.4483   80.8599   16.8818 C.3     1  UNL1        0.2528
     28 O           7.8046   79.7929   18.1727 O.3     1  UNL1       -0.4681
     29 C           8.8464   79.4169   17.2784 C.3     1  UNL1        0.2526
     30 C           8.9615   77.2872   29.1409 C.ar    1  UNL1        0.0241
     31 C          10.0911   78.1148   29.2172 C.ar    1  UNL1        0.0026
     32 C          10.1522   79.1423   30.1594 C.ar    1  UNL1        0.0398
     33 C           9.0755   79.3700   31.0367 C.ar    1  UNL1        0.1724
     34 C           7.9353   78.5554   30.9602 C.ar    1  UNL1        0.1722
     35 C           7.8858   77.5131   30.0141 C.ar    1  UNL1        0.0393
     36 O           9.0987   80.3970   31.9938 O.3     1  UNL1       -0.4684
     37 C           9.0678   81.7869   31.6861 C.3     1  UNL1        0.2526
     38 O           6.8699   78.8163   31.8367 O.3     1  UNL1       -0.4684
     39 C           5.6396   78.0995   31.8470 C.3     1  UNL1        0.2526
     40 C           8.0672   74.3260   29.6537 C.3     1  UNL1        0.1897
     41 C           5.7950   74.4998   29.9998 C.3     1  UNL1        0.1743
     42 O           7.0583   74.5182   30.6238 O.3     1  UNL1       -0.3471
@<TRIPOS>BOND
     1    41    42    1
     2    42    40    1
     3    40     1    1
     4     1     2    1
     5     2     3    1
     6     3     4   ar
     7     4     5   ar
     8     5     6   ar
     9     6    11    1
    10    11    12    1
    11    12    13    1
    12    13    14   ar
    13    14    15   ar
    14    15    24    1
    15    24    25    1
    16    15    16   ar
    17    16    26    1
    18    26    27    1
    19    16    17   ar
    20    17    28    1
    21    28    29    1
    22    17    18   ar
    23    18    19    1
    24    19    20    2
    25    19    21    1
    26    21    22    1
    27     6     7   ar
    28     7     8   ar
    29     8     9    1
    30     9    10    1
    31    10    30    1
    32    30    31   ar
    33    31    32   ar
    34    32    33   ar
    35    33    36    1
    36    36    37    1
    37    33    34   ar
    38    34    38    1
    39    38    39    1
    40    34    35   ar
    41    10     1    1
    42    35    30   ar
    43     8     3   ar
    44    21    11    1
    45    18    13   ar
    46    22    23    1
@<TRIPOS>MOLECULE
*****
 42 46 0 0 0
SMALL
GASTEIGER

@<TRIPOS>ATOM
      1 C           7.3792   74.7374   29.0628 C.3     1  UNL1        0.2392
      2 O           7.0740   73.7038   28.1204 O.3     1  UNL1       -0.4694
      3 C           6.9724   73.9714   26.7524 C.ar    1  UNL1        0.1723
      4 C           6.3996   73.0399   25.8837 C.ar    1  UNL1        0.0398
      5 C           6.2769   73.3395   24.5230 C.ar    1  UNL1        0.0026
      6 C           6.7388   74.5706   24.0195 C.ar    1  UNL1        0.0233
      7 C           7.3175   75.5001   24.9023 C.ar    1  UNL1        0.0393
      8 C           7.4502   75.1905   26.2586 C.ar    1  UNL1        0.1725
      9 O           8.0580   76.0895   27.1389 O.3     1  UNL1       -0.4679
     10 C           8.4461   75.6934   28.4590 C.3     1  UNL1        0.2305
     11 C           6.5724   74.9125   22.5578 C.3     1  UNL1        0.2223
     12 O           5.2144   74.7066   22.1657 O.3     1  UNL1       -0.4715
     13 C           4.6982   75.2110   20.9663 C.ar    1  UNL1        0.1479
     14 C           3.4865   74.7215   20.4973 C.ar    1  UNL1        0.0772
     15 C           2.9414   75.1784   19.2869 C.ar    1  UNL1        0.1785
     16 C           3.6371   76.1629   18.5340 C.ar    1  UNL1        0.2064
     17 C           4.8683   76.6830   19.0291 C.ar    1  UNL1        0.1811
     18 C           5.3895   76.2008   20.2532 C.ar    1  UNL1        0.1083
     19 C           6.6455   76.7270   20.8558 C.2     1  UNL1        0.2096
     20 O           7.3932   77.5161   20.2166 O.2     1  UNL1       -0.2884
     21 C           6.9971   76.3644   22.2779 C.3     1  UNL1        0.2169
     22 O           8.3805   76.4934   22.4900 O.3     1  UNL1       -0.3739
     23 H           8.5558   77.4534   22.6738 H       1  UNL1        0.2110
     24 O           1.7187   74.6687   18.8207 O.3     1  UNL1       -0.4682
     25 C           0.4313   75.1384   19.2095 C.3     1  UNL1        0.2526
     26 O           3.1517   76.6518   17.3059 O.3     1  UNL1       -0.4654
     27 C           2.2543   77.7374   17.0992 C.3     1  UNL1        0.2528
     28 O           5.6083   77.6787   18.3573 O.3     1  UNL1       -0.4681
     29 C           5.3745   79.0829   18.3601 C.3     1  UNL1        0.2526
     30 C           8.6536   76.9245   29.3104 C.ar    1  UNL1        0.0241
     31 C           9.8424   77.6623   29.2144 C.ar    1  UNL1        0.0026
     32 C          10.0179   78.8214   29.9713 C.ar    1  UNL1        0.0398
     33 C           8.9990   79.2725   30.8312 C.ar    1  UNL1        0.1724
     34 C           7.8006   78.5482   30.9251 C.ar    1  UNL1        0.1722
     35 C           7.6354   77.3731   30.1664 C.ar    1  UNL1        0.0393
     36 O           9.1375   80.4364   31.6040 O.3     1  UNL1       -0.4684
     37 C           9.1539   81.7584   31.0752 C.3     1  UNL1        0.2526
     38 O           6.7954   79.0309   31.7782 O.3     1  UNL1       -0.4684
     39 C           5.4441   78.5821   31.7677 C.3     1  UNL1        0.2526
     40 C           7.8403   74.0900   30.3761 C.3     1  UNL1        0.1897
     41 C           9.4631   72.7904   31.3712 C.3     1  UNL1        0.1743
     42 O           9.0738   73.4305   30.1777 O.3     1  UNL1       -0.3471
@<TRIPOS>BOND
     1    41    42    1
     2    42    40    1
     3    40     1    1
     4     1     2    1
     5     2     3    1
     6     3     4   ar
     7     4     5   ar
     8     5     6   ar
     9     6    11    1
    10    11    12    1
    11    12    13    1
    12    13    14   ar
    13    14    15   ar
    14    15    24    1
    15    24    25    1
    16    15    16   ar
    17    16    26    1
    18    26    27    1
    19    16    17   ar
    20    17    28    1
    21    28    29    1
    22    17    18   ar
    23    18    19    1
    24    19    20    2
    25    19    21    1
    26    21    22    1
    27     6     7   ar
    28     7     8   ar
    29     8     9    1
    30     9    10    1
    31    10    30    1
    32    30    31   ar
    33    31    32   ar
    34    32    33   ar
    35    33    36    1
    36    36    37    1
    37    33    34   ar
    38    34    38    1
    39    38    39    1
    40    34    35   ar
    41    10     1    1
    42    35    30   ar
    43     8     3   ar
    44    21    11    1
    45    18    13   ar
    46    22    23    1
@<TRIPOS>MOLECULE
*****
 42 46 0 0 0
SMALL
GASTEIGER

@<TRIPOS>ATOM
      1 C          11.0766   76.6372   26.8741 C.3     1  UNL1        0.2392
      2 O          11.1767   75.9071   25.6466 O.3     1  UNL1       -0.4694
      3 C          10.0580   75.6805   24.8399 C.ar    1  UNL1        0.1723
      4 C          10.0999   74.7382   23.8101 C.ar    1  UNL1        0.0398
      5 C           8.9601   74.5021   23.0347 C.ar    1  UNL1        0.0026
      6 C           7.7721   75.2180   23.2770 C.ar    1  UNL1        0.0233
      7 C           7.7417   76.1675   24.3141 C.ar    1  UNL1        0.0393
      8 C           8.8873   76.4095   25.0772 C.ar    1  UNL1        0.1725
      9 O           8.8812   77.3773   26.0850 O.3     1  UNL1       -0.4679
     10 C          10.0967   77.8301   26.6912 C.3     1  UNL1        0.2305
     11 C           6.5287   74.9376   22.4667 C.3     1  UNL1        0.2223
     12 O           5.4866   75.8333   22.8566 O.3     1  UNL1       -0.4715
     13 C           4.3275   76.0094   22.0917 C.ar    1  UNL1        0.1479
     14 C           3.2319   76.6394   22.6666 C.ar    1  UNL1        0.0772
     15 C           2.0393   76.8161   21.9474 C.ar    1  UNL1        0.1785
     16 C           1.9549   76.3497   20.6074 C.ar    1  UNL1        0.2064
     17 C           3.0886   75.7259   20.0100 C.ar    1  UNL1        0.1811
     18 C           4.2758   75.5641   20.7632 C.ar    1  UNL1        0.1083
     19 C           5.5138   74.9631   20.1943 C.2     1  UNL1        0.2096
     20 O           5.5094   74.4177   19.0572 O.2     1  UNL1       -0.2884
     21 C           6.8104   75.0660   20.9598 C.3     1  UNL1        0.2169
     22 O           7.6965   74.0495   20.5639 O.3     1  UNL1       -0.3739
     23 H           8.1424   74.3627   19.7339 H       1  UNL1        0.2110
     24 O           0.9363   77.4481   22.5442 O.3     1  UNL1       -0.4682
     25 C           0.6110   78.8288   22.4137 C.3     1  UNL1        0.2526
     26 O           0.7834   76.4831   19.8376 O.3     1  UNL1       -0.4654
     27 C          -0.0402   75.4410   19.3254 C.3     1  UNL1        0.2528
     28 O           3.0970   75.2582   18.6791 O.3     1  UNL1       -0.4681
     29 C           3.2376   76.0284   17.4902 C.3     1  UNL1        0.2526
     30 C           9.7789   78.5113   28.0022 C.ar    1  UNL1        0.0241
     31 C          10.1597   79.8430   28.2213 C.ar    1  UNL1        0.0026
     32 C           9.8314   80.4846   29.4163 C.ar    1  UNL1        0.0398
     33 C           9.1025   79.8076   30.4120 C.ar    1  UNL1        0.1724
     34 C           8.7058   78.4787   30.1973 C.ar    1  UNL1        0.1722
     35 C           9.0506   77.8344   28.9933 C.ar    1  UNL1        0.0393
     36 O           8.7496   80.4218   31.6242 O.3     1  UNL1       -0.4684
     37 C           9.0546   81.7705   31.9638 C.3     1  UNL1        0.2526
     38 O           7.9653   77.8340   31.2010 O.3     1  UNL1       -0.4684
     39 C           6.6104   77.4184   31.0630 C.3     1  UNL1        0.2526
     40 C          12.4817   77.0854   27.2997 C.3     1  UNL1        0.1897
     41 C          13.9224   77.8319   25.6627 C.3     1  UNL1        0.1743
     42 O          12.8799   78.2042   26.5346 O.3     1  UNL1       -0.3471
@<TRIPOS>BOND
     1    41    42    1
     2    42    40    1
     3    40     1    1
     4     1     2    1
     5     2     3    1
     6     3     4   ar
     7     4     5   ar
     8     5     6   ar
     9     6    11    1
    10    11    12    1
    11    12    13    1
    12    13    14   ar
    13    14    15   ar
    14    15    24    1
    15    24    25    1
    16    15    16   ar
    17    16    26    1
    18    26    27    1
    19    16    17   ar
    20    17    28    1
    21    28    29    1
    22    17    18   ar
    23    18    19    1
    24    19    20    2
    25    19    21    1
    26    21    22    1
    27     6     7   ar
    28     7     8   ar
    29     8     9    1
    30     9    10    1
    31    10    30    1
    32    30    31   ar
    33    31    32   ar
    34    32    33   ar
    35    33    36    1
    36    36    37    1
    37    33    34   ar
    38    34    38    1
    39    38    39    1
    40    34    35   ar
    41    10     1    1
    42    35    30   ar
    43     8     3   ar
    44    21    11    1
    45    18    13   ar
    46    22    23    1
@<TRIPOS>MOLECULE
*****
 42 46 0 0 0
SMALL
GASTEIGER

@<TRIPOS>ATOM
      1 C          10.9164   76.9304   23.6944 C.3     1  UNL1        0.2392
      2 O          12.0647   77.1591   24.5183 O.3     1  UNL1       -0.4694
      3 C          12.5800   78.4440   24.7102 C.ar    1  UNL1        0.1723
      4 C          13.8473   78.6289   25.2669 C.ar    1  UNL1        0.0398
      5 C          14.3592   79.9214   25.4207 C.ar    1  UNL1        0.0026
      6 C          13.5996   81.0404   25.0292 C.ar    1  UNL1        0.0233
      7 C          12.3228   80.8433   24.4732 C.ar    1  UNL1        0.0393
      8 C          11.8103   79.5506   24.3341 C.ar    1  UNL1        0.1725
      9 O          10.5281   79.3437   23.8188 O.3     1  UNL1       -0.4679
     10 C           9.8821   78.0696   23.9160 C.3     1  UNL1        0.2305
     11 C          14.1653   82.4348   25.1583 C.3     1  UNL1        0.2223
     12 O          13.8378   83.1979   23.9961 O.3     1  UNL1       -0.4715
     13 C          13.9691   84.5909   23.9552 C.ar    1  UNL1        0.1479
     14 C          13.9391   85.2332   22.7246 C.ar    1  UNL1        0.0772
     15 C          14.0921   86.6255   22.6313 C.ar    1  UNL1        0.1785
     16 C          14.2728   87.3902   23.8157 C.ar    1  UNL1        0.2064
     17 C          14.2780   86.7327   25.0801 C.ar    1  UNL1        0.1811
     18 C          14.1206   85.3275   25.1385 C.ar    1  UNL1        0.1083
     19 C          14.0710   84.5762   26.4233 C.2     1  UNL1        0.2096
     20 O          14.3334   85.1427   27.5190 O.2     1  UNL1       -0.2884
     21 C          13.6357   83.1312   26.4237 C.3     1  UNL1        0.2169
     22 O          14.1307   82.4694   27.5606 O.3     1  UNL1       -0.3739
     23 H          13.5089   82.6743   28.3071 H       1  UNL1        0.2110
     24 O          14.0675   87.2610   21.3792 O.3     1  UNL1       -0.4682
     25 C          12.9062   87.7988   20.7537 C.3     1  UNL1        0.2526
     26 O          14.4464   88.7874   23.7890 O.3     1  UNL1       -0.4654
     27 C          15.6587   89.5062   23.5888 C.3     1  UNL1        0.2528
     28 O          14.4261   87.4194   26.3036 O.3     1  UNL1       -0.4681
     29 C          13.5899   88.4444   26.8294 C.3     1  UNL1        0.2526
     30 C           8.7456   78.0073   22.9219 C.ar    1  UNL1        0.0241
     31 C           7.6658   77.1375   23.1312 C.ar    1  UNL1        0.0026
     32 C           6.5973   77.1085   22.2341 C.ar    1  UNL1        0.0398
     33 C           6.5832   77.9613   21.1145 C.ar    1  UNL1        0.1724
     34 C           7.6531   78.8445   20.9028 C.ar    1  UNL1        0.1722
     35 C           8.7332   78.8598   21.8066 C.ar    1  UNL1        0.0393
     36 O           5.5235   77.9641   20.1935 O.3     1  UNL1       -0.4684
     37 C           4.1592   78.1873   20.5345 C.3     1  UNL1        0.2526
     38 O           7.6041   79.6952   19.7869 O.3     1  UNL1       -0.4684
     39 C           8.1425   79.3790   18.5072 C.3     1  UNL1        0.2526
     40 C          10.3454   75.5420   24.0149 C.3     1  UNL1        0.1897
     41 C          11.0379   75.0140   21.8808 C.3     1  UNL1        0.1743
     42 O           9.9933   74.8807   22.8172 O.3     1  UNL1       -0.3471
@<TRIPOS>BOND
     1    41    42    1
     2    42    40    1
     3    40     1    1
     4     1     2    1
     5     2     3    1
     6     3     4   ar
     7     4     5   ar
     8     5     6   ar
     9     6    11    1
    10    11    12    1
    11    12    13    1
    12    13    14   ar
    13    14    15   ar
    14    15    24    1
    15    24    25    1
    16    15    16   ar
    17    16    26    1
    18    26    27    1
    19    16    17   ar
    20    17    28    1
    21    28    29    1
    22    17    18   ar
    23    18    19    1
    24    19    20    2
    25    19    21    1
    26    21    22    1
    27     6     7   ar
    28     7     8   ar
    29     8     9    1
    30     9    10    1
    31    10    30    1
    32    30    31   ar
    33    31    32   ar
    34    32    33   ar
    35    33    36    1
    36    36    37    1
    37    33    34   ar
    38    34    38    1
    39    38    39    1
    40    34    35   ar
    41    10     1    1
    42    35    30   ar
    43     8     3   ar
    44    21    11    1
    45    18    13   ar
    46    22    23    1
@<TRIPOS>MOLECULE
*****
 42 46 0 0 0
SMALL
GASTEIGER

@<TRIPOS>ATOM
      1 C           6.9525   78.9974   19.7593 C.3     1  UNL1        0.2392
      2 O           8.1599   79.3269   20.4546 O.3     1  UNL1       -0.4694
      3 C           8.3656   78.9400   21.7818 C.ar    1  UNL1        0.1723
      4 C           9.3982   79.5005   22.5366 C.ar    1  UNL1        0.0398
      5 C           9.5678   79.1248   23.8731 C.ar    1  UNL1        0.0026
      6 C           8.7111   78.1743   24.4607 C.ar    1  UNL1        0.0233
      7 C           7.6767   77.6131   23.6906 C.ar    1  UNL1        0.0393
      8 C           7.5199   77.9817   22.3517 C.ar    1  UNL1        0.1725
      9 O           6.5203   77.4031   21.5653 O.3     1  UNL1       -0.4679
     10 C           6.5084   77.5576   20.1419 C.3     1  UNL1        0.2305
     11 C           8.8677   77.7955   25.9143 C.3     1  UNL1        0.2223
     12 O           7.5948   77.8299   26.5617 O.3     1  UNL1       -0.4715
     13 C           7.3794   77.2508   27.8177 C.ar    1  UNL1        0.1479
     14 C           6.2307   77.5834   28.5232 C.ar    1  UNL1        0.0772
     15 C           5.9836   77.0478   29.7972 C.ar    1  UNL1        0.1785
     16 C           6.9202   76.1452   30.3701 C.ar    1  UNL1        0.2064
     17 C           8.0863   75.7849   29.6343 C.ar    1  UNL1        0.1811
     18 C           8.3046   76.3429   28.3522 C.ar    1  UNL1        0.1083
     19 C           9.4752   75.9810   27.5059 C.2     1  UNL1        0.2096
     20 O          10.4180   75.2801   27.9645 O.2     1  UNL1       -0.2884
     21 C           9.5044   76.4024   26.0570 C.3     1  UNL1        0.2169
     22 O          10.8273   76.4450   25.5844 O.3     1  UNL1       -0.3739
     23 H          11.0751   75.5159   25.3365 H       1  UNL1        0.2110
     24 O           4.8213   77.3991   30.5027 O.3     1  UNL1       -0.4682
     25 C           3.5147   76.8994   30.2341 C.3     1  UNL1        0.2526
     26 O           6.7383   75.5849   31.6491 O.3     1  UNL1       -0.4654
     27 C           6.1251   76.1915   32.7817 C.3     1  UNL1        0.2528
     28 O           9.0519   74.8777   30.1188 O.3     1  UNL1       -0.4681
     29 C           8.9254   73.4661   30.2524 C.3     1  UNL1        0.2526
     30 C           5.1313   77.2279   19.6140 C.ar    1  UNL1        0.0241
     31 C           4.9756   76.6619   18.3405 C.ar    1  UNL1        0.0026
     32 C           3.7073   76.3207   17.8689 C.ar    1  UNL1        0.0398
     33 C           2.5691   76.5282   18.6704 C.ar    1  UNL1        0.1724
     34 C           2.7155   77.0825   19.9514 C.ar    1  UNL1        0.1722
     35 C           3.9977   77.4346   20.4159 C.ar    1  UNL1        0.0393
     36 O           1.2781   76.1928   18.2321 O.3     1  UNL1       -0.4684
     37 C           0.5269   75.0822   18.7112 C.3     1  UNL1        0.2526
     38 O           1.5645   77.2625   20.7350 O.3     1  UNL1       -0.4684
     39 C           1.5097   78.0522   21.9186 C.3     1  UNL1        0.2526
     40 C           7.1882   79.1630   18.2515 C.3     1  UNL1        0.1897
     41 C           9.3057   79.2750   17.3479 C.3     1  UNL1        0.1743
     42 O           8.3066   79.9974   18.0304 O.3     1  UNL1       -0.3471
@<TRIPOS>BOND
     1    41    42    1
     2    42    40    1
     3    40     1    1
     4     1     2    1
     5     2     3    1
     6     3     4   ar
     7     4     5   ar
     8     5     6   ar
     9     6    11    1
    10    11    12    1
    11    12    13    1
    12    13    14   ar
    13    14    15   ar
    14    15    24    1
    15    24    25    1
    16    15    16   ar
    17    16    26    1
    18    26    27    1
    19    16    17   ar
    20    17    28    1
    21    28    29    1
    22    17    18   ar
    23    18    19    1
    24    19    20    2
    25    19    21    1
    26    21    22    1
    27     6     7   ar
    28     7     8   ar
    29     8     9    1
    30     9    10    1
    31    10    30    1
    32    30    31   ar
    33    31    32   ar
    34    32    33   ar
    35    33    36    1
    36    36    37    1
    37    33    34   ar
    38    34    38    1
    39    38    39    1
    40    34    35   ar
    41    10     1    1
    42    35    30   ar
    43     8     3   ar
    44    21    11    1
    45    18    13   ar
    46    22    23    1
@<TRIPOS>MOLECULE
*****
 42 46 0 0 0
SMALL
GASTEIGER

@<TRIPOS>ATOM
      1 C           6.7446   78.9609   19.9666 C.3     1  UNL1        0.2392
      2 O           7.9728   79.3257   20.6054 O.3     1  UNL1       -0.4694
      3 C           8.2824   78.8854   21.8953 C.ar    1  UNL1        0.1723
      4 C           9.3273   79.4672   22.6164 C.ar    1  UNL1        0.0398
      5 C           9.6008   79.0353   23.9183 C.ar    1  UNL1        0.0026
      6 C           8.8370   78.0075   24.5038 C.ar    1  UNL1        0.0233
      7 C           7.7894   77.4257   23.7675 C.ar    1  UNL1        0.0393
      8 C           7.5288   77.8514   22.4621 C.ar    1  UNL1        0.1725
      9 O           6.5159   77.2550   21.7066 O.3     1  UNL1       -0.4679
     10 C           6.4064   77.4800   20.2968 C.3     1  UNL1        0.2305
     11 C           9.1050   77.5660   25.9231 C.3     1  UNL1        0.2223
     12 O           8.0761   76.6732   26.3531 O.3     1  UNL1       -0.4715
     13 C           8.2059   75.8799   27.4990 C.ar    1  UNL1        0.1479
     14 C           7.0734   75.2805   28.0335 C.ar    1  UNL1        0.0772
     15 C           7.1497   74.4969   29.1958 C.ar    1  UNL1        0.1785
     16 C           8.4073   74.3079   29.8306 C.ar    1  UNL1        0.2064
     17 C           9.5732   74.9028   29.2665 C.ar    1  UNL1        0.1811
     18 C           9.4610   75.6865   28.0936 C.ar    1  UNL1        0.1083
     19 C          10.6386   76.3023   27.4217 C.2     1  UNL1        0.2096
     20 O          11.7773   76.2896   27.9634 O.2     1  UNL1       -0.2884
     21 C          10.4831   76.8927   26.0415 C.3     1  UNL1        0.2169
     22 O          11.4883   77.8445   25.7983 O.3     1  UNL1       -0.3739
     23 H          12.2963   77.3438   25.5113 H       1  UNL1        0.2110
     24 O           5.9946   73.9030   29.7299 O.3     1  UNL1       -0.4682
     25 C           4.7342   74.5489   29.8819 C.3     1  UNL1        0.2526
     26 O           8.5488   73.5459   31.0062 O.3     1  UNL1       -0.4654
     27 C           9.5985   72.6408   31.3312 C.3     1  UNL1        0.2528
     28 O          10.8616   74.7441   29.8188 O.3     1  UNL1       -0.4681
     29 C          11.9679   74.0493   29.2533 C.3     1  UNL1        0.2526
     30 C           5.0196   77.0966   19.8349 C.ar    1  UNL1        0.0241
     31 C           4.8447   76.3233   18.6781 C.ar    1  UNL1        0.0026
     32 C           3.5667   75.9358   18.2735 C.ar    1  UNL1        0.0398
     33 C           2.4375   76.3048   19.0282 C.ar    1  UNL1        0.1724
     34 C           2.6027   77.0681   20.1943 C.ar    1  UNL1        0.1722
     35 C           3.8949   77.4649   20.5900 C.ar    1  UNL1        0.0393
     36 O           1.1370   75.9292   18.6554 O.3     1  UNL1       -0.4684
     37 C           0.5048   74.7150   19.0468 C.3     1  UNL1        0.2526
     38 O           1.4600   77.4074   20.9361 O.3     1  UNL1       -0.4684
     39 C           1.4804   78.1206   22.1683 C.3     1  UNL1        0.2526
     40 C           6.8760   79.2159   18.4585 C.3     1  UNL1        0.1897
     41 C           8.9863   79.2686   17.5331 C.3     1  UNL1        0.1743
     42 O           8.0063   80.0249   18.2062 O.3     1  UNL1       -0.3471
@<TRIPOS>BOND
     1    41    42    1
     2    42    40    1
     3    40     1    1
     4     1     2    1
     5     2     3    1
     6     3     4   ar
     7     4     5   ar
     8     5     6   ar
     9     6    11    1
    10    11    12    1
    11    12    13    1
    12    13    14   ar
    13    14    15   ar
    14    15    24    1
    15    24    25    1
    16    15    16   ar
    17    16    26    1
    18    26    27    1
    19    16    17   ar
    20    17    28    1
    21    28    29    1
    22    17    18   ar
    23    18    19    1
    24    19    20    2
    25    19    21    1
    26    21    22    1
    27     6     7   ar
    28     7     8   ar
    29     8     9    1
    30     9    10    1
    31    10    30    1
    32    30    31   ar
    33    31    32   ar
    34    32    33   ar
    35    33    36    1
    36    36    37    1
    37    33    34   ar
    38    34    38    1
    39    38    39    1
    40    34    35   ar
    41    10     1    1
    42    35    30   ar
    43     8     3   ar
    44    21    11    1
    45    18    13   ar
    46    22    23    1
@<TRIPOS>MOLECULE
*****
 42 46 0 0 0
SMALL
GASTEIGER

@<TRIPOS>ATOM
      1 C          13.9206   79.5324   25.3414 C.3     1  UNL1        0.2392
      2 O          13.4942   78.2662   24.8270 O.3     1  UNL1       -0.4694
      3 C          12.1619   78.0342   24.4737 C.ar    1  UNL1        0.1723
      4 C          11.6985   76.7358   24.2510 C.ar    1  UNL1        0.0398
      5 C          10.3541   76.5211   23.9304 C.ar    1  UNL1        0.0026
      6 C           9.4656   77.6076   23.8179 C.ar    1  UNL1        0.0233
      7 C           9.9435   78.9116   24.0405 C.ar    1  UNL1        0.0393
      8 C          11.2906   79.1220   24.3472 C.ar    1  UNL1        0.1725
      9 O          11.7859   80.4153   24.5328 O.3     1  UNL1       -0.4679
     10 C          13.1932   80.6753   24.5789 C.3     1  UNL1        0.2305
     11 C           8.0053   77.3757   23.5100 C.3     1  UNL1        0.2223
     12 O           7.6777   77.9668   22.2516 O.3     1  UNL1       -0.4715
     13 C           6.4911   77.6681   21.5718 C.ar    1  UNL1        0.1479
     14 C           6.0867   78.4929   20.5307 C.ar    1  UNL1        0.0772
     15 C           4.8915   78.2482   19.8363 C.ar    1  UNL1        0.1785
     16 C           4.0869   77.1343   20.1996 C.ar    1  UNL1        0.2064
     17 C           4.5158   76.2738   21.2517 C.ar    1  UNL1        0.1811
     18 C           5.7264   76.5490   21.9309 C.ar    1  UNL1        0.1083
     19 C           6.2615   75.6720   23.0089 C.2     1  UNL1        0.2096
     20 O           5.5726   74.7271   23.4812 O.2     1  UNL1       -0.2884
     21 C           7.6746   75.8733   23.4990 C.3     1  UNL1        0.2169
     22 O           7.8229   75.3548   24.7969 O.3     1  UNL1       -0.3739
     23 H           7.9773   74.3786   24.7015 H       1  UNL1        0.2110
     24 O           4.4908   79.0954   18.7904 O.3     1  UNL1       -0.4682
     25 C           5.2657   79.3950   17.6332 C.3     1  UNL1        0.2526
     26 O           2.8706   76.8428   19.5527 O.3     1  UNL1       -0.4654
     27 C           2.6852   76.4168   18.2071 C.3     1  UNL1        0.2528
     28 O           3.7901   75.1340   21.6573 O.3     1  UNL1       -0.4681
     29 C           3.6033   73.9223   20.9340 C.3     1  UNL1        0.2526
     30 C          13.4323   82.0253   25.2145 C.ar    1  UNL1        0.0241
     31 C          13.7227   82.1247   26.5829 C.ar    1  UNL1        0.0026
     32 C          13.9827   83.3675   27.1618 C.ar    1  UNL1        0.0398
     33 C          13.9699   84.5360   26.3773 C.ar    1  UNL1        0.1724
     34 C          13.6928   84.4459   25.0045 C.ar    1  UNL1        0.1722
     35 C          13.4202   83.1892   24.4297 C.ar    1  UNL1        0.0393
     36 O          14.2317   85.8027   26.9234 O.3     1  UNL1       -0.4684
     37 C          14.3796   86.0662   28.3148 C.3     1  UNL1        0.2526
     38 O          13.7033   85.6259   24.2438 O.3     1  UNL1       -0.4684
     39 C          14.5203   85.8393   23.0972 C.3     1  UNL1        0.2526
     40 C          15.4487   79.6240   25.2275 C.3     1  UNL1        0.1897
     41 C          15.9998   78.5729   23.2516 C.3     1  UNL1        0.1743
     42 O          15.8174   79.8219   23.8781 O.3     1  UNL1       -0.3471
@<TRIPOS>BOND
     1    41    42    1
     2    42    40    1
     3    40     1    1
     4     1     2    1
     5     2     3    1
     6     3     4   ar
     7     4     5   ar
     8     5     6   ar
     9     6    11    1
    10    11    12    1
    11    12    13    1
    12    13    14   ar
    13    14    15   ar
    14    15    24    1
    15    24    25    1
    16    15    16   ar
    17    16    26    1
    18    26    27    1
    19    16    17   ar
    20    17    28    1
    21    28    29    1
    22    17    18   ar
    23    18    19    1
    24    19    20    2
    25    19    21    1
    26    21    22    1
    27     6     7   ar
    28     7     8   ar
    29     8     9    1
    30     9    10    1
    31    10    30    1
    32    30    31   ar
    33    31    32   ar
    34    32    33   ar
    35    33    36    1
    36    36    37    1
    37    33    34   ar
    38    34    38    1
    39    38    39    1
    40    34    35   ar
    41    10     1    1
    42    35    30   ar
    43     8     3   ar
    44    21    11    1
    45    18    13   ar
    46    22    23    1
