@<TRIPOS>MOLECULE
*****
 35 39 0 0 0
SMALL
GASTEIGER

@<TRIPOS>ATOM
      1 C          -5.6699   -8.3932   30.1792 C.ar    1  UNL1        0.1317
      2 C          -4.5430   -8.3722   29.3329 C.ar    1  UNL1        0.0286
      3 C          -4.1690   -9.5204   28.6094 C.ar    1  UNL1        0.0777
      4 C          -4.9358  -10.6880   28.7206 C.ar    1  UNL1        0.2967
      5 N          -6.0197  -10.6667   29.5357 N.ar    1  UNL1       -0.1224
      6 C          -6.9189  -11.6272   29.7914 C.ar    1  UNL1        0.3137
      7 C          -7.8383  -11.0916   30.6847 C.ar    1  UNL1        0.1320
      8 N          -7.5114   -9.8088   30.9734 N.ar    1  UNL1       -0.2941
      9 C          -6.3934   -9.5929   30.2512 C.ar    1  UNL1        0.3123
     10 H          -7.9800   -9.1816   31.5704 H       1  UNL1        0.1718
     11 N          -8.2915   -5.9543   30.2660 N.3     1  UNL1       -0.2647
     12 C          -7.1218   -5.0534   30.2228 C.3     1  UNL1        0.0941
     13 C          -5.8252   -5.8827   30.2810 C.3     1  UNL1        0.1084
     14 N          -6.0947   -7.2013   30.8681 N.pl3   1  UNL1       -0.2988
     15 C          -7.0326   -7.2563   31.9937 C.3     1  UNL1        0.1084
     16 C          -8.3790   -6.6177   31.5903 C.3     1  UNL1        0.0941
     17 C          -9.5399   -5.2369   29.9424 C.3     1  UNL1        0.1200
     18 N         -12.1177   -7.5467   31.1480 N.ar    1  UNL1       -0.3128
     19 C         -12.3615   -6.4064   31.8246 C.ar    1  UNL1        0.1780
     20 N         -11.5122   -5.4125   31.4921 N.ar    1  UNL1       -0.2273
     21 C         -10.7211   -5.9502   30.5391 C.ar    1  UNL1        0.0885
     22 C         -11.0903   -7.2652   30.3205 C.ar    1  UNL1        0.0537
     23 C         -10.3947   -8.2483   29.4244 C.3     1  UNL1        0.0514
     24 C         -12.2976   -9.6465   32.3967 C.3     1  UNL1        0.0265
     25 C         -12.8724   -8.7938   31.2733 C.3     1  UNL1        0.1073
     26 C          -8.9972  -11.7909   31.2796 C.ar    1  UNL1        0.0218
     27 C          -9.9839  -12.3694   30.4703 C.ar    1  UNL1        0.0013
     28 C         -11.0714  -13.0329   31.0429 C.ar    1  UNL1       -0.0042
     29 C         -11.1914  -13.1699   32.4437 C.ar    1  UNL1       -0.0228
     30 C         -10.2026  -12.5575   33.2484 C.ar    1  UNL1       -0.0042
     31 C          -9.1264  -11.8767   32.6726 C.ar    1  UNL1        0.0013
     32 C         -12.4037  -13.9165   33.0387 C.3     1  UNL1        0.0189
     33 C         -12.2909  -14.1335   34.5676 C.3     1  UNL1        0.0044
     34 C         -13.6812  -13.0996   32.7601 C.3     1  UNL1        0.0044
     35 C         -12.5369  -15.3146   32.3895 C.3     1  UNL1        0.0044
@<TRIPOS>BOND
     1    24    25    1
     2    25    18    1
     3    18    19   ar
     4    19    20   ar
     5    20    21   ar
     6    21    17    1
     7    17    11    1
     8    11    12    1
     9    12    13    1
    10    13    14    1
    11    14     1    1
    12     1     2   ar
    13     2     3   ar
    14     3     4   ar
    15     4     5   ar
    16     5     6   ar
    17     6     7   ar
    18     7    26    1
    19    26    27   ar
    20    27    28   ar
    21    28    29   ar
    22    29    32    1
    23    32    33    1
    24    32    34    1
    25    32    35    1
    26    29    30   ar
    27    30    31   ar
    28     7     8   ar
    29     8     9   ar
    30    14    15    1
    31    15    16    1
    32    21    22   ar
    33    22    23    1
    34    22    18   ar
    35    16    11    1
    36     9     1   ar
    37     9     5   ar
    38    31    26   ar
    39     8    10    1
