@<TRIPOS>MOLECULE
*****
 37 40 0 0 0
SMALL
GASTEIGER

@<TRIPOS>ATOM
      1 N         -29.5314   46.6842   -6.7410 N.am    1  UNL1       -0.2685
      2 C         -28.5156   46.6380   -7.7594 C.2     1  UNL1        0.2672
      3 O         -28.4955   45.6721   -8.5702 O.2     1  UNL1       -0.2682
      4 C         -27.4780   47.6868   -7.8337 C.ar    1  UNL1        0.1347
      5 C         -27.3015   48.4508   -8.9987 C.ar    1  UNL1        0.0238
      6 C         -26.2947   49.4243   -9.0403 C.ar    1  UNL1        0.0031
      7 C         -26.0957   50.2059  -10.1892 C.ar    1  UNL1        0.0001
      8 C         -25.0855   51.1725  -10.2129 C.ar    1  UNL1        0.0000
      9 C         -24.2695   51.3654   -9.0944 C.ar    1  UNL1        0.0000
     10 C         -24.4579   50.5928   -7.9445 C.ar    1  UNL1        0.0015
     11 C         -25.4688   49.6205   -7.9106 C.ar    1  UNL1        0.0192
     12 C         -25.6773   48.8329   -6.7724 C.ar    1  UNL1        0.0989
     13 N         -26.6621   47.8971   -6.7642 N.ar    1  UNL1       -0.2393
     14 C         -31.4083   47.8240   -7.9220 C.3     1  UNL1        0.0265
     15 C         -30.4621   47.8290   -6.7103 C.3     1  UNL1        0.1007
     16 C         -29.6951   49.1298   -6.5189 C.ar    1  UNL1        0.0234
     17 C         -29.5513   50.0746   -7.5573 C.ar    1  UNL1        0.0019
     18 C         -28.8020   51.2380   -7.3610 C.ar    1  UNL1        0.0295
     19 C         -28.1742   51.4705   -6.1365 C.ar    1  UNL1        0.1424
     20 F         -27.4461   52.5989   -5.9507 F       1  UNL1       -0.2041
     21 C         -28.2888   50.5356   -5.1065 C.ar    1  UNL1        0.0590
     22 C         -29.0366   49.3689   -5.2942 C.ar    1  UNL1        0.1399
     23 F         -29.1114   48.4693   -4.2800 F       1  UNL1       -0.2044
     24 C         -29.7638   45.4780   -5.9317 C.3     1  UNL1        0.1207
     25 C         -29.0957   45.6178   -4.5883 C.ar    1  UNL1       -0.0023
     26 C         -29.8691   45.7610   -3.4283 C.ar    1  UNL1       -0.0045
     27 C         -29.2554   45.9684   -2.1854 C.ar    1  UNL1        0.0069
     28 C         -27.8551   46.0023   -2.1008 C.ar    1  UNL1        0.0046
     29 C         -27.0641   45.8576   -3.2542 C.ar    1  UNL1        0.0750
     30 C         -27.6967   45.6809   -4.4970 C.ar    1  UNL1        0.0038
     31 C         -25.5839   45.9171   -3.1799 C.2     1  UNL1        0.3380
     32 O         -24.9230   46.3065   -4.1794 O.2     1  UNL1       -0.2451
     33 O         -24.8904   45.5373   -2.0313 O.3     1  UNL1       -0.4771
     34 H         -25.3474   45.1173   -1.2324 H       1  UNL1        0.2954
     35 C         -30.0917   46.0999   -0.9450 C.3     1  UNL1        0.1636
     36 O         -29.2650   46.0145    0.1812 O.3     1  UNL1       -0.3772
     37 H         -29.8623   46.1056    0.9686 H       1  UNL1        0.2109
@<TRIPOS>BOND
     1    14    15    1
     2    15    16    1
     3    16    17   ar
     4    17    18   ar
     5    18    19   ar
     6    19    20    1
     7    19    21   ar
     8    21    22   ar
     9    22    23    1
    10    15     1    1
    11     1    24    1
    12    24    25    1
    13    25    26   ar
    14    26    27   ar
    15    27    35    1
    16    35    36    1
    17    27    28   ar
    18    28    29   ar
    19    29    31    1
    20    31    32    2
    21    31    33    1
    22    29    30   ar
    23     1     2   am
    24     2     3    2
    25     2     4    1
    26     4     5   ar
    27     5     6   ar
    28     6     7   ar
    29     7     8   ar
    30     8     9   ar
    31     9    10   ar
    32    10    11   ar
    33    11    12   ar
    34    12    13   ar
    35    22    16   ar
    36    30    25   ar
    37    13     4   ar
    38    11     6   ar
    39    36    37    1
    40    33    34    1
@<TRIPOS>MOLECULE
*****
 37 40 0 0 0
SMALL
GASTEIGER

@<TRIPOS>ATOM
      1 N         -29.1838   46.7800   -6.9048 N.am    1  UNL1       -0.2685
      2 C         -28.1769   46.7581   -7.9328 C.2     1  UNL1        0.2672
      3 O         -28.1235   45.7792   -8.7264 O.2     1  UNL1       -0.2682
      4 C         -27.1856   47.8484   -8.0367 C.ar    1  UNL1        0.1347
      5 C         -27.0262   48.5722   -9.2295 C.ar    1  UNL1        0.0238
      6 C         -26.0629   49.5872   -9.2981 C.ar    1  UNL1        0.0031
      7 C         -25.8820   50.3302  -10.4753 C.ar    1  UNL1        0.0001
      8 C         -24.9153   51.3393  -10.5256 C.ar    1  UNL1        0.0000
      9 C         -24.1247   51.6131   -9.4057 C.ar    1  UNL1        0.0000
     10 C         -24.2954   50.8796   -8.2277 C.ar    1  UNL1        0.0015
     11 C         -25.2627   49.8653   -8.1670 C.ar    1  UNL1        0.0192
     12 C         -25.4526   49.1155   -7.0004 C.ar    1  UNL1        0.0989
     13 N         -26.3952   48.1377   -6.9664 N.ar    1  UNL1       -0.2393
     14 C         -31.0953   47.8385   -8.1056 C.3     1  UNL1        0.0265
     15 C         -30.1620   47.8847   -6.8849 C.3     1  UNL1        0.1007
     16 C         -29.4522   49.2168   -6.6882 C.ar    1  UNL1        0.0234
     17 C         -29.3145   50.1540   -7.7341 C.ar    1  UNL1        0.0019
     18 C         -28.6172   51.3482   -7.5313 C.ar    1  UNL1        0.0295
     19 C         -28.0355   51.6197   -6.2921 C.ar    1  UNL1        0.1424
     20 F         -27.3577   52.7780   -6.0999 F       1  UNL1       -0.2041
     21 C         -28.1442   50.6934   -5.2538 C.ar    1  UNL1        0.0590
     22 C         -28.8401   49.4960   -5.4480 C.ar    1  UNL1        0.1399
     23 F         -28.9099   48.6063   -4.4248 F       1  UNL1       -0.2044
     24 C         -29.3569   45.5800   -6.0716 C.3     1  UNL1        0.1207
     25 C         -28.7271   45.7921   -4.7193 C.ar    1  UNL1       -0.0023
     26 C         -27.3336   45.8789   -4.5967 C.ar    1  UNL1       -0.0045
     27 C         -26.7367   45.9990   -3.3344 C.ar    1  UNL1        0.0069
     28 C         -27.5446   46.0628   -2.1889 C.ar    1  UNL1        0.0046
     29 C         -28.9442   45.9799   -2.2939 C.ar    1  UNL1        0.0750
     30 C         -29.5248   45.8290   -3.5652 C.ar    1  UNL1        0.0038
     31 C         -29.8064   46.0208   -1.0876 C.2     1  UNL1        0.3380
     32 O         -31.0592   46.0579   -1.2157 O.2     1  UNL1       -0.2451
     33 O         -29.2689   46.0349    0.1990 O.3     1  UNL1       -0.4771
     34 H         -28.2756   46.1128    0.3741 H       1  UNL1        0.2954
     35 C         -25.2440   46.1124   -3.2147 C.3     1  UNL1        0.1636
     36 O         -24.8287   45.5104   -2.0213 O.3     1  UNL1       -0.3772
     37 H         -23.8420   45.6127   -1.9903 H       1  UNL1        0.2109
@<TRIPOS>BOND
     1    14    15    1
     2    15    16    1
     3    16    17   ar
     4    17    18   ar
     5    18    19   ar
     6    19    20    1
     7    19    21   ar
     8    21    22   ar
     9    22    23    1
    10    15     1    1
    11     1    24    1
    12    24    25    1
    13    25    26   ar
    14    26    27   ar
    15    27    35    1
    16    35    36    1
    17    27    28   ar
    18    28    29   ar
    19    29    31    1
    20    31    32    2
    21    31    33    1
    22    29    30   ar
    23     1     2   am
    24     2     3    2
    25     2     4    1
    26     4     5   ar
    27     5     6   ar
    28     6     7   ar
    29     7     8   ar
    30     8     9   ar
    31     9    10   ar
    32    10    11   ar
    33    11    12   ar
    34    12    13   ar
    35    22    16   ar
    36    30    25   ar
    37    13     4   ar
    38    11     6   ar
    39    36    37    1
    40    33    34    1
@<TRIPOS>MOLECULE
*****
 37 40 0 0 0
SMALL
GASTEIGER

@<TRIPOS>ATOM
      1 N         -29.8840   46.3862   -5.7879 N.am    1  UNL1       -0.2685
      2 C         -28.9271   45.9814   -6.7836 C.2     1  UNL1        0.2672
      3 O         -28.7220   44.7528   -6.9817 O.2     1  UNL1       -0.2682
      4 C         -28.1582   46.9903   -7.5406 C.ar    1  UNL1        0.1347
      5 C         -27.2699   47.8625   -6.8909 C.ar    1  UNL1        0.0238
      6 C         -26.5714   48.8199   -7.6381 C.ar    1  UNL1        0.0031
      7 C         -25.6743   49.7036   -7.0177 C.ar    1  UNL1        0.0001
      8 C         -24.9862   50.6532   -7.7794 C.ar    1  UNL1        0.0000
      9 C         -25.1877   50.7277   -9.1607 C.ar    1  UNL1        0.0000
     10 C         -26.0788   49.8531   -9.7898 C.ar    1  UNL1        0.0015
     11 C         -26.7739   48.8967   -9.0345 C.ar    1  UNL1        0.0192
     12 C         -27.6726   48.0105   -9.6397 C.ar    1  UNL1        0.0989
     13 N         -28.3346   47.0936   -8.8868 N.ar    1  UNL1       -0.2393
     14 C         -31.5837   46.7570   -7.5740 C.3     1  UNL1        0.0265
     15 C         -31.0479   47.1940   -6.2009 C.3     1  UNL1        0.1007
     16 C         -30.7261   48.6781   -6.0967 C.ar    1  UNL1        0.0234
     17 C         -30.3314   49.4397   -7.2172 C.ar    1  UNL1        0.0019
     18 C         -29.9994   50.7901   -7.0776 C.ar    1  UNL1        0.0295
     19 C         -30.0409   51.3970   -5.8216 C.ar    1  UNL1        0.1424
     20 F         -29.7156   52.7066   -5.6897 F       1  UNL1       -0.2041
     21 C         -30.4084   50.6521   -4.7000 C.ar    1  UNL1        0.0590
     22 C         -30.7422   49.3004   -4.8305 C.ar    1  UNL1        0.1399
     23 F         -31.0750   48.5981   -3.7173 F       1  UNL1       -0.2044
     24 C         -29.8034   45.7740   -4.4527 C.3     1  UNL1        0.1207
     25 C         -28.4814   46.1041   -3.8095 C.ar    1  UNL1       -0.0023
     26 C         -27.7035   45.0887   -3.2367 C.ar    1  UNL1       -0.0045
     27 C         -26.5103   45.3974   -2.5694 C.ar    1  UNL1        0.0069
     28 C         -26.0788   46.7310   -2.5021 C.ar    1  UNL1        0.0046
     29 C         -26.8456   47.7617   -3.0736 C.ar    1  UNL1        0.0750
     30 C         -28.0550   47.4376   -3.7126 C.ar    1  UNL1        0.0038
     31 C         -26.4117   49.1774   -2.9864 C.2     1  UNL1        0.3380
     32 O         -26.7523   49.9921   -3.8851 O.2     1  UNL1       -0.2451
     33 O         -25.6169   49.6386   -1.9375 O.3     1  UNL1       -0.4771
     34 H         -25.2209   49.0208   -1.2411 H       1  UNL1        0.2954
     35 C         -25.6729   44.3005   -1.9770 C.3     1  UNL1        0.1636
     36 O         -25.6294   44.4518   -0.5862 O.3     1  UNL1       -0.3772
     37 H         -25.0671   43.7081   -0.2460 H       1  UNL1        0.2109
@<TRIPOS>BOND
     1    14    15    1
     2    15    16    1
     3    16    17   ar
     4    17    18   ar
     5    18    19   ar
     6    19    20    1
     7    19    21   ar
     8    21    22   ar
     9    22    23    1
    10    15     1    1
    11     1    24    1
    12    24    25    1
    13    25    26   ar
    14    26    27   ar
    15    27    35    1
    16    35    36    1
    17    27    28   ar
    18    28    29   ar
    19    29    31    1
    20    31    32    2
    21    31    33    1
    22    29    30   ar
    23     1     2   am
    24     2     3    2
    25     2     4    1
    26     4     5   ar
    27     5     6   ar
    28     6     7   ar
    29     7     8   ar
    30     8     9   ar
    31     9    10   ar
    32    10    11   ar
    33    11    12   ar
    34    12    13   ar
    35    22    16   ar
    36    30    25   ar
    37    13     4   ar
    38    11     6   ar
    39    36    37    1
    40    33    34    1
@<TRIPOS>MOLECULE
*****
 37 40 0 0 0
SMALL
GASTEIGER

@<TRIPOS>ATOM
      1 N         -28.6928   48.1055   -6.7837 N.am    1  UNL1       -0.2685
      2 C         -27.7952   47.8989   -7.8895 C.2     1  UNL1        0.2672
      3 O         -27.9141   46.8622   -8.5980 O.2     1  UNL1       -0.2682
      4 C         -26.7159   48.8671   -8.1720 C.ar    1  UNL1        0.1347
      5 C         -26.4756   49.3245   -9.4777 C.ar    1  UNL1        0.0238
      6 C         -25.4310   50.2284   -9.7117 C.ar    1  UNL1        0.0031
      7 C         -25.1681   50.7061  -11.0053 C.ar    1  UNL1        0.0001
      8 C         -24.1209   51.6075  -11.2201 C.ar    1  UNL1        0.0000
      9 C         -23.3311   52.0371  -10.1496 C.ar    1  UNL1        0.0000
     10 C         -23.5832   51.5681   -8.8568 C.ar    1  UNL1        0.0015
     11 C         -24.6317   50.6637   -8.6308 C.ar    1  UNL1        0.0192
     12 C         -24.9040   50.1779   -7.3466 C.ar    1  UNL1        0.0989
     13 N         -25.9243   49.3019   -7.1531 N.ar    1  UNL1       -0.2393
     14 C         -30.7514   49.1374   -5.8277 C.3     1  UNL1        0.0265
     15 C         -29.5513   49.3057   -6.7737 C.3     1  UNL1        0.1007
     16 C         -29.9241   49.7017   -8.1954 C.ar    1  UNL1        0.0234
     17 C         -30.7390   48.8877   -9.0107 C.ar    1  UNL1        0.0019
     18 C         -31.0247   49.2599  -10.3272 C.ar    1  UNL1        0.0295
     19 C         -30.4927   50.4372  -10.8550 C.ar    1  UNL1        0.1424
     20 F         -30.7699   50.7937  -12.1334 F       1  UNL1       -0.2041
     21 C         -29.6674   51.2424  -10.0686 C.ar    1  UNL1        0.0590
     22 C         -29.3764   50.8777   -8.7503 C.ar    1  UNL1        0.1399
     23 F         -28.5533   51.6713   -8.0182 F       1  UNL1       -0.2044
     24 C         -28.9031   46.9976   -5.8390 C.3     1  UNL1        0.1207
     25 C         -27.7765   46.9470   -4.8397 C.ar    1  UNL1       -0.0023
     26 C         -27.2058   45.7175   -4.4830 C.ar    1  UNL1       -0.0045
     27 C         -26.2106   45.6543   -3.4982 C.ar    1  UNL1        0.0069
     28 C         -25.7631   46.8361   -2.8881 C.ar    1  UNL1        0.0046
     29 C         -26.3227   48.0781   -3.2360 C.ar    1  UNL1        0.0750
     30 C         -27.3413   48.1199   -4.2038 C.ar    1  UNL1        0.0038
     31 C         -25.8749   49.3306   -2.5794 C.2     1  UNL1        0.3380
     32 O         -25.8702   50.4099   -3.2294 O.2     1  UNL1       -0.2451
     33 O         -25.4396   49.3502   -1.2548 O.3     1  UNL1       -0.4771
     34 H         -25.3177   48.5076   -0.7085 H       1  UNL1        0.2954
     35 C         -25.5904   44.3349   -3.1375 C.3     1  UNL1        0.1636
     36 O         -24.7865   44.4966   -2.0033 O.3     1  UNL1       -0.3772
     37 H         -24.4022   43.6024   -1.8087 H       1  UNL1        0.2109
@<TRIPOS>BOND
     1    14    15    1
     2    15    16    1
     3    16    17   ar
     4    17    18   ar
     5    18    19   ar
     6    19    20    1
     7    19    21   ar
     8    21    22   ar
     9    22    23    1
    10    15     1    1
    11     1    24    1
    12    24    25    1
    13    25    26   ar
    14    26    27   ar
    15    27    35    1
    16    35    36    1
    17    27    28   ar
    18    28    29   ar
    19    29    31    1
    20    31    32    2
    21    31    33    1
    22    29    30   ar
    23     1     2   am
    24     2     3    2
    25     2     4    1
    26     4     5   ar
    27     5     6   ar
    28     6     7   ar
    29     7     8   ar
    30     8     9   ar
    31     9    10   ar
    32    10    11   ar
    33    11    12   ar
    34    12    13   ar
    35    22    16   ar
    36    30    25   ar
    37    13     4   ar
    38    11     6   ar
    39    36    37    1
    40    33    34    1
@<TRIPOS>MOLECULE
*****
 37 40 0 0 0
SMALL
GASTEIGER

@<TRIPOS>ATOM
      1 N         -30.2756   49.4574   -7.3481 N.am    1  UNL1       -0.2685
      2 C         -29.5471   50.6675   -7.0723 C.2     1  UNL1        0.2672
      3 O         -30.1381   51.6325   -6.5151 O.2     1  UNL1       -0.2682
      4 C         -28.1316   50.8002   -7.4733 C.ar    1  UNL1        0.1347
      5 C         -27.7723   50.9666   -8.8206 C.ar    1  UNL1        0.0238
      6 C         -26.4186   51.0700   -9.1668 C.ar    1  UNL1        0.0031
      7 C         -26.0282   51.2400  -10.5044 C.ar    1  UNL1        0.0001
      8 C         -24.6724   51.3408  -10.8314 C.ar    1  UNL1        0.0000
      9 C         -23.6998   51.2727   -9.8296 C.ar    1  UNL1        0.0000
     10 C         -24.0764   51.1033   -8.4938 C.ar    1  UNL1        0.0015
     11 C         -25.4341   51.0013   -8.1555 C.ar    1  UNL1        0.0192
     12 C         -25.8376   50.8299   -6.8261 C.ar    1  UNL1        0.0989
     13 N         -27.1584   50.7327   -6.5235 N.ar    1  UNL1       -0.2393
     14 C         -28.9915   48.4423   -5.4672 C.3     1  UNL1        0.0265
     15 C         -29.8198   48.1932   -6.7382 C.3     1  UNL1        0.1007
     16 C         -29.1272   47.3234   -7.7777 C.ar    1  UNL1        0.0234
     17 C         -27.8151   47.5900   -8.2236 C.ar    1  UNL1        0.0019
     18 C         -27.2258   46.7976   -9.2127 C.ar    1  UNL1        0.0295
     19 C         -27.9371   45.7403   -9.7815 C.ar    1  UNL1        0.1424
     20 F         -27.3630   44.9755  -10.7426 F       1  UNL1       -0.2041
     21 C         -29.2435   45.4769   -9.3669 C.ar    1  UNL1        0.0590
     22 C         -29.8410   46.2646   -8.3778 C.ar    1  UNL1        0.1399
     23 F         -31.1204   45.9959   -8.0114 F       1  UNL1       -0.2044
     24 C         -31.5817   49.5657   -8.0162 C.3     1  UNL1        0.1207
     25 C         -31.3975   49.6124   -9.5110 C.ar    1  UNL1       -0.0023
     26 C         -31.5082   48.4403  -10.2714 C.ar    1  UNL1       -0.0045
     27 C         -31.2628   48.4618  -11.6511 C.ar    1  UNL1        0.0069
     28 C         -30.9335   49.6733  -12.2778 C.ar    1  UNL1        0.0046
     29 C         -30.8209   50.8589  -11.5305 C.ar    1  UNL1        0.0750
     30 C         -31.0406   50.8136  -10.1428 C.ar    1  UNL1        0.0038
     31 C         -30.4487   52.1402  -12.1786 C.2     1  UNL1        0.3380
     32 O         -31.0820   52.5342  -13.1940 O.2     1  UNL1       -0.2451
     33 O         -29.3984   52.9252  -11.7041 O.3     1  UNL1       -0.4771
     34 H         -28.7825   52.6207  -10.9615 H       1  UNL1        0.2954
     35 C         -31.4042   47.2050  -12.4611 C.3     1  UNL1        0.1636
     36 O         -30.1620   46.5650  -12.5423 O.3     1  UNL1       -0.3772
     37 H         -30.3090   45.7469  -13.0845 H       1  UNL1        0.2109
@<TRIPOS>BOND
     1    14    15    1
     2    15    16    1
     3    16    17   ar
     4    17    18   ar
     5    18    19   ar
     6    19    20    1
     7    19    21   ar
     8    21    22   ar
     9    22    23    1
    10    15     1    1
    11     1    24    1
    12    24    25    1
    13    25    26   ar
    14    26    27   ar
    15    27    35    1
    16    35    36    1
    17    27    28   ar
    18    28    29   ar
    19    29    31    1
    20    31    32    2
    21    31    33    1
    22    29    30   ar
    23     1     2   am
    24     2     3    2
    25     2     4    1
    26     4     5   ar
    27     5     6   ar
    28     6     7   ar
    29     7     8   ar
    30     8     9   ar
    31     9    10   ar
    32    10    11   ar
    33    11    12   ar
    34    12    13   ar
    35    22    16   ar
    36    30    25   ar
    37    13     4   ar
    38    11     6   ar
    39    36    37    1
    40    33    34    1
@<TRIPOS>MOLECULE
*****
 37 40 0 0 0
SMALL
GASTEIGER

@<TRIPOS>ATOM
      1 N         -29.2148   50.6979   -6.2676 N.am    1  UNL1       -0.2685
      2 C         -27.9376   50.8386   -5.6194 C.2     1  UNL1        0.2672
      3 O         -27.2915   51.9137   -5.7515 O.2     1  UNL1       -0.2682
      4 C         -27.3639   49.7226   -4.8399 C.ar    1  UNL1        0.1347
      5 C         -27.1570   48.4620   -5.4230 C.ar    1  UNL1        0.0238
      6 C         -26.6284   47.4210   -4.6483 C.ar    1  UNL1        0.0031
      7 C         -26.4074   46.1508   -5.2034 C.ar    1  UNL1        0.0001
      8 C         -25.8796   45.1235   -4.4150 C.ar    1  UNL1        0.0000
      9 C         -25.5700   45.3556   -3.0716 C.ar    1  UNL1        0.0000
     10 C         -25.7861   46.6164   -2.5075 C.ar    1  UNL1        0.0015
     11 C         -26.3150   47.6537   -3.2902 C.ar    1  UNL1        0.0192
     12 C         -26.5422   48.9246   -2.7494 C.ar    1  UNL1        0.0989
     13 N         -27.0562   49.9127   -3.5273 N.ar    1  UNL1       -0.2393
     14 C         -30.6662   51.5978   -4.4508 C.3     1  UNL1        0.0265
     15 C         -30.4126   50.4502   -5.4419 C.3     1  UNL1        0.1007
     16 C         -30.3373   49.0721   -4.7999 C.ar    1  UNL1        0.0234
     17 C         -30.1153   48.9011   -3.4168 C.ar    1  UNL1        0.0019
     18 C         -30.0065   47.6206   -2.8673 C.ar    1  UNL1        0.0295
     19 C         -30.1019   46.4948   -3.6865 C.ar    1  UNL1        0.1424
     20 F         -29.9932   45.2543   -3.1503 F       1  UNL1       -0.2041
     21 C         -30.2997   46.6473   -5.0597 C.ar    1  UNL1        0.0590
     22 C         -30.4098   47.9248   -5.6178 C.ar    1  UNL1        0.1399
     23 F         -30.5808   48.0401   -6.9598 F       1  UNL1       -0.2044
     24 C         -29.3182   51.0541   -7.6911 C.3     1  UNL1        0.1207
     25 C         -28.2943   50.2924   -8.4922 C.ar    1  UNL1       -0.0023
     26 C         -28.3387   48.8924   -8.5431 C.ar    1  UNL1       -0.0045
     27 C         -27.3457   48.1735   -9.2224 C.ar    1  UNL1        0.0069
     28 C         -26.3174   48.8648   -9.8809 C.ar    1  UNL1        0.0046
     29 C         -26.2592   50.2691   -9.8423 C.ar    1  UNL1        0.0750
     30 C         -27.2463   50.9730   -9.1307 C.ar    1  UNL1        0.0038
     31 C         -25.1626   51.0088  -10.5135 C.2     1  UNL1        0.3380
     32 O         -24.6731   52.0328   -9.9666 O.2     1  UNL1       -0.2451
     33 O         -24.6597   50.6119  -11.7521 O.3     1  UNL1       -0.4771
     34 H         -25.0741   49.8655  -12.2949 H       1  UNL1        0.2954
     35 C         -27.4133   46.6747   -9.2891 C.3     1  UNL1        0.1636
     36 O         -26.1498   46.1420   -9.0085 O.3     1  UNL1       -0.3772
     37 H         -26.2479   45.1560   -9.0661 H       1  UNL1        0.2109
@<TRIPOS>BOND
     1    14    15    1
     2    15    16    1
     3    16    17   ar
     4    17    18   ar
     5    18    19   ar
     6    19    20    1
     7    19    21   ar
     8    21    22   ar
     9    22    23    1
    10    15     1    1
    11     1    24    1
    12    24    25    1
    13    25    26   ar
    14    26    27   ar
    15    27    35    1
    16    35    36    1
    17    27    28   ar
    18    28    29   ar
    19    29    31    1
    20    31    32    2
    21    31    33    1
    22    29    30   ar
    23     1     2   am
    24     2     3    2
    25     2     4    1
    26     4     5   ar
    27     5     6   ar
    28     6     7   ar
    29     7     8   ar
    30     8     9   ar
    31     9    10   ar
    32    10    11   ar
    33    11    12   ar
    34    12    13   ar
    35    22    16   ar
    36    30    25   ar
    37    13     4   ar
    38    11     6   ar
    39    36    37    1
    40    33    34    1
@<TRIPOS>MOLECULE
*****
 37 40 0 0 0
SMALL
GASTEIGER

@<TRIPOS>ATOM
      1 N         -30.7436   49.4441   -8.3387 N.am    1  UNL1       -0.2685
      2 C         -30.3466   50.5950   -9.1060 C.2     1  UNL1        0.2672
      3 O         -31.2155   51.2309   -9.7628 O.2     1  UNL1       -0.2682
      4 C         -28.9294   51.0081   -9.1620 C.ar    1  UNL1        0.1347
      5 C         -28.0830   50.5578  -10.1880 C.ar    1  UNL1        0.0238
      6 C         -26.7393   50.9546  -10.1991 C.ar    1  UNL1        0.0031
      7 C         -25.8693   50.5236  -11.2129 C.ar    1  UNL1        0.0001
      8 C         -24.5311   50.9293  -11.2075 C.ar    1  UNL1        0.0000
      9 C         -24.0531   51.7648  -10.1938 C.ar    1  UNL1        0.0000
     10 C         -24.9100   52.2003   -9.1785 C.ar    1  UNL1        0.0015
     11 C         -26.2543   51.7990   -9.1751 C.ar    1  UNL1        0.0192
     12 C         -27.1324   52.2197   -8.1695 C.ar    1  UNL1        0.0989
     13 N         -28.4298   51.8168   -8.1874 N.ar    1  UNL1       -0.2393
     14 C         -30.5974   50.8663   -6.2959 C.3     1  UNL1        0.0265
     15 C         -30.5223   49.4460   -6.8796 C.3     1  UNL1        0.1007
     16 C         -29.2440   48.6939   -6.5371 C.ar    1  UNL1        0.0234
     17 C         -27.9758   49.3108   -6.5863 C.ar    1  UNL1        0.0019
     18 C         -26.8179   48.5785   -6.3093 C.ar    1  UNL1        0.0295
     19 C         -26.9039   47.2216   -5.9949 C.ar    1  UNL1        0.1424
     20 F         -25.7784   46.5140   -5.7295 F       1  UNL1       -0.2041
     21 C         -28.1489   46.5916   -5.9632 C.ar    1  UNL1        0.0590
     22 C         -29.3125   47.3166   -6.2389 C.ar    1  UNL1        0.1399
     23 F         -30.5062   46.6700   -6.2206 F       1  UNL1       -0.2044
     24 C         -31.5772   48.4232   -8.9920 C.3     1  UNL1        0.1207
     25 C         -30.7591   47.6472   -9.9915 C.ar    1  UNL1       -0.0023
     26 C         -31.2241   47.4777  -11.3028 C.ar    1  UNL1       -0.0045
     27 C         -30.5066   46.6932  -12.2160 C.ar    1  UNL1        0.0069
     28 C         -29.2986   46.0990  -11.8203 C.ar    1  UNL1        0.0046
     29 C         -28.8163   46.2609  -10.5096 C.ar    1  UNL1        0.0750
     30 C         -29.5640   47.0259   -9.5976 C.ar    1  UNL1        0.0038
     31 C         -27.5535   45.6165  -10.0733 C.2     1  UNL1        0.3380
     32 O         -26.9064   46.1003   -9.1066 O.2     1  UNL1       -0.2451
     33 O         -27.0451   44.4878  -10.7153 O.3     1  UNL1       -0.4771
     34 H         -27.4544   44.1103  -11.5599 H       1  UNL1        0.2954
     35 C         -31.0020   46.5346  -13.6249 C.3     1  UNL1        0.1636
     36 O         -30.0558   45.8216  -14.3702 O.3     1  UNL1       -0.3772
     37 H         -30.4282   45.7456  -15.2870 H       1  UNL1        0.2109
@<TRIPOS>BOND
     1    14    15    1
     2    15    16    1
     3    16    17   ar
     4    17    18   ar
     5    18    19   ar
     6    19    20    1
     7    19    21   ar
     8    21    22   ar
     9    22    23    1
    10    15     1    1
    11     1    24    1
    12    24    25    1
    13    25    26   ar
    14    26    27   ar
    15    27    35    1
    16    35    36    1
    17    27    28   ar
    18    28    29   ar
    19    29    31    1
    20    31    32    2
    21    31    33    1
    22    29    30   ar
    23     1     2   am
    24     2     3    2
    25     2     4    1
    26     4     5   ar
    27     5     6   ar
    28     6     7   ar
    29     7     8   ar
    30     8     9   ar
    31     9    10   ar
    32    10    11   ar
    33    11    12   ar
    34    12    13   ar
    35    22    16   ar
    36    30    25   ar
    37    13     4   ar
    38    11     6   ar
    39    36    37    1
    40    33    34    1
@<TRIPOS>MOLECULE
*****
 37 40 0 0 0
SMALL
GASTEIGER

@<TRIPOS>ATOM
      1 N         -29.1908   49.3621   -8.8111 N.am    1  UNL1       -0.2685
      2 C         -28.7621   48.0102   -8.5673 C.2     1  UNL1        0.2672
      3 O         -29.0601   47.1073   -9.3960 O.2     1  UNL1       -0.2682
      4 C         -28.0159   47.6687   -7.3390 C.ar    1  UNL1        0.1347
      5 C         -28.5428   47.9514   -6.0684 C.ar    1  UNL1        0.0238
      6 C         -27.7989   47.6309   -4.9252 C.ar    1  UNL1        0.0031
      7 C         -28.2999   47.8983   -3.6414 C.ar    1  UNL1        0.0001
      8 C         -27.5432   47.5720   -2.5117 C.ar    1  UNL1        0.0000
      9 C         -26.2853   46.9789   -2.6544 C.ar    1  UNL1        0.0000
     10 C         -25.7756   46.7080   -3.9278 C.ar    1  UNL1        0.0015
     11 C         -26.5272   47.0314   -5.0675 C.ar    1  UNL1        0.0192
     12 C         -26.0392   46.7720   -6.3535 C.ar    1  UNL1        0.0989
     13 N         -26.7854   47.0952   -7.4419 N.ar    1  UNL1       -0.2393
     14 C         -27.1339   50.0783  -10.0248 C.3     1  UNL1        0.0265
     15 C         -28.1730   50.4222   -8.9452 C.3     1  UNL1        0.1007
     16 C         -27.5769   50.7588   -7.5857 C.ar    1  UNL1        0.0234
     17 C         -26.2396   50.4505   -7.2568 C.ar    1  UNL1        0.0019
     18 C         -25.7377   50.7328   -5.9833 C.ar    1  UNL1        0.0295
     19 C         -26.5613   51.3107   -5.0163 C.ar    1  UNL1        0.1424
     20 F         -26.0715   51.5806   -3.7812 F       1  UNL1       -0.2041
     21 C         -27.8923   51.6019   -5.3189 C.ar    1  UNL1        0.0590
     22 C         -28.4029   51.3229   -6.5906 C.ar    1  UNL1        0.1399
     23 F         -29.7074   51.5985   -6.8469 F       1  UNL1       -0.2044
     24 C         -30.5993   49.5945   -9.1662 C.3     1  UNL1        0.1207
     25 C         -30.7064   50.0347  -10.6032 C.ar    1  UNL1       -0.0023
     26 C         -30.7467   49.0823  -11.6308 C.ar    1  UNL1       -0.0045
     27 C         -30.7686   49.4848  -12.9731 C.ar    1  UNL1        0.0069
     28 C         -30.7807   50.8525  -13.2866 C.ar    1  UNL1        0.0046
     29 C         -30.7434   51.8212  -12.2682 C.ar    1  UNL1        0.0750
     30 C         -30.6908   51.3998  -10.9281 C.ar    1  UNL1        0.0038
     31 C         -30.7303   53.2693  -12.5890 C.2     1  UNL1        0.3380
     32 O         -31.5066   53.7209  -13.4726 O.2     1  UNL1       -0.2451
     33 O         -29.8659   54.1557  -11.9474 O.3     1  UNL1       -0.4771
     34 H         -29.1463   53.8478  -11.3065 H       1  UNL1        0.2954
     35 C         -30.8329   48.4573  -14.0666 C.3     1  UNL1        0.1636
     36 O         -29.7906   48.6815  -14.9734 O.3     1  UNL1       -0.3772
     37 H         -29.8780   47.9815  -15.6716 H       1  UNL1        0.2109
@<TRIPOS>BOND
     1    14    15    1
     2    15    16    1
     3    16    17   ar
     4    17    18   ar
     5    18    19   ar
     6    19    20    1
     7    19    21   ar
     8    21    22   ar
     9    22    23    1
    10    15     1    1
    11     1    24    1
    12    24    25    1
    13    25    26   ar
    14    26    27   ar
    15    27    35    1
    16    35    36    1
    17    27    28   ar
    18    28    29   ar
    19    29    31    1
    20    31    32    2
    21    31    33    1
    22    29    30   ar
    23     1     2   am
    24     2     3    2
    25     2     4    1
    26     4     5   ar
    27     5     6   ar
    28     6     7   ar
    29     7     8   ar
    30     8     9   ar
    31     9    10   ar
    32    10    11   ar
    33    11    12   ar
    34    12    13   ar
    35    22    16   ar
    36    30    25   ar
    37    13     4   ar
    38    11     6   ar
    39    36    37    1
    40    33    34    1
@<TRIPOS>MOLECULE
*****
 37 40 0 0 0
SMALL
GASTEIGER

@<TRIPOS>ATOM
      1 N         -28.4452   47.7443   -6.5132 N.am    1  UNL1       -0.2685
      2 C         -29.7056   47.7778   -7.2072 C.2     1  UNL1        0.2672
      3 O         -30.5837   46.9134   -6.9379 O.2     1  UNL1       -0.2682
      4 C         -29.9590   48.7867   -8.2560 C.ar    1  UNL1        0.1347
      5 C         -28.9730   49.1135   -9.2010 C.ar    1  UNL1        0.0238
      6 C         -29.2414   50.0890  -10.1702 C.ar    1  UNL1        0.0031
      7 C         -28.2773   50.4353  -11.1299 C.ar    1  UNL1        0.0001
      8 C         -28.5627   51.4117  -12.0894 C.ar    1  UNL1        0.0000
      9 C         -29.8076   52.0476  -12.0978 C.ar    1  UNL1        0.0000
     10 C         -30.7757   51.7115  -11.1468 C.ar    1  UNL1        0.0015
     11 C         -30.4992   50.7330  -10.1801 C.ar    1  UNL1        0.0192
     12 C         -31.4505   50.3792   -9.2162 C.ar    1  UNL1        0.0989
     13 N         -31.1589   49.4292   -8.2897 N.ar    1  UNL1       -0.2393
     14 C         -29.1990   49.4361   -4.8439 C.3     1  UNL1        0.0265
     15 C         -28.0403   48.9132   -5.7086 C.3     1  UNL1        0.1007
     16 C         -27.3940   49.9681   -6.5955 C.ar    1  UNL1        0.0234
     17 C         -27.9831   51.2330   -6.8062 C.ar    1  UNL1        0.0019
     18 C         -27.3854   52.1616   -7.6629 C.ar    1  UNL1        0.0295
     19 C         -26.2037   51.8402   -8.3321 C.ar    1  UNL1        0.1424
     20 F         -25.6283   52.7427   -9.1644 F       1  UNL1       -0.2041
     21 C         -25.6200   50.5855   -8.1512 C.ar    1  UNL1        0.0590
     22 C         -26.2112   49.6503   -7.2959 C.ar    1  UNL1        0.1399
     23 F         -25.6302   48.4310   -7.1576 F       1  UNL1       -0.2044
     24 C         -27.7302   46.4617   -6.4262 C.3     1  UNL1        0.1207
     25 C         -27.6861   45.9882   -4.9964 C.ar    1  UNL1       -0.0023
     26 C         -28.8698   45.8772   -4.2541 C.ar    1  UNL1       -0.0045
     27 C         -28.8296   45.5116   -2.9017 C.ar    1  UNL1        0.0069
     28 C         -27.5959   45.2260   -2.2972 C.ar    1  UNL1        0.0046
     29 C         -26.3991   45.3297   -3.0279 C.ar    1  UNL1        0.0750
     30 C         -26.4551   45.7273   -4.3751 C.ar    1  UNL1        0.0038
     31 C         -25.0875   45.0546   -2.3922 C.2     1  UNL1        0.3380
     32 O         -24.9961   44.1605   -1.5092 O.2     1  UNL1       -0.2451
     33 O         -23.9414   45.7721   -2.7330 O.3     1  UNL1       -0.4771
     34 H         -23.9626   46.5705   -3.3539 H       1  UNL1        0.2954
     35 C         -30.1047   45.3750   -2.1201 C.3     1  UNL1        0.1636
     36 O         -29.8787   45.7645   -0.7949 O.3     1  UNL1       -0.3772
     37 H         -30.7458   45.6553   -0.3244 H       1  UNL1        0.2109
@<TRIPOS>BOND
     1    14    15    1
     2    15    16    1
     3    16    17   ar
     4    17    18   ar
     5    18    19   ar
     6    19    20    1
     7    19    21   ar
     8    21    22   ar
     9    22    23    1
    10    15     1    1
    11     1    24    1
    12    24    25    1
    13    25    26   ar
    14    26    27   ar
    15    27    35    1
    16    35    36    1
    17    27    28   ar
    18    28    29   ar
    19    29    31    1
    20    31    32    2
    21    31    33    1
    22    29    30   ar
    23     1     2   am
    24     2     3    2
    25     2     4    1
    26     4     5   ar
    27     5     6   ar
    28     6     7   ar
    29     7     8   ar
    30     8     9   ar
    31     9    10   ar
    32    10    11   ar
    33    11    12   ar
    34    12    13   ar
    35    22    16   ar
    36    30    25   ar
    37    13     4   ar
    38    11     6   ar
    39    36    37    1
    40    33    34    1
