@<TRIPOS>MOLECULE
*****
 46 51 0 0 0
SMALL
GASTEIGER

@<TRIPOS>ATOM
      1 C          11.8487   80.9475   25.2737 C.ar    1  UNL1        0.0702
      2 C          13.2383   80.8495   25.1323 C.ar    1  UNL1        0.0191
      3 C          13.9800   81.9456   24.6897 C.ar    1  UNL1        0.0356
      4 C          13.3230   83.1474   24.3824 C.ar    1  UNL1        0.1318
      5 N          11.9664   83.2084   24.4890 N.ar    1  UNL1       -0.2279
      6 C          11.2240   82.1548   24.9205 C.ar    1  UNL1        0.1149
      7 N          14.0514   84.2931   23.9018 N.pl3   1  UNL1       -0.2932
      8 C          13.9149   85.5742   24.6109 C.3     1  UNL1        0.0923
      9 C          14.5434   86.7302   23.8176 C.3     1  UNL1        0.0252
     10 C          14.2133   86.5859   22.3205 C.3     1  UNL1        0.0472
     11 C          14.7705   85.2579   21.7378 C.3     1  UNL1        0.0252
     12 C          15.0239   84.1803   22.8056 C.3     1  UNL1        0.0923
     13 C          14.7294   87.8050   21.5328 C.3     1  UNL1        0.2054
     14 O          16.0670   87.5938   21.0771 O.3     1  UNL1       -0.4755
     15 C          17.2122   88.2355   21.5771 C.ar    1  UNL1        0.1388
     16 C          18.1678   88.8472   20.7439 C.ar    1  UNL1        0.0369
     17 C          19.2881   89.4688   21.2988 C.ar    1  UNL1        0.0033
     18 C          19.4671   89.4919   22.6834 C.ar    1  UNL1        0.0066
     19 C          18.5208   88.8919   23.5321 C.ar    1  UNL1        0.0785
     20 C          17.3952   88.2679   22.9655 C.ar    1  UNL1        0.0433
     21 C          18.7029   88.9140   25.0004 C.2     1  UNL1        0.3381
     22 O          17.7712   88.5439   25.7651 O.2     1  UNL1       -0.2451
     23 O          19.9068   89.3446   25.5522 O.3     1  UNL1       -0.4771
     24 H          20.0417   89.3637   26.5560 H       1  UNL1        0.2954
     25 C          10.1682   79.8274   26.8047 C.2     1  UNL1        0.2839
     26 O          10.3085   80.6730   27.7287 O.2     1  UNL1       -0.2665
     27 N          11.0937   79.8033   25.7077 N.am    1  UNL1       -0.2766
     28 H          11.3096   78.8782   25.2734 H       1  UNL1        0.1553
     29 C           5.4336   76.2619   26.3750 C.ar    1  UNL1       -0.0191
     30 C           6.1467   77.3412   25.8044 C.ar    1  UNL1        0.0332
     31 C           7.3160   77.7667   26.4241 C.ar    1  UNL1        0.1449
     32 O           8.1063   78.7421   26.0473 O.2     1  UNL1       -0.4492
     33 C           9.0955   78.8238   26.9197 C.ar    1  UNL1        0.1946
     34 C           8.9498   77.8355   27.9010 C.ar    1  UNL1        0.0202
     35 C           9.8455   77.5359   29.0650 C.3     1  UNL1        0.0345
     36 C           7.7832   77.1780   27.5652 C.ar    1  UNL1        0.0337
     37 C           7.1115   76.1200   28.1721 C.ar    1  UNL1        0.0025
     38 C           5.9226   75.6493   27.5733 C.ar    1  UNL1       -0.0038
     39 C           5.2122   74.5313   28.2245 C.ar    1  UNL1       -0.0003
     40 C           4.3951   74.7723   29.3399 C.ar    1  UNL1       -0.0000
     41 C           3.7357   73.7122   29.9697 C.ar    1  UNL1       -0.0000
     42 C           3.8970   72.4067   29.4962 C.ar    1  UNL1       -0.0000
     43 C           4.7216   72.1589   28.3949 C.ar    1  UNL1       -0.0000
     44 C           5.3826   73.2165   27.7627 C.ar    1  UNL1       -0.0000
     45 C           3.2108   77.0671   25.5611 C.3     1  UNL1        0.0050
     46 C           4.1199   75.8564   25.7462 C.3     1  UNL1        0.0265
@<TRIPOS>BOND
     1    45    46    1
     2    46    29    1
     3    29    30   ar
     4    30    31   ar
     5    31    32   ar
     6    32    33   ar
     7    33    25    1
     8    25    26    2
     9    25    27   am
    10    27     1    1
    11     1     2   ar
    12     2     3   ar
    13     3     4   ar
    14     4     7    1
    15     7     8    1
    16     8     9    1
    17     9    10    1
    18    10    13    1
    19    13    14    1
    20    14    15    1
    21    15    16   ar
    22    16    17   ar
    23    17    18   ar
    24    18    19   ar
    25    19    21    1
    26    21    22    2
    27    21    23    1
    28    19    20   ar
    29    10    11    1
    30    11    12    1
    31     4     5   ar
    32     5     6   ar
    33    33    34   ar
    34    34    35    1
    35    34    36   ar
    36    36    37   ar
    37    37    38   ar
    38    38    39    1
    39    39    40   ar
    40    40    41   ar
    41    41    42   ar
    42    42    43   ar
    43    43    44   ar
    44    38    29   ar
    45    44    39   ar
    46    36    31   ar
    47     6     1   ar
    48    12     7    1
    49    20    15   ar
    50    27    28    1
    51    23    24    1
@<TRIPOS>MOLECULE
*****
 46 51 0 0 0
SMALL
GASTEIGER

@<TRIPOS>ATOM
      1 C          11.8644   80.9610   25.2171 C.ar    1  UNL1        0.0702
      2 C          13.2623   80.8962   25.1701 C.ar    1  UNL1        0.0191
      3 C          14.0010   81.9732   24.6783 C.ar    1  UNL1        0.0356
      4 C          13.3327   83.1220   24.2264 C.ar    1  UNL1        0.1318
      5 N          11.9710   83.1481   24.2441 N.ar    1  UNL1       -0.2279
      6 C          11.2312   82.1123   24.7211 C.ar    1  UNL1        0.1149
      7 N          14.0592   84.2447   23.6916 N.pl3   1  UNL1       -0.2932
      8 C          13.7841   85.5894   24.2196 C.3     1  UNL1        0.0923
      9 C          14.4470   86.6801   23.3643 C.3     1  UNL1        0.0252
     10 C          14.2987   86.3434   21.8691 C.3     1  UNL1        0.0472
     11 C          14.9789   84.9916   21.5174 C.3     1  UNL1        0.0252
     12 C          15.1558   84.0624   22.7302 C.3     1  UNL1        0.0923
     13 C          14.8466   87.4907   20.9993 C.3     1  UNL1        0.2054
     14 O          13.9457   87.8046   19.9356 O.3     1  UNL1       -0.4755
     15 C          14.1589   87.5280   18.5750 C.ar    1  UNL1        0.1388
     16 C          14.1034   88.5202   17.5780 C.ar    1  UNL1        0.0369
     17 C          14.3223   88.1847   16.2405 C.ar    1  UNL1        0.0033
     18 C          14.6017   86.8643   15.8823 C.ar    1  UNL1        0.0066
     19 C          14.6675   85.8607   16.8642 C.ar    1  UNL1        0.0785
     20 C          14.4457   86.2067   18.2090 C.ar    1  UNL1        0.0433
     21 C          14.9648   84.4597   16.4923 C.2     1  UNL1        0.3381
     22 O          15.9908   83.8829   16.9444 O.2     1  UNL1       -0.2451
     23 O          14.1131   83.7641   15.6380 O.3     1  UNL1       -0.4771
     24 H          14.3075   82.8047   15.3771 H       1  UNL1        0.2954
     25 C          10.1480   79.9170   26.7620 C.2     1  UNL1        0.2839
     26 O          10.2382   80.8283   27.6281 O.2     1  UNL1       -0.2665
     27 N          11.1143   79.8349   25.7038 N.am    1  UNL1       -0.2766
     28 H          11.3630   78.8862   25.3444 H       1  UNL1        0.1553
     29 C           5.4963   76.2350   26.4170 C.ar    1  UNL1       -0.0191
     30 C           6.2102   77.2868   25.7979 C.ar    1  UNL1        0.0332
     31 C           7.3486   77.7775   26.4267 C.ar    1  UNL1        0.1449
     32 O           8.1344   78.7406   26.0108 O.2     1  UNL1       -0.4492
     33 C           9.0899   78.9022   26.9091 C.ar    1  UNL1        0.1946
     34 C           8.9267   77.9810   27.9511 C.ar    1  UNL1        0.0202
     35 C           9.7851   77.7804   29.1634 C.3     1  UNL1        0.0345
     36 C           7.7848   77.2783   27.6214 C.ar    1  UNL1        0.0337
     37 C           7.1107   76.2511   28.2768 C.ar    1  UNL1        0.0025
     38 C           5.9528   75.7163   27.6712 C.ar    1  UNL1       -0.0038
     39 C           5.2395   74.6315   28.3734 C.ar    1  UNL1       -0.0003
     40 C           5.2927   73.3195   27.8778 C.ar    1  UNL1       -0.0000
     41 C           4.6028   72.2935   28.5309 C.ar    1  UNL1       -0.0000
     42 C           3.8485   72.5739   29.6741 C.ar    1  UNL1       -0.0000
     43 C           3.7796   73.8816   30.1633 C.ar    1  UNL1       -0.0000
     44 C           4.4682   74.9101   29.5129 C.ar    1  UNL1       -0.0000
     45 C           3.3638   76.9440   25.3209 C.3     1  UNL1        0.0050
     46 C           4.2136   75.7606   25.7727 C.3     1  UNL1        0.0265
@<TRIPOS>BOND
     1    45    46    1
     2    46    29    1
     3    29    30   ar
     4    30    31   ar
     5    31    32   ar
     6    32    33   ar
     7    33    25    1
     8    25    26    2
     9    25    27   am
    10    27     1    1
    11     1     2   ar
    12     2     3   ar
    13     3     4   ar
    14     4     7    1
    15     7     8    1
    16     8     9    1
    17     9    10    1
    18    10    13    1
    19    13    14    1
    20    14    15    1
    21    15    16   ar
    22    16    17   ar
    23    17    18   ar
    24    18    19   ar
    25    19    21    1
    26    21    22    2
    27    21    23    1
    28    19    20   ar
    29    10    11    1
    30    11    12    1
    31     4     5   ar
    32     5     6   ar
    33    33    34   ar
    34    34    35    1
    35    34    36   ar
    36    36    37   ar
    37    37    38   ar
    38    38    39    1
    39    39    40   ar
    40    40    41   ar
    41    41    42   ar
    42    42    43   ar
    43    43    44   ar
    44    38    29   ar
    45    44    39   ar
    46    36    31   ar
    47     6     1   ar
    48    12     7    1
    49    20    15   ar
    50    27    28    1
    51    23    24    1
@<TRIPOS>MOLECULE
*****
 46 51 0 0 0
SMALL
GASTEIGER

@<TRIPOS>ATOM
      1 C          11.9039   81.0468   25.2585 C.ar    1  UNL1        0.0702
      2 C          13.3024   81.0305   25.3256 C.ar    1  UNL1        0.0191
      3 C          14.0416   82.1251   24.8754 C.ar    1  UNL1        0.0356
      4 C          13.3738   83.2425   24.3500 C.ar    1  UNL1        0.1318
      5 N          12.0150   83.2208   24.2573 N.ar    1  UNL1       -0.2279
      6 C          11.2744   82.1671   24.6920 C.ar    1  UNL1        0.1149
      7 N          14.1028   84.3817   23.8551 N.pl3   1  UNL1       -0.2932
      8 C          14.0916   85.6291   24.6338 C.3     1  UNL1        0.0923
      9 C          14.6918   86.7986   23.8383 C.3     1  UNL1        0.0252
     10 C          14.2141   86.7443   22.3755 C.3     1  UNL1        0.0472
     11 C          14.6538   85.4269   21.6791 C.3     1  UNL1        0.0252
     12 C          14.9602   84.2869   22.6651 C.3     1  UNL1        0.0923
     13 C          14.7059   87.9809   21.5996 C.3     1  UNL1        0.2054
     14 O          14.7798   87.7124   20.1981 O.3     1  UNL1       -0.4755
     15 C          13.9008   88.2111   19.2226 C.ar    1  UNL1        0.1388
     16 C          12.5945   88.6416   19.5226 C.ar    1  UNL1        0.0369
     17 C          11.7650   89.1266   18.5095 C.ar    1  UNL1        0.0033
     18 C          12.2257   89.1920   17.1930 C.ar    1  UNL1        0.0066
     19 C          13.5290   88.7727   16.8749 C.ar    1  UNL1        0.0785
     20 C          14.3582   88.2854   17.9007 C.ar    1  UNL1        0.0433
     21 C          14.0247   88.8408   15.4823 C.2     1  UNL1        0.3381
     22 O          15.2564   88.9750   15.2487 O.2     1  UNL1       -0.2451
     23 O          13.1340   88.7575   14.4151 O.3     1  UNL1       -0.4771
     24 H          13.4629   88.8031   13.4580 H       1  UNL1        0.2954
     25 C          10.2347   79.9304   26.8047 C.2     1  UNL1        0.2839
     26 O          10.3759   80.7828   27.7224 O.2     1  UNL1       -0.2665
     27 N          11.1553   79.9025   25.7037 N.am    1  UNL1       -0.2766
     28 H          11.3728   78.9754   25.2746 H       1  UNL1        0.1553
     29 C           5.5324   76.3197   26.3992 C.ar    1  UNL1       -0.0191
     30 C           6.2494   77.3852   25.8079 C.ar    1  UNL1        0.0332
     31 C           7.4037   77.8385   26.4359 C.ar    1  UNL1        0.1449
     32 O           8.1949   78.8069   26.0432 O.2     1  UNL1       -0.4492
     33 C           9.1665   78.9235   26.9313 C.ar    1  UNL1        0.1946
     34 C           9.0082   77.9661   27.9409 C.ar    1  UNL1        0.0202
     35 C           9.8831   77.7102   29.1308 C.3     1  UNL1        0.0345
     36 C           7.8525   77.2900   27.6041 C.ar    1  UNL1        0.0337
     37 C           7.1760   76.2472   28.2317 C.ar    1  UNL1        0.0025
     38 C           6.0021   75.7492   27.6257 C.ar    1  UNL1       -0.0038
     39 C           5.2864   74.6476   28.2987 C.ar    1  UNL1       -0.0003
     40 C           5.3753   73.3405   27.7952 C.ar    1  UNL1       -0.0000
     41 C           4.6834   72.2985   28.4202 C.ar    1  UNL1       -0.0000
     42 C           3.8918   72.5577   29.5430 C.ar    1  UNL1       -0.0000
     43 C           3.7875   73.8602   30.0398 C.ar    1  UNL1       -0.0000
     44 C           4.4779   74.9047   29.4174 C.ar    1  UNL1       -0.0000
     45 C           3.3036   77.0767   25.5560 C.3     1  UNL1        0.0050
     46 C           4.2337   75.8850   25.7587 C.3     1  UNL1        0.0265
@<TRIPOS>BOND
     1    45    46    1
     2    46    29    1
     3    29    30   ar
     4    30    31   ar
     5    31    32   ar
     6    32    33   ar
     7    33    25    1
     8    25    26    2
     9    25    27   am
    10    27     1    1
    11     1     2   ar
    12     2     3   ar
    13     3     4   ar
    14     4     7    1
    15     7     8    1
    16     8     9    1
    17     9    10    1
    18    10    13    1
    19    13    14    1
    20    14    15    1
    21    15    16   ar
    22    16    17   ar
    23    17    18   ar
    24    18    19   ar
    25    19    21    1
    26    21    22    2
    27    21    23    1
    28    19    20   ar
    29    10    11    1
    30    11    12    1
    31     4     5   ar
    32     5     6   ar
    33    33    34   ar
    34    34    35    1
    35    34    36   ar
    36    36    37   ar
    37    37    38   ar
    38    38    39    1
    39    39    40   ar
    40    40    41   ar
    41    41    42   ar
    42    42    43   ar
    43    43    44   ar
    44    38    29   ar
    45    44    39   ar
    46    36    31   ar
    47     6     1   ar
    48    12     7    1
    49    20    15   ar
    50    27    28    1
    51    23    24    1
@<TRIPOS>MOLECULE
*****
 46 51 0 0 0
SMALL
GASTEIGER

@<TRIPOS>ATOM
      1 C          10.5411   80.9184   24.9400 C.ar    1  UNL1        0.0702
      2 C          10.2588   80.3207   23.7057 C.ar    1  UNL1        0.0191
      3 C           9.5255   79.1347   23.6490 C.ar    1  UNL1        0.0356
      4 C           9.0756   78.5415   24.8391 C.ar    1  UNL1        0.1318
      5 N           9.3956   79.1186   26.0307 N.ar    1  UNL1       -0.2279
      6 C          10.1060   80.2746   26.1100 C.ar    1  UNL1        0.1149
      7 N           8.3353   77.3063   24.8224 N.pl3   1  UNL1       -0.2932
      8 C           8.8971   76.1286   25.5008 C.3     1  UNL1        0.0923
      9 C           8.1126   74.8519   25.1613 C.3     1  UNL1        0.0252
     10 C           7.7481   74.8365   23.6653 C.3     1  UNL1        0.0472
     11 C           6.8587   76.0511   23.2812 C.3     1  UNL1        0.0252
     12 C           6.9793   77.2311   24.2603 C.3     1  UNL1        0.0923
     13 C           7.0734   73.5044   23.2866 C.3     1  UNL1        0.2054
     14 O           7.8366   72.8032   22.3030 O.3     1  UNL1       -0.4755
     15 C           9.2368   72.8168   22.1919 C.ar    1  UNL1        0.1388
     16 C          10.0338   71.6892   22.4653 C.ar    1  UNL1        0.0369
     17 C          11.4224   71.7635   22.3390 C.ar    1  UNL1        0.0033
     18 C          12.0302   72.9546   21.9372 C.ar    1  UNL1        0.0066
     19 C          11.2508   74.0894   21.6538 C.ar    1  UNL1        0.0785
     20 C           9.8530   74.0066   21.7833 C.ar    1  UNL1        0.0433
     21 C          11.8878   75.3545   21.2256 C.2     1  UNL1        0.3381
     22 O          12.2135   76.2257   22.0770 O.2     1  UNL1       -0.2451
     23 O          12.1338   75.5953   19.8763 O.3     1  UNL1       -0.4771
     24 H          12.5693   76.4581   19.5726 H       1  UNL1        0.2954
     25 C          12.7173   82.1890   24.6708 C.2     1  UNL1        0.2839
     26 O          13.4387   81.1640   24.8041 O.2     1  UNL1       -0.2665
     27 N          11.3182   82.1274   24.9857 N.am    1  UNL1       -0.2766
     28 H          10.8685   82.9866   25.3738 H       1  UNL1        0.1553
     29 C          14.3494   87.7576   23.3899 C.ar    1  UNL1       -0.0191
     30 C          13.3420   86.9228   23.9260 C.ar    1  UNL1        0.0332
     31 C          13.5686   85.5521   23.9697 C.ar    1  UNL1        0.1449
     32 O          12.7608   84.6265   24.4265 O.2     1  UNL1       -0.4492
     33 C          13.3538   83.4560   24.2700 C.ar    1  UNL1        0.1946
     34 C          14.6211   83.6348   23.7018 C.ar    1  UNL1        0.0202
     35 C          15.6522   82.5975   23.3734 C.3     1  UNL1        0.0345
     36 C          14.7268   84.9970   23.5034 C.ar    1  UNL1        0.0337
     37 C          15.7438   85.7746   22.9558 C.ar    1  UNL1        0.0025
     38 C          15.5605   87.1734   22.8977 C.ar    1  UNL1       -0.0038
     39 C          16.6398   87.9918   22.3111 C.ar    1  UNL1       -0.0003
     40 C          16.5681   88.3906   20.9673 C.ar    1  UNL1       -0.0000
     41 C          17.5981   89.1504   20.4043 C.ar    1  UNL1       -0.0000
     42 C          18.7083   89.5061   21.1759 C.ar    1  UNL1       -0.0000
     43 C          18.7921   89.0987   22.5105 C.ar    1  UNL1       -0.0000
     44 C          17.7641   88.3389   23.0769 C.ar    1  UNL1       -0.0000
     45 C          13.0589   89.5067   22.1541 C.3     1  UNL1        0.0050
     46 C          14.0661   89.2376   23.2676 C.3     1  UNL1        0.0265
@<TRIPOS>BOND
     1    45    46    1
     2    46    29    1
     3    29    30   ar
     4    30    31   ar
     5    31    32   ar
     6    32    33   ar
     7    33    25    1
     8    25    26    2
     9    25    27   am
    10    27     1    1
    11     1     2   ar
    12     2     3   ar
    13     3     4   ar
    14     4     7    1
    15     7     8    1
    16     8     9    1
    17     9    10    1
    18    10    13    1
    19    13    14    1
    20    14    15    1
    21    15    16   ar
    22    16    17   ar
    23    17    18   ar
    24    18    19   ar
    25    19    21    1
    26    21    22    2
    27    21    23    1
    28    19    20   ar
    29    10    11    1
    30    11    12    1
    31     4     5   ar
    32     5     6   ar
    33    33    34   ar
    34    34    35    1
    35    34    36   ar
    36    36    37   ar
    37    37    38   ar
    38    38    39    1
    39    39    40   ar
    40    40    41   ar
    41    41    42   ar
    42    42    43   ar
    43    43    44   ar
    44    38    29   ar
    45    44    39   ar
    46    36    31   ar
    47     6     1   ar
    48    12     7    1
    49    20    15   ar
    50    27    28    1
    51    23    24    1
@<TRIPOS>MOLECULE
*****
 46 51 0 0 0
SMALL
GASTEIGER

@<TRIPOS>ATOM
      1 C          11.4847   80.6965   25.1783 C.ar    1  UNL1        0.0702
      2 C          12.8598   80.4795   25.0281 C.ar    1  UNL1        0.0191
      3 C          13.7110   81.5424   24.7228 C.ar    1  UNL1        0.0356
      4 C          13.1789   82.8315   24.5627 C.ar    1  UNL1        0.1318
      5 N          11.8336   83.0128   24.6739 N.ar    1  UNL1       -0.2279
      6 C          10.9858   81.9933   24.9733 C.ar    1  UNL1        0.1149
      7 N          14.0223   83.9492   24.2257 N.pl3   1  UNL1       -0.2932
      8 C          13.8632   85.2110   24.9640 C.3     1  UNL1        0.0923
      9 C          14.6484   86.3555   24.3049 C.3     1  UNL1        0.0252
     10 C          14.5066   86.2815   22.7734 C.3     1  UNL1        0.0472
     11 C          15.0637   84.9443   22.2117 C.3     1  UNL1        0.0252
     12 C          15.1205   83.8183   23.2578 C.3     1  UNL1        0.0923
     13 C          15.1831   87.4952   22.1082 C.3     1  UNL1        0.2054
     14 O          14.6834   87.7012   20.7856 O.3     1  UNL1       -0.4755
     15 C          14.2740   86.6910   19.8996 C.ar    1  UNL1        0.1388
     16 C          12.9198   86.3914   19.6589 C.ar    1  UNL1        0.0369
     17 C          12.5734   85.3738   18.7678 C.ar    1  UNL1        0.0033
     18 C          13.5666   84.6488   18.1061 C.ar    1  UNL1        0.0066
     19 C          14.9241   84.9374   18.3287 C.ar    1  UNL1        0.0785
     20 C          15.2648   85.9637   19.2276 C.ar    1  UNL1        0.0433
     21 C          15.9820   84.1746   17.6297 C.2     1  UNL1        0.3381
     22 O          16.7712   83.4357   18.2786 O.2     1  UNL1       -0.2451
     23 O          16.1163   84.2660   16.2467 O.3     1  UNL1       -0.4771
     24 H          16.8371   83.7480   15.7585 H       1  UNL1        0.2954
     25 C          11.0787   78.3114   25.9329 C.2     1  UNL1        0.2839
     26 O          12.2489   77.9294   25.6619 O.2     1  UNL1       -0.2665
     27 N          10.6155   79.5885   25.4691 N.am    1  UNL1       -0.2766
     28 H           9.6038   79.6804   25.2265 H       1  UNL1        0.1553
     29 C           8.3209   74.4508   29.5112 C.ar    1  UNL1       -0.0191
     30 C           9.5095   75.1727   29.2555 C.ar    1  UNL1        0.0332
     31 C           9.5507   76.0147   28.1503 C.ar    1  UNL1        0.1449
     32 O          10.5546   76.7585   27.7541 O.2     1  UNL1       -0.4492
     33 C          10.1826   77.3916   26.6555 C.ar    1  UNL1        0.1946
     34 C           8.8611   77.0568   26.3353 C.ar    1  UNL1        0.0202
     35 C           8.0209   77.5541   25.1980 C.3     1  UNL1        0.0345
     36 C           8.4834   76.1533   27.3086 C.ar    1  UNL1        0.0337
     37 C           7.2952   75.4558   27.5105 C.ar    1  UNL1        0.0025
     38 C           7.2051   74.5942   28.6253 C.ar    1  UNL1       -0.0038
     39 C           5.9450   73.8534   28.8308 C.ar    1  UNL1       -0.0003
     40 C           5.0408   74.2660   29.8218 C.ar    1  UNL1       -0.0000
     41 C           3.8550   73.5550   30.0306 C.ar    1  UNL1       -0.0000
     42 C           3.5717   72.4237   29.2596 C.ar    1  UNL1       -0.0000
     43 C           4.4758   71.9994   28.2816 C.ar    1  UNL1       -0.0000
     44 C           5.6625   72.7079   28.0699 C.ar    1  UNL1       -0.0000
     45 C           9.7235   73.0227   31.0095 C.3     1  UNL1        0.0050
     46 C           8.3078   73.4740   30.6650 C.3     1  UNL1        0.0265
@<TRIPOS>BOND
     1    45    46    1
     2    46    29    1
     3    29    30   ar
     4    30    31   ar
     5    31    32   ar
     6    32    33   ar
     7    33    25    1
     8    25    26    2
     9    25    27   am
    10    27     1    1
    11     1     2   ar
    12     2     3   ar
    13     3     4   ar
    14     4     7    1
    15     7     8    1
    16     8     9    1
    17     9    10    1
    18    10    13    1
    19    13    14    1
    20    14    15    1
    21    15    16   ar
    22    16    17   ar
    23    17    18   ar
    24    18    19   ar
    25    19    21    1
    26    21    22    2
    27    21    23    1
    28    19    20   ar
    29    10    11    1
    30    11    12    1
    31     4     5   ar
    32     5     6   ar
    33    33    34   ar
    34    34    35    1
    35    34    36   ar
    36    36    37   ar
    37    37    38   ar
    38    38    39    1
    39    39    40   ar
    40    40    41   ar
    41    41    42   ar
    42    42    43   ar
    43    43    44   ar
    44    38    29   ar
    45    44    39   ar
    46    36    31   ar
    47     6     1   ar
    48    12     7    1
    49    20    15   ar
    50    27    28    1
    51    23    24    1
@<TRIPOS>MOLECULE
*****
 46 51 0 0 0
SMALL
GASTEIGER

@<TRIPOS>ATOM
      1 C           9.8847   79.9397   24.1304 C.ar    1  UNL1        0.0702
      2 C           9.4669   79.7859   22.8029 C.ar    1  UNL1        0.0191
      3 C           8.8538   78.6021   22.3904 C.ar    1  UNL1        0.0356
      4 C           8.6621   77.5633   23.3149 C.ar    1  UNL1        0.1318
      5 N           9.1120   77.7189   24.5910 N.ar    1  UNL1       -0.2279
      6 C           9.7093   78.8637   25.0158 C.ar    1  UNL1        0.1149
      7 N           8.0534   76.3187   22.9216 N.pl3   1  UNL1       -0.2932
      8 C           8.3470   75.7707   21.5889 C.3     1  UNL1        0.0923
      9 C           7.4207   74.5945   21.2438 C.3     1  UNL1        0.0252
     10 C           5.9830   74.9005   21.7027 C.3     1  UNL1        0.0472
     11 C           5.9085   75.1230   23.2385 C.3     1  UNL1        0.0252
     12 C           7.2553   75.5223   23.8646 C.3     1  UNL1        0.0923
     13 C           5.0216   73.7854   21.2495 C.3     1  UNL1        0.2054
     14 O           3.9014   74.3269   20.5470 O.3     1  UNL1       -0.4755
     15 C           3.5210   75.6790   20.5325 C.ar    1  UNL1        0.1388
     16 C           4.0034   76.5960   19.5797 C.ar    1  UNL1        0.0369
     17 C           3.5906   77.9294   19.6166 C.ar    1  UNL1        0.0033
     18 C           2.6939   78.3621   20.5956 C.ar    1  UNL1        0.0066
     19 C           2.1964   77.4600   21.5518 C.ar    1  UNL1        0.0785
     20 C           2.6170   76.1188   21.5080 C.ar    1  UNL1        0.0433
     21 C           1.2446   77.9109   22.5911 C.2     1  UNL1        0.3381
     22 O           1.2738   77.4063   23.7462 O.2     1  UNL1       -0.2451
     23 O           0.3059   78.8984   22.3026 O.3     1  UNL1       -0.4771
     24 H          -0.3503   79.2142   23.0069 H       1  UNL1        0.2954
     25 C          11.9467   81.2598   24.7850 C.2     1  UNL1        0.2839
     26 O          12.6032   80.2399   25.1277 O.2     1  UNL1       -0.2665
     27 N          10.5368   81.1553   24.5364 N.am    1  UNL1       -0.2766
     28 H           9.9392   81.9797   24.7692 H       1  UNL1        0.1553
     29 C          14.2861   86.5835   23.5603 C.ar    1  UNL1       -0.0191
     30 C          13.4529   85.5345   23.1080 C.ar    1  UNL1        0.0332
     31 C          13.2630   84.4333   23.9346 C.ar    1  UNL1        0.1449
     32 O          12.5330   83.3723   23.6910 O.2     1  UNL1       -0.4492
     33 C          12.6367   82.5605   24.7285 C.ar    1  UNL1        0.1946
     34 C          13.4600   83.1355   25.7046 C.ar    1  UNL1        0.0202
     35 C          13.8344   82.5905   27.0498 C.3     1  UNL1        0.0345
     36 C          13.8635   84.3375   25.1582 C.ar    1  UNL1        0.0337
     37 C          14.7017   85.3378   25.6438 C.ar    1  UNL1        0.0025
     38 C          14.9179   86.4791   24.8411 C.ar    1  UNL1       -0.0038
     39 C          15.8118   87.5334   25.3588 C.ar    1  UNL1       -0.0003
     40 C          17.1082   87.6733   24.8393 C.ar    1  UNL1       -0.0000
     41 C          17.9632   88.6595   25.3409 C.ar    1  UNL1       -0.0000
     42 C          17.5326   89.5026   26.3696 C.ar    1  UNL1       -0.0000
     43 C          16.2478   89.3579   26.9011 C.ar    1  UNL1       -0.0000
     44 C          15.3901   88.3729   26.4021 C.ar    1  UNL1       -0.0000
     45 C          13.2548   88.4199   22.2129 C.3     1  UNL1        0.0050
     46 C          14.5566   87.7402   22.6252 C.3     1  UNL1        0.0265
@<TRIPOS>BOND
     1    45    46    1
     2    46    29    1
     3    29    30   ar
     4    30    31   ar
     5    31    32   ar
     6    32    33   ar
     7    33    25    1
     8    25    26    2
     9    25    27   am
    10    27     1    1
    11     1     2   ar
    12     2     3   ar
    13     3     4   ar
    14     4     7    1
    15     7     8    1
    16     8     9    1
    17     9    10    1
    18    10    13    1
    19    13    14    1
    20    14    15    1
    21    15    16   ar
    22    16    17   ar
    23    17    18   ar
    24    18    19   ar
    25    19    21    1
    26    21    22    2
    27    21    23    1
    28    19    20   ar
    29    10    11    1
    30    11    12    1
    31     4     5   ar
    32     5     6   ar
    33    33    34   ar
    34    34    35    1
    35    34    36   ar
    36    36    37   ar
    37    37    38   ar
    38    38    39    1
    39    39    40   ar
    40    40    41   ar
    41    41    42   ar
    42    42    43   ar
    43    43    44   ar
    44    38    29   ar
    45    44    39   ar
    46    36    31   ar
    47     6     1   ar
    48    12     7    1
    49    20    15   ar
    50    27    28    1
    51    23    24    1
@<TRIPOS>MOLECULE
*****
 46 51 0 0 0
SMALL
GASTEIGER

@<TRIPOS>ATOM
      1 C          10.4763   80.9325   25.0468 C.ar    1  UNL1        0.0702
      2 C          10.2684   80.3006   23.8148 C.ar    1  UNL1        0.0191
      3 C           9.4698   79.1589   23.7350 C.ar    1  UNL1        0.0356
      4 C           8.8790   78.6447   24.8999 C.ar    1  UNL1        0.1318
      5 N           9.1269   79.2519   26.0936 N.ar    1  UNL1       -0.2279
      6 C           9.8988   80.3661   26.1949 C.ar    1  UNL1        0.1149
      7 N           8.0667   77.4560   24.8611 N.pl3   1  UNL1       -0.2932
      8 C           6.6933   77.5130   25.3835 C.3     1  UNL1        0.0923
      9 C           6.0745   76.1118   25.5036 C.3     1  UNL1        0.0252
     10 C           7.1160   75.1183   26.0506 C.3     1  UNL1        0.0472
     11 C           8.3495   75.0090   25.1124 C.3     1  UNL1        0.0252
     12 C           8.5304   76.2304   24.1954 C.3     1  UNL1        0.0923
     13 C           6.4727   73.7402   26.2953 C.3     1  UNL1        0.2054
     14 O           5.4889   73.8085   27.3292 O.3     1  UNL1       -0.4755
     15 C           5.6560   74.4314   28.5771 C.ar    1  UNL1        0.1388
     16 C           6.7410   74.1514   29.4292 C.ar    1  UNL1        0.0369
     17 C           6.8533   74.8013   30.6598 C.ar    1  UNL1        0.0033
     18 C           5.8932   75.7359   31.0528 C.ar    1  UNL1        0.0066
     19 C           4.8060   76.0334   30.2131 C.ar    1  UNL1        0.0785
     20 C           4.7000   75.3747   28.9752 C.ar    1  UNL1        0.0433
     21 C           3.7858   77.0241   30.6220 C.2     1  UNL1        0.3381
     22 O           4.1205   78.2067   30.9033 O.2     1  UNL1       -0.2451
     23 O           2.4442   76.6589   30.7004 O.3     1  UNL1       -0.4771
     24 H           1.7379   77.3293   30.9794 H       1  UNL1        0.2954
     25 C          12.6733   82.1282   24.6391 C.2     1  UNL1        0.2839
     26 O          13.3459   81.0642   24.5747 O.2     1  UNL1       -0.2665
     27 N          11.3209   82.0941   25.1189 N.am    1  UNL1       -0.2766
     28 H          10.9706   82.9246   25.6465 H       1  UNL1        0.1553
     29 C          14.3850   87.7234   23.6005 C.ar    1  UNL1       -0.0191
     30 C          13.3647   86.8805   24.0982 C.ar    1  UNL1        0.0332
     31 C          13.5725   85.5061   24.0840 C.ar    1  UNL1        0.1449
     32 O          12.7508   84.5731   24.4990 O.2     1  UNL1       -0.4492
     33 C          13.3282   83.4023   24.2941 C.ar    1  UNL1        0.1946
     34 C          14.5995   83.5876   23.7369 C.ar    1  UNL1        0.0202
     35 C          15.6173   82.5512   23.3670 C.3     1  UNL1        0.0345
     36 C          14.7243   84.9555   23.5970 C.ar    1  UNL1        0.0337
     37 C          15.7535   85.7417   23.0854 C.ar    1  UNL1        0.0025
     38 C          15.5894   87.1440   23.0867 C.ar    1  UNL1       -0.0038
     39 C          16.6814   87.9717   22.5379 C.ar    1  UNL1       -0.0003
     40 C          16.6607   88.3579   21.1887 C.ar    1  UNL1       -0.0000
     41 C          17.7033   89.1266   20.6621 C.ar    1  UNL1       -0.0000
     42 C          18.7756   89.5038   21.4759 C.ar    1  UNL1       -0.0000
     43 C          18.8090   89.1092   22.8165 C.ar    1  UNL1       -0.0000
     44 C          17.7682   88.3405   23.3466 C.ar    1  UNL1       -0.0000
     45 C          12.8656   89.5075   22.7286 C.3     1  UNL1        0.0050
     46 C          14.1223   89.2110   23.5408 C.3     1  UNL1        0.0265
@<TRIPOS>BOND
     1    45    46    1
     2    46    29    1
     3    29    30   ar
     4    30    31   ar
     5    31    32   ar
     6    32    33   ar
     7    33    25    1
     8    25    26    2
     9    25    27   am
    10    27     1    1
    11     1     2   ar
    12     2     3   ar
    13     3     4   ar
    14     4     7    1
    15     7     8    1
    16     8     9    1
    17     9    10    1
    18    10    13    1
    19    13    14    1
    20    14    15    1
    21    15    16   ar
    22    16    17   ar
    23    17    18   ar
    24    18    19   ar
    25    19    21    1
    26    21    22    2
    27    21    23    1
    28    19    20   ar
    29    10    11    1
    30    11    12    1
    31     4     5   ar
    32     5     6   ar
    33    33    34   ar
    34    34    35    1
    35    34    36   ar
    36    36    37   ar
    37    37    38   ar
    38    38    39    1
    39    39    40   ar
    40    40    41   ar
    41    41    42   ar
    42    42    43   ar
    43    43    44   ar
    44    38    29   ar
    45    44    39   ar
    46    36    31   ar
    47     6     1   ar
    48    12     7    1
    49    20    15   ar
    50    27    28    1
    51    23    24    1
@<TRIPOS>MOLECULE
*****
 46 51 0 0 0
SMALL
GASTEIGER

@<TRIPOS>ATOM
      1 C          11.4344   80.9858   25.1780 C.ar    1  UNL1        0.0702
      2 C          12.2348   81.5275   26.1912 C.ar    1  UNL1        0.0191
      3 C          13.0780   82.6062   25.9214 C.ar    1  UNL1        0.0356
      4 C          13.1220   83.1430   24.6251 C.ar    1  UNL1        0.1318
      5 N          12.3649   82.5753   23.6454 N.ar    1  UNL1       -0.2279
      6 C          11.5346   81.5263   23.8856 C.ar    1  UNL1        0.1149
      7 N          13.9957   84.2417   24.3028 N.pl3   1  UNL1       -0.2932
      8 C          14.0671   85.3891   25.2198 C.3     1  UNL1        0.0923
      9 C          14.8347   86.5651   24.5965 C.3     1  UNL1        0.0252
     10 C          14.4453   86.7259   23.1154 C.3     1  UNL1        0.0472
     11 C          14.7868   85.4527   22.2932 C.3     1  UNL1        0.0252
     12 C          14.9104   84.1840   23.1538 C.3     1  UNL1        0.0923
     13 C          15.1112   87.9781   22.5140 C.3     1  UNL1        0.2054
     14 O          14.1381   88.8498   21.9353 O.3     1  UNL1       -0.4755
     15 C          13.3629   88.5697   20.7979 C.ar    1  UNL1        0.1388
     16 C          11.9924   88.8801   20.7146 C.ar    1  UNL1        0.0369
     17 C          11.2725   88.5757   19.5575 C.ar    1  UNL1        0.0033
     18 C          11.9068   87.9652   18.4737 C.ar    1  UNL1        0.0066
     19 C          13.2759   87.6531   18.5357 C.ar    1  UNL1        0.0785
     20 C          13.9939   87.9628   19.7044 C.ar    1  UNL1        0.0433
     21 C          13.9552   87.0078   17.3904 C.2     1  UNL1        0.3381
     22 O          13.9040   87.5268   16.2424 O.2     1  UNL1       -0.2451
     23 O          14.6583   85.8192   17.5699 O.3     1  UNL1       -0.4771
     24 H          15.1268   85.3693   16.7926 H       1  UNL1        0.2954
     25 C          11.0804   78.5763   25.8793 C.2     1  UNL1        0.2839
     26 O          12.2468   78.2172   25.5646 O.2     1  UNL1       -0.2665
     27 N          10.5880   79.8590   25.4637 N.am    1  UNL1       -0.2766
     28 H           9.5685   79.9439   25.2528 H       1  UNL1        0.1553
     29 C           8.5105   74.4896   29.3446 C.ar    1  UNL1       -0.0191
     30 C           9.7022   75.1837   29.0329 C.ar    1  UNL1        0.0332
     31 C           9.6726   76.1313   28.0164 C.ar    1  UNL1        0.1449
     32 O          10.6674   76.8693   27.5877 O.2     1  UNL1       -0.4492
     33 C          10.2172   77.6257   26.6021 C.ar    1  UNL1        0.1946
     34 C           8.8541   77.3803   26.3959 C.ar    1  UNL1        0.0202
     35 C           7.9277   78.0250   25.4095 C.3     1  UNL1        0.0345
     36 C           8.5326   76.3989   27.3123 C.ar    1  UNL1        0.0337
     37 C           7.3370   75.7344   27.5731 C.ar    1  UNL1        0.0025
     38 C           7.3180   74.7684   28.6026 C.ar    1  UNL1       -0.0038
     39 C           6.0492   74.0634   28.8705 C.ar    1  UNL1       -0.0003
     40 C           5.2056   74.5025   29.9028 C.ar    1  UNL1       -0.0000
     41 C           4.0120   73.8252   30.1704 C.ar    1  UNL1       -0.0000
     42 C           3.6603   72.7012   29.4170 C.ar    1  UNL1       -0.0000
     43 C           4.5041   72.2505   28.3976 C.ar    1  UNL1       -0.0000
     44 C           5.6985   72.9252   28.1271 C.ar    1  UNL1       -0.0000
     45 C           9.9846   73.2374   30.9292 C.3     1  UNL1        0.0050
     46 C           8.5661   73.4018   30.3931 C.3     1  UNL1        0.0265
@<TRIPOS>BOND
     1    45    46    1
     2    46    29    1
     3    29    30   ar
     4    30    31   ar
     5    31    32   ar
     6    32    33   ar
     7    33    25    1
     8    25    26    2
     9    25    27   am
    10    27     1    1
    11     1     2   ar
    12     2     3   ar
    13     3     4   ar
    14     4     7    1
    15     7     8    1
    16     8     9    1
    17     9    10    1
    18    10    13    1
    19    13    14    1
    20    14    15    1
    21    15    16   ar
    22    16    17   ar
    23    17    18   ar
    24    18    19   ar
    25    19    21    1
    26    21    22    2
    27    21    23    1
    28    19    20   ar
    29    10    11    1
    30    11    12    1
    31     4     5   ar
    32     5     6   ar
    33    33    34   ar
    34    34    35    1
    35    34    36   ar
    36    36    37   ar
    37    37    38   ar
    38    38    39    1
    39    39    40   ar
    40    40    41   ar
    41    41    42   ar
    42    42    43   ar
    43    43    44   ar
    44    38    29   ar
    45    44    39   ar
    46    36    31   ar
    47     6     1   ar
    48    12     7    1
    49    20    15   ar
    50    27    28    1
    51    23    24    1
@<TRIPOS>MOLECULE
*****
 46 51 0 0 0
SMALL
GASTEIGER

@<TRIPOS>ATOM
      1 C           9.8509   80.4716   24.2964 C.ar    1  UNL1        0.0702
      2 C           9.6203   80.1203   22.9608 C.ar    1  UNL1        0.0191
      3 C           8.9418   78.9411   22.6500 C.ar    1  UNL1        0.0356
      4 C           8.4952   78.1058   23.6860 C.ar    1  UNL1        0.1318
      5 N           8.7652   78.4468   24.9768 N.ar    1  UNL1       -0.2279
      6 C           9.4217   79.5915   25.3032 C.ar    1  UNL1        0.1149
      7 N           7.8112   76.8701   23.4045 N.pl3   1  UNL1       -0.2932
      8 C           7.5965   75.9087   24.4965 C.3     1  UNL1        0.0923
      9 C           7.0956   74.5554   23.9690 C.3     1  UNL1        0.0252
     10 C           7.8525   74.1755   22.6830 C.3     1  UNL1        0.0472
     11 C           7.6358   75.2273   21.5603 C.3     1  UNL1        0.0252
     12 C           7.2101   76.6073   22.0892 C.3     1  UNL1        0.0923
     13 C           7.4499   72.7639   22.2154 C.3     1  UNL1        0.2054
     14 O           8.5942   71.9167   22.0946 O.3     1  UNL1       -0.4755
     15 C           9.9326   72.3424   22.1152 C.ar    1  UNL1        0.1388
     16 C          10.9803   71.5895   21.5521 C.ar    1  UNL1        0.0369
     17 C          12.2926   72.0636   21.6046 C.ar    1  UNL1        0.0033
     18 C          12.5751   73.2887   22.2121 C.ar    1  UNL1        0.0066
     19 C          11.5416   74.0576   22.7745 C.ar    1  UNL1        0.0785
     20 C          10.2226   73.5734   22.7175 C.ar    1  UNL1        0.0433
     21 C          11.8330   75.3577   23.4183 C.2     1  UNL1        0.3381
     22 O          12.6644   76.1534   22.9030 O.2     1  UNL1       -0.2451
     23 O          11.1910   75.7151   24.6012 O.3     1  UNL1       -0.4771
     24 H          11.3834   76.6026   25.0501 H       1  UNL1        0.2954
     25 C          11.9650   81.7079   24.9483 C.2     1  UNL1        0.2839
     26 O          12.5082   80.6943   25.4642 O.2     1  UNL1       -0.2665
     27 N          10.5722   81.6774   24.6022 N.am    1  UNL1       -0.2766
     28 H          10.0308   82.5668   24.6843 H       1  UNL1        0.1553
     29 C          14.7228   86.7127   23.3172 C.ar    1  UNL1       -0.0191
     30 C          13.7893   85.7145   22.9549 C.ar    1  UNL1        0.0332
     31 C          13.5277   84.6904   23.8577 C.ar    1  UNL1        0.1449
     32 O          12.7017   83.6846   23.7022 O.2     1  UNL1       -0.4492
     33 C          12.7636   82.9359   24.7893 C.ar    1  UNL1        0.1946
     34 C          13.6608   83.4979   25.7059 C.ar    1  UNL1        0.0202
     35 C          14.0241   83.0104   27.0761 C.3     1  UNL1        0.0345
     36 C          14.1518   84.6214   25.0713 C.ar    1  UNL1        0.0337
     37 C          15.0870   85.5730   25.4697 C.ar    1  UNL1        0.0025
     38 C          15.3789   86.6361   24.5876 C.ar    1  UNL1       -0.0038
     39 C          16.3752   87.6385   25.0133 C.ar    1  UNL1       -0.0003
     40 C          17.6127   87.7223   24.3564 C.ar    1  UNL1       -0.0000
     41 C          18.5653   88.6588   24.7698 C.ar    1  UNL1       -0.0000
     42 C          18.2918   89.5076   25.8464 C.ar    1  UNL1       -0.0000
     43 C          17.0669   89.4181   26.5141 C.ar    1  UNL1       -0.0000
     44 C          16.1119   88.4830   26.1035 C.ar    1  UNL1       -0.0000
     45 C          15.6775   87.1558   21.0492 C.3     1  UNL1        0.0050
     46 C          15.0664   87.7778   22.3007 C.3     1  UNL1        0.0265
@<TRIPOS>BOND
     1    45    46    1
     2    46    29    1
     3    29    30   ar
     4    30    31   ar
     5    31    32   ar
     6    32    33   ar
     7    33    25    1
     8    25    26    2
     9    25    27   am
    10    27     1    1
    11     1     2   ar
    12     2     3   ar
    13     3     4   ar
    14     4     7    1
    15     7     8    1
    16     8     9    1
    17     9    10    1
    18    10    13    1
    19    13    14    1
    20    14    15    1
    21    15    16   ar
    22    16    17   ar
    23    17    18   ar
    24    18    19   ar
    25    19    21    1
    26    21    22    2
    27    21    23    1
    28    19    20   ar
    29    10    11    1
    30    11    12    1
    31     4     5   ar
    32     5     6   ar
    33    33    34   ar
    34    34    35    1
    35    34    36   ar
    36    36    37   ar
    37    37    38   ar
    38    38    39    1
    39    39    40   ar
    40    40    41   ar
    41    41    42   ar
    42    42    43   ar
    43    43    44   ar
    44    38    29   ar
    45    44    39   ar
    46    36    31   ar
    47     6     1   ar
    48    12     7    1
    49    20    15   ar
    50    27    28    1
    51    23    24    1
