@<TRIPOS>MOLECULE
*****
 40 44 0 0 0
SMALL
GASTEIGER

@<TRIPOS>ATOM
      1 C          49.6517   11.5266  -21.2742 C.2     1  UNL1        0.2506
      2 O          50.7775   11.4321  -21.8354 O.2     1  UNL1       -0.2699
      3 N          48.4552   11.6190  -22.0765 N.am    1  UNL1       -0.2675
      4 C          47.2993   10.7900  -21.6981 C.3     1  UNL1        0.1413
      5 C          46.0975   11.6533  -21.3047 C.3     1  UNL1        0.2268
      6 O          45.8635   12.7138  -22.2276 O.3     1  UNL1       -0.4739
      7 C          45.9802   12.5422  -23.6066 C.ar    1  UNL1        0.1362
      8 C          44.8370   12.6522  -24.4016 C.ar    1  UNL1        0.0366
      9 C          44.9142   12.4564  -25.7805 C.ar    1  UNL1        0.0031
     10 C          46.1449   12.1613  -26.3892 C.ar    1  UNL1       -0.0000
     11 C          47.2985   12.0772  -25.5890 C.ar    1  UNL1        0.0004
     12 C          47.2311   12.2610  -24.1954 C.ar    1  UNL1        0.0322
     13 C          48.5272   12.3073  -23.3889 C.3     1  UNL1        0.1304
     14 C          46.2304   11.9566  -27.8574 C.ar    1  UNL1        0.0015
     15 C          46.5728   10.6816  -28.3892 C.ar    1  UNL1        0.0016
     16 C          46.6562   10.4783  -29.7795 C.ar    1  UNL1        0.0206
     17 C          46.3934   11.5625  -30.6097 C.ar    1  UNL1        0.0985
     18 N          46.4167   11.5953  -31.9542 N.ar    1  UNL1       -0.2241
     19 C          46.0896   12.8854  -32.2305 C.ar    1  UNL1        0.1750
     20 N          45.8694   13.6360  -31.1244 N.ar    1  UNL1       -0.3349
     21 C          46.0647   12.7846  -30.1108 C.ar    1  UNL1        0.0757
     22 C          45.9705   13.0303  -28.7439 C.ar    1  UNL1        0.0185
     23 H          45.6076   14.6458  -31.0773 H       1  UNL1        0.1675
     24 C          50.6531   12.0785  -19.0174 C.ar    1  UNL1        0.0503
     25 C          50.5009   12.1510  -17.6186 C.ar    1  UNL1        0.0328
     26 C          49.3169   11.7295  -17.0026 C.ar    1  UNL1        0.1069
     27 C          48.2670   11.2380  -17.7829 C.ar    1  UNL1        0.0186
     28 C          48.4003   11.1604  -19.1684 C.ar    1  UNL1        0.0071
     29 C          49.5842   11.5736  -19.7979 C.ar    1  UNL1        0.0667
     30 S          49.1466   11.8493  -15.2543 S.O2    1  UNL1        0.0105
     31 C          48.9771   13.5590  -14.7962 C.3     1  UNL1        0.1816
     32 O          47.9325   11.0878  -14.8008 O.2     1  UNL1       -0.1686
     33 O          50.3599   11.2648  -14.5872 O.2     1  UNL1       -0.1686
     34 N          51.8988   12.4578  -19.6407 N.pl3   1  UNL1       -0.3325
     35 H          52.5087   11.7137  -20.0477 H       1  UNL1        0.1468
     36 C          52.3974   14.2792  -21.2200 C.3     1  UNL1        0.0229
     37 C          52.3739   13.8375  -19.7602 C.3     1  UNL1        0.0871
     38 C          48.9754   13.7722  -23.2191 C.3     1  UNL1        0.1615
     39 O          48.1940   14.4211  -22.2542 O.3     1  UNL1       -0.3799
     40 H          48.5417   15.3486  -22.1955 H       1  UNL1        0.2105
@<TRIPOS>BOND
     1    36    37    1
     2    37    34    1
     3    34    24    1
     4    24    25   ar
     5    25    26   ar
     6    26    30    1
     7    30    31    1
     8    30    32    2
     9    30    33    2
    10    26    27   ar
    11    27    28   ar
    12    28    29   ar
    13    29     1    1
    14     1     2    2
    15     1     3   am
    16     3     4    1
    17     4     5    1
    18     5     6    1
    19     6     7    1
    20     7     8   ar
    21     8     9   ar
    22     9    10   ar
    23    10    14    1
    24    14    15   ar
    25    15    16   ar
    26    16    17   ar
    27    17    18   ar
    28    18    19   ar
    29    19    20   ar
    30    20    21   ar
    31    21    22   ar
    32    10    11   ar
    33    11    12   ar
    34    12    13    1
    35    13    38    1
    36    38    39    1
    37    29    24   ar
    38    13     3    1
    39    12     7   ar
    40    22    14   ar
    41    21    17   ar
    42    34    35    1
    43    20    23    1
    44    39    40    1
@<TRIPOS>MOLECULE
*****
 40 44 0 0 0
SMALL
GASTEIGER

@<TRIPOS>ATOM
      1 C          49.4236   12.4214  -21.3509 C.2     1  UNL1        0.2506
      2 O          50.5541   12.5738  -21.8895 O.2     1  UNL1       -0.2699
      3 N          48.2525   12.2480  -22.1769 N.am    1  UNL1       -0.2675
      4 C          47.2982   11.1874  -21.8152 C.3     1  UNL1        0.1413
      5 C          45.9289   11.7682  -21.4512 C.3     1  UNL1        0.2268
      6 O          45.4879   12.7496  -22.3859 O.3     1  UNL1       -0.4739
      7 C          45.6675   12.6040  -23.7612 C.ar    1  UNL1        0.1362
      8 C          44.5444   12.4595  -24.5789 C.ar    1  UNL1        0.0366
      9 C          44.6907   12.2817  -25.9547 C.ar    1  UNL1        0.0031
     10 C          45.9683   12.2612  -26.5373 C.ar    1  UNL1       -0.0000
     11 C          47.0958   12.4333  -25.7143 C.ar    1  UNL1        0.0004
     12 C          46.9613   12.6016  -24.3236 C.ar    1  UNL1        0.0322
     13 C          48.1992   12.9321  -23.4924 C.3     1  UNL1        0.1304
     14 C          46.1265   12.0763  -28.0021 C.ar    1  UNL1        0.0015
     15 C          46.5314   10.8185  -28.5308 C.ar    1  UNL1        0.0016
     16 C          46.6840   10.6341  -29.9179 C.ar    1  UNL1        0.0206
     17 C          46.4260   11.7196  -30.7480 C.ar    1  UNL1        0.0985
     18 N          46.5094   11.7688  -32.0896 N.ar    1  UNL1       -0.2241
     19 C          46.1558   13.0515  -32.3672 C.ar    1  UNL1        0.1750
     20 N          45.8629   13.7823  -31.2647 N.ar    1  UNL1       -0.3349
     21 C          46.0379   12.9253  -30.2520 C.ar    1  UNL1        0.0757
     22 C          45.8744   13.1520  -28.8884 C.ar    1  UNL1        0.0185
     23 H          45.5686   14.7831  -31.2191 H       1  UNL1        0.1675
     24 C          49.8696   11.4361  -19.0637 C.ar    1  UNL1        0.0503
     25 C          49.7856   11.5602  -17.6629 C.ar    1  UNL1        0.0328
     26 C          49.1650   12.6692  -17.0764 C.ar    1  UNL1        0.1069
     27 C          48.6281   13.6722  -17.8878 C.ar    1  UNL1        0.0186
     28 C          48.7035   13.5659  -19.2758 C.ar    1  UNL1        0.0071
     29 C          49.3173   12.4564  -19.8765 C.ar    1  UNL1        0.0667
     30 S          49.0914   12.8080  -15.3227 S.O2    1  UNL1        0.0105
     31 C          50.7272   12.6271  -14.6497 C.3     1  UNL1        0.1816
     32 O          48.5368   14.1501  -14.9343 O.2     1  UNL1       -0.1686
     33 O          48.1950   11.7366  -14.7682 O.2     1  UNL1       -0.1686
     34 N          50.4568   10.2611  -19.6626 N.pl3   1  UNL1       -0.3325
     35 H          51.4954   10.2083  -19.7614 H       1  UNL1        0.1468
     36 C          49.7476    9.0083  -21.6596 C.3     1  UNL1        0.0229
     37 C          49.6902    9.1081  -20.1385 C.3     1  UNL1        0.0871
     38 C          48.3130   14.4600  -23.3242 C.3     1  UNL1        0.1615
     39 O          47.1954   14.9691  -22.6502 O.3     1  UNL1       -0.3799
     40 H          47.3411   15.9477  -22.5739 H       1  UNL1        0.2105
@<TRIPOS>BOND
     1    36    37    1
     2    37    34    1
     3    34    24    1
     4    24    25   ar
     5    25    26   ar
     6    26    30    1
     7    30    31    1
     8    30    32    2
     9    30    33    2
    10    26    27   ar
    11    27    28   ar
    12    28    29   ar
    13    29     1    1
    14     1     2    2
    15     1     3   am
    16     3     4    1
    17     4     5    1
    18     5     6    1
    19     6     7    1
    20     7     8   ar
    21     8     9   ar
    22     9    10   ar
    23    10    14    1
    24    14    15   ar
    25    15    16   ar
    26    16    17   ar
    27    17    18   ar
    28    18    19   ar
    29    19    20   ar
    30    20    21   ar
    31    21    22   ar
    32    10    11   ar
    33    11    12   ar
    34    12    13    1
    35    13    38    1
    36    38    39    1
    37    29    24   ar
    38    13     3    1
    39    12     7   ar
    40    22    14   ar
    41    21    17   ar
    42    34    35    1
    43    20    23    1
    44    39    40    1
@<TRIPOS>MOLECULE
*****
 40 44 0 0 0
SMALL
GASTEIGER

@<TRIPOS>ATOM
      1 C          48.8074    9.4704  -22.2136 C.2     1  UNL1        0.2506
      2 O          48.2357    8.3464  -22.2474 O.2     1  UNL1       -0.2699
      3 N          49.4992    9.9593  -23.3824 N.am    1  UNL1       -0.2675
      4 C          49.2821   11.3588  -23.7834 C.3     1  UNL1        0.1413
      5 C          50.5785   12.1699  -23.7053 C.3     1  UNL1        0.2268
      6 O          51.6835   11.4882  -24.2933 O.3     1  UNL1       -0.4739
      7 C          51.5675   10.7630  -25.4788 C.ar    1  UNL1        0.1362
      8 C          52.2496   11.2077  -26.6138 C.ar    1  UNL1        0.0366
      9 C          52.1307   10.5222  -27.8229 C.ar    1  UNL1        0.0031
     10 C          51.3361    9.3676  -27.9107 C.ar    1  UNL1       -0.0000
     11 C          50.6719    8.9078  -26.7595 C.ar    1  UNL1        0.0004
     12 C          50.7746    9.5976  -25.5371 C.ar    1  UNL1        0.0322
     13 C          50.1584    8.9816  -24.2828 C.3     1  UNL1        0.1304
     14 C          51.2114    8.6338  -29.1956 C.ar    1  UNL1        0.0015
     15 C          52.3219    8.5343  -30.0802 C.ar    1  UNL1        0.0016
     16 C          52.2128    7.8408  -31.3002 C.ar    1  UNL1        0.0206
     17 C          50.9874    7.2597  -31.6078 C.ar    1  UNL1        0.0985
     18 N          50.6611    6.5591  -32.7087 N.ar    1  UNL1       -0.2241
     19 C          49.3590    6.2382  -32.4874 C.ar    1  UNL1        0.1750
     20 N          48.8790    6.7075  -31.3106 N.ar    1  UNL1       -0.3349
     21 C          49.9207    7.3489  -30.7685 C.ar    1  UNL1        0.0757
     22 C          49.9838    8.0241  -29.5528 C.ar    1  UNL1        0.0185
     23 H          47.9175    6.5932  -30.9199 H       1  UNL1        0.1675
     24 C          47.6588   11.0270  -20.5830 C.ar    1  UNL1        0.0503
     25 C          47.6782   11.7014  -19.3462 C.ar    1  UNL1        0.0328
     26 C          48.7891   11.6158  -18.4992 C.ar    1  UNL1        0.1069
     27 C          49.8916   10.8454  -18.8783 C.ar    1  UNL1        0.0186
     28 C          49.8887   10.1705  -20.0982 C.ar    1  UNL1        0.0071
     29 C          48.7841   10.2531  -20.9593 C.ar    1  UNL1        0.0667
     30 S          48.7784   12.4534  -16.9505 S.O2    1  UNL1        0.0105
     31 C          50.4500   12.8263  -16.4726 C.3     1  UNL1        0.1816
     32 O          47.9932   13.7304  -17.0601 O.2     1  UNL1       -0.1686
     33 O          48.1372   11.5805  -15.9084 O.2     1  UNL1       -0.1686
     34 N          46.5355   11.1683  -21.4786 N.pl3   1  UNL1       -0.3325
     35 H          46.0100   10.3140  -21.7707 H       1  UNL1        0.1468
     36 C          45.9404   12.3965  -23.5275 C.3     1  UNL1        0.0229
     37 C          46.0592   12.4477  -22.0076 C.3     1  UNL1        0.0871
     38 C          51.2307    8.1723  -23.5271 C.3     1  UNL1        0.1615
     39 O          52.5159    8.6177  -23.8626 O.3     1  UNL1       -0.3799
     40 H          53.1471    8.0602  -23.3378 H       1  UNL1        0.2105
@<TRIPOS>BOND
     1    36    37    1
     2    37    34    1
     3    34    24    1
     4    24    25   ar
     5    25    26   ar
     6    26    30    1
     7    30    31    1
     8    30    32    2
     9    30    33    2
    10    26    27   ar
    11    27    28   ar
    12    28    29   ar
    13    29     1    1
    14     1     2    2
    15     1     3   am
    16     3     4    1
    17     4     5    1
    18     5     6    1
    19     6     7    1
    20     7     8   ar
    21     8     9   ar
    22     9    10   ar
    23    10    14    1
    24    14    15   ar
    25    15    16   ar
    26    16    17   ar
    27    17    18   ar
    28    18    19   ar
    29    19    20   ar
    30    20    21   ar
    31    21    22   ar
    32    10    11   ar
    33    11    12   ar
    34    12    13    1
    35    13    38    1
    36    38    39    1
    37    29    24   ar
    38    13     3    1
    39    12     7   ar
    40    22    14   ar
    41    21    17   ar
    42    34    35    1
    43    20    23    1
    44    39    40    1
@<TRIPOS>MOLECULE
*****
 40 44 0 0 0
SMALL
GASTEIGER

@<TRIPOS>ATOM
      1 C          46.4697   12.1934  -25.8693 C.2     1  UNL1        0.2506
      2 O          45.5475   11.6192  -25.2281 O.2     1  UNL1       -0.2699
      3 N          47.6662   12.6167  -25.1816 N.am    1  UNL1       -0.2675
      4 C          48.9665   12.3283  -25.8082 C.3     1  UNL1        0.1413
      5 C          49.7162   13.6168  -26.1577 C.3     1  UNL1        0.2268
      6 O          49.7033   14.5609  -25.0901 O.3     1  UNL1       -0.4739
      7 C          49.8660   14.1827  -23.7577 C.ar    1  UNL1        0.1362
      8 C          51.0060   14.6035  -23.0689 C.ar    1  UNL1        0.0366
      9 C          51.2136   14.2176  -21.7446 C.ar    1  UNL1        0.0031
     10 C          50.2717   13.4139  -21.0820 C.ar    1  UNL1       -0.0000
     11 C          49.1122   13.0139  -21.7703 C.ar    1  UNL1        0.0004
     12 C          48.8975   13.3870  -23.1101 C.ar    1  UNL1        0.0322
     13 C          47.5598   13.0552  -23.7682 C.3     1  UNL1        0.1304
     14 C          50.4883   13.0054  -19.6710 C.ar    1  UNL1        0.0015
     15 C          51.7959   13.0178  -19.1091 C.ar    1  UNL1        0.0016
     16 C          52.0107   12.6321  -17.7726 C.ar    1  UNL1        0.0206
     17 C          50.9050   12.2408  -17.0254 C.ar    1  UNL1        0.0985
     18 N          50.8789   11.8353  -15.7432 N.ar    1  UNL1       -0.2241
     19 C          49.5603   11.5797  -15.5343 C.ar    1  UNL1        0.1750
     20 N          48.7862   11.8088  -16.6222 N.ar    1  UNL1       -0.3349
     21 C          49.6515   12.2263  -17.5535 C.ar    1  UNL1        0.0757
     22 C          49.3933   12.5997  -18.8694 C.ar    1  UNL1        0.0185
     23 H          47.7529   11.6869  -16.7102 H       1  UNL1        0.1675
     24 C          46.0916   13.7595  -27.8201 C.ar    1  UNL1        0.0503
     25 C          45.9872   13.9430  -29.2130 C.ar    1  UNL1        0.0328
     26 C          46.0736   12.8548  -30.0889 C.ar    1  UNL1        0.1069
     27 C          46.2746   11.5694  -29.5791 C.ar    1  UNL1        0.0186
     28 C          46.3813   11.3699  -28.2034 C.ar    1  UNL1        0.0071
     29 C          46.2901   12.4513  -27.3142 C.ar    1  UNL1        0.0667
     30 S          45.9590   13.1156  -31.8265 S.O2    1  UNL1        0.0105
     31 C          44.4229   12.4461  -32.4211 C.3     1  UNL1        0.1816
     32 O          46.0148   14.5863  -32.1322 O.2     1  UNL1       -0.1686
     33 O          47.1080   12.4353  -32.5163 O.2     1  UNL1       -0.1686
     34 N          45.9410   14.8774  -26.9191 N.pl3   1  UNL1       -0.3325
     35 H          45.7284   14.6920  -25.9132 H       1  UNL1        0.1468
     36 C          47.5473   16.7006  -27.3140 C.3     1  UNL1        0.0229
     37 C          46.0811   16.2798  -27.3154 C.3     1  UNL1        0.0871
     38 C          46.6082   14.2603  -23.6351 C.3     1  UNL1        0.1615
     39 O          47.1330   15.3814  -24.2912 O.3     1  UNL1       -0.3799
     40 H          46.4692   16.1086  -24.1692 H       1  UNL1        0.2105
@<TRIPOS>BOND
     1    36    37    1
     2    37    34    1
     3    34    24    1
     4    24    25   ar
     5    25    26   ar
     6    26    30    1
     7    30    31    1
     8    30    32    2
     9    30    33    2
    10    26    27   ar
    11    27    28   ar
    12    28    29   ar
    13    29     1    1
    14     1     2    2
    15     1     3   am
    16     3     4    1
    17     4     5    1
    18     5     6    1
    19     6     7    1
    20     7     8   ar
    21     8     9   ar
    22     9    10   ar
    23    10    14    1
    24    14    15   ar
    25    15    16   ar
    26    16    17   ar
    27    17    18   ar
    28    18    19   ar
    29    19    20   ar
    30    20    21   ar
    31    21    22   ar
    32    10    11   ar
    33    11    12   ar
    34    12    13    1
    35    13    38    1
    36    38    39    1
    37    29    24   ar
    38    13     3    1
    39    12     7   ar
    40    22    14   ar
    41    21    17   ar
    42    34    35    1
    43    20    23    1
    44    39    40    1
@<TRIPOS>MOLECULE
*****
 40 44 0 0 0
SMALL
GASTEIGER

@<TRIPOS>ATOM
      1 C          46.1146   11.6076  -26.6065 C.2     1  UNL1        0.2506
      2 O          45.2535   10.7744  -26.2121 O.2     1  UNL1       -0.2699
      3 N          47.0250   12.2027  -25.6575 N.am    1  UNL1       -0.2675
      4 C          48.4500   12.2821  -26.0175 C.3     1  UNL1        0.1413
      5 C          48.9216   13.7356  -26.1148 C.3     1  UNL1        0.2268
      6 O          48.4839   14.5250  -25.0117 O.3     1  UNL1       -0.4739
      7 C          48.4805   14.0419  -23.7035 C.ar    1  UNL1        0.1362
      8 C          49.3373   14.6222  -22.7653 C.ar    1  UNL1        0.0366
      9 C          49.3799   14.1425  -21.4561 C.ar    1  UNL1        0.0031
     10 C          48.5509   13.0803  -21.0605 C.ar    1  UNL1       -0.0000
     11 C          47.6704   12.5158  -22.0008 C.ar    1  UNL1        0.0004
     12 C          47.6270   12.9833  -23.3275 C.ar    1  UNL1        0.0322
     13 C          46.5547   12.4422  -24.2708 C.3     1  UNL1        0.1304
     14 C          48.5914   12.5708  -19.6664 C.ar    1  UNL1        0.0015
     15 C          47.4331   11.9914  -19.0762 C.ar    1  UNL1        0.0016
     16 C          47.4622   11.5059  -17.7554 C.ar    1  UNL1        0.0206
     17 C          48.6573   11.6121  -17.0522 C.ar    1  UNL1        0.0985
     18 N          48.9084   11.2196  -15.7904 N.ar    1  UNL1       -0.2241
     19 C          50.2131   11.5615  -15.6219 C.ar    1  UNL1        0.1750
     20 N          50.7658   12.1406  -16.7149 N.ar    1  UNL1       -0.3349
     21 C          49.7696   12.1635  -17.6080 C.ar    1  UNL1        0.0757
     22 C          49.7859   12.6558  -18.9100 C.ar    1  UNL1        0.0185
     23 H          51.7438   12.4876  -16.8304 H       1  UNL1        0.1675
     24 C          46.5120   11.0541  -29.0431 C.ar    1  UNL1        0.0503
     25 C          46.4695   11.4597  -30.3916 C.ar    1  UNL1        0.0328
     26 C          46.0820   12.7592  -30.7384 C.ar    1  UNL1        0.1069
     27 C          45.7239   13.6658  -29.7372 C.ar    1  UNL1        0.0186
     28 C          45.7592   13.2807  -28.3978 C.ar    1  UNL1        0.0071
     29 C          46.1519   11.9832  -28.0362 C.ar    1  UNL1        0.0667
     30 S          46.0192   13.2334  -32.4329 S.O2    1  UNL1        0.0105
     31 C          44.4665   12.7188  -33.1300 C.3     1  UNL1        0.1816
     32 O          46.1524   14.7255  -32.5564 O.2     1  UNL1       -0.1686
     33 O          47.1494   12.5843  -33.1814 O.2     1  UNL1       -0.1686
     34 N          46.9706    9.7319  -28.6885 N.pl3   1  UNL1       -0.3325
     35 H          46.5035    9.2280  -27.9016 H       1  UNL1        0.1468
     36 C          49.3189    9.0128  -28.5199 C.3     1  UNL1        0.0229
     37 C          48.0544    9.0245  -29.3729 C.3     1  UNL1        0.0871
     38 C          45.3348   13.3842  -24.2575 C.3     1  UNL1        0.1615
     39 O          44.1419   12.6514  -24.3094 O.3     1  UNL1       -0.3799
     40 H          43.4073   13.3182  -24.2908 H       1  UNL1        0.2105
@<TRIPOS>BOND
     1    36    37    1
     2    37    34    1
     3    34    24    1
     4    24    25   ar
     5    25    26   ar
     6    26    30    1
     7    30    31    1
     8    30    32    2
     9    30    33    2
    10    26    27   ar
    11    27    28   ar
    12    28    29   ar
    13    29     1    1
    14     1     2    2
    15     1     3   am
    16     3     4    1
    17     4     5    1
    18     5     6    1
    19     6     7    1
    20     7     8   ar
    21     8     9   ar
    22     9    10   ar
    23    10    14    1
    24    14    15   ar
    25    15    16   ar
    26    16    17   ar
    27    17    18   ar
    28    18    19   ar
    29    19    20   ar
    30    20    21   ar
    31    21    22   ar
    32    10    11   ar
    33    11    12   ar
    34    12    13    1
    35    13    38    1
    36    38    39    1
    37    29    24   ar
    38    13     3    1
    39    12     7   ar
    40    22    14   ar
    41    21    17   ar
    42    34    35    1
    43    20    23    1
    44    39    40    1
@<TRIPOS>MOLECULE
*****
 40 44 0 0 0
SMALL
GASTEIGER

@<TRIPOS>ATOM
      1 C          48.5130    9.6919  -21.6418 C.2     1  UNL1        0.2506
      2 O          47.8055    8.6485  -21.6888 O.2     1  UNL1       -0.2699
      3 N          49.2391   10.1202  -22.8135 N.am    1  UNL1       -0.2675
      4 C          49.1905   11.5453  -23.1785 C.3     1  UNL1        0.1413
      5 C          50.5788   12.1875  -23.1093 C.3     1  UNL1        0.2268
      6 O          51.5798   11.3890  -23.7353 O.3     1  UNL1       -0.4739
      7 C          51.3535   10.7134  -24.9341 C.ar    1  UNL1        0.1362
      8 C          52.0651   11.0981  -26.0727 C.ar    1  UNL1        0.0366
      9 C          51.8403   10.4628  -27.2941 C.ar    1  UNL1        0.0031
     10 C          50.9071    9.4180  -27.3912 C.ar    1  UNL1       -0.0000
     11 C          50.2115    9.0156  -26.2370 C.ar    1  UNL1        0.0004
     12 C          50.4210    9.6568  -25.0019 C.ar    1  UNL1        0.0322
     13 C          49.7556    9.0910  -23.7490 C.3     1  UNL1        0.1304
     14 C          50.6692    8.7373  -28.6893 C.ar    1  UNL1        0.0015
     15 C          49.3427    8.4820  -29.1374 C.ar    1  UNL1        0.0016
     16 C          49.1077    7.8374  -30.3664 C.ar    1  UNL1        0.0206
     17 C          50.2126    7.4613  -31.1224 C.ar    1  UNL1        0.0985
     18 N          50.2217    6.8376  -32.3142 N.ar    1  UNL1       -0.2241
     19 C          51.5489    6.7181  -32.5822 C.ar    1  UNL1        0.1750
     20 N          52.3445    7.2362  -31.6158 N.ar    1  UNL1       -0.3349
     21 C          51.4840    7.7016  -30.7028 C.ar    1  UNL1        0.0757
     22 C          51.7625    8.3360  -29.4954 C.ar    1  UNL1        0.0185
     23 H          53.3880    7.2643  -31.5920 H       1  UNL1        0.1675
     24 C          47.4797   11.0580  -19.7798 C.ar    1  UNL1        0.0503
     25 C          47.6281   11.7047  -18.5369 C.ar    1  UNL1        0.0328
     26 C          48.8694   11.7432  -17.8914 C.ar    1  UNL1        0.1069
     27 C          49.9760   11.1259  -18.4806 C.ar    1  UNL1        0.0186
     28 C          49.8467   10.4806  -19.7096 C.ar    1  UNL1        0.0071
     29 C          48.6096   10.4402  -20.3701 C.ar    1  UNL1        0.0667
     30 S          49.0219   12.5416  -16.3296 S.O2    1  UNL1        0.0105
     31 C          50.7345   12.5781  -15.8531 C.3     1  UNL1        0.1816
     32 O          48.4969   13.9475  -16.4154 O.2     1  UNL1       -0.1686
     33 O          48.2260   11.7913  -15.2988 O.2     1  UNL1       -0.1686
     34 N          46.2112   11.0743  -20.4688 N.pl3   1  UNL1       -0.3325
     35 H          45.9588   10.2687  -21.0842 H       1  UNL1        0.1468
     36 C          44.2152   11.8489  -19.2538 C.3     1  UNL1        0.0229
     37 C          45.2258   12.1511  -20.3557 C.3     1  UNL1        0.0871
     38 C          50.7324    8.1367  -23.0342 C.3     1  UNL1        0.1615
     39 O          52.0508    8.3818  -23.4396 O.3     1  UNL1       -0.3799
     40 H          52.6177    7.7405  -22.9377 H       1  UNL1        0.2105
@<TRIPOS>BOND
     1    36    37    1
     2    37    34    1
     3    34    24    1
     4    24    25   ar
     5    25    26   ar
     6    26    30    1
     7    30    31    1
     8    30    32    2
     9    30    33    2
    10    26    27   ar
    11    27    28   ar
    12    28    29   ar
    13    29     1    1
    14     1     2    2
    15     1     3   am
    16     3     4    1
    17     4     5    1
    18     5     6    1
    19     6     7    1
    20     7     8   ar
    21     8     9   ar
    22     9    10   ar
    23    10    14    1
    24    14    15   ar
    25    15    16   ar
    26    16    17   ar
    27    17    18   ar
    28    18    19   ar
    29    19    20   ar
    30    20    21   ar
    31    21    22   ar
    32    10    11   ar
    33    11    12   ar
    34    12    13    1
    35    13    38    1
    36    38    39    1
    37    29    24   ar
    38    13     3    1
    39    12     7   ar
    40    22    14   ar
    41    21    17   ar
    42    34    35    1
    43    20    23    1
    44    39    40    1
