@<TRIPOS>MOLECULE
*****
 50 55 0 0 0
SMALL
GASTEIGER

@<TRIPOS>ATOM
      1 C          59.4235   86.7241   10.5160 C.2     1  UNL1        0.2483
      2 O          58.7434   87.0966   11.5111 O.2     1  UNL1       -0.2701
      3 N          60.0912   85.4533   10.5475 N.am    1  UNL1       -0.2945
      4 H          60.4119   85.0306    9.6468 H       1  UNL1        0.1501
      5 C          59.7021   89.2957    7.0740 C.ar    1  UNL1        0.0502
      6 C          60.2644   89.6818    8.3002 C.ar    1  UNL1        0.0148
      7 C          60.1740   88.8451    9.4151 C.ar    1  UNL1        0.0080
      8 C          59.5244   87.6010    9.3252 C.ar    1  UNL1        0.0808
      9 C          58.9560   87.2171    8.0946 C.ar    1  UNL1        0.1457
     10 F          58.3338   86.0184    7.9580 F       1  UNL1       -0.2040
     11 C          59.0494   88.0579    6.9811 C.ar    1  UNL1        0.0443
     12 N          60.1187   92.1578    4.0396 N.pl3   1  UNL1       -0.3034
     13 C          58.9003   92.1807    4.8531 C.3     1  UNL1        0.1123
     14 C          58.5863   90.7692    5.3552 C.3     1  UNL1        0.1122
     15 N          59.7953   90.1530    5.9206 N.pl3   1  UNL1       -0.3040
     16 C          61.0205   90.1554    5.1083 C.3     1  UNL1        0.1122
     17 C          61.3264   91.5739    4.6282 C.3     1  UNL1        0.1123
     18 C          59.9539   93.1409   -0.1061 C.ar    1  UNL1       -0.0110
     19 C          58.7811   92.9546    0.6502 C.ar    1  UNL1       -0.0021
     20 C          58.8441   92.6398    2.0049 C.ar    1  UNL1        0.0151
     21 C          60.0786   92.5002    2.6444 C.ar    1  UNL1        0.0594
     22 C          61.2655   92.6912    1.9144 C.ar    1  UNL1        0.0811
     23 CL         62.8226   92.5742    2.7390 Cl      1  UNL1       -0.0801
     24 C          61.2100   93.0098    0.5413 C.ar    1  UNL1        0.0654
     25 CL         62.7266   93.2444   -0.3371 Cl      1  UNL1       -0.0817
     26 C          58.3876   93.3458   -2.0749 C.3     1  UNL1        0.0047
     27 C          59.8362   93.4823   -1.5883 C.3     1  UNL1        0.0232
     28 C          60.3838   94.8859   -1.8768 C.3     1  UNL1        0.0047
     29 C          60.1999   84.6598   11.7754 C.3     1  UNL1        0.1535
     30 C          60.8422   85.4806   12.8600 C.2     1  UNL1        0.2443
     31 O          60.7681   85.0844   14.0547 O.2     1  UNL1       -0.2730
     32 N          61.4662   86.7373   12.5480 N.am    1  UNL1       -0.2825
     33 H          61.2303   87.1884   11.6352 H       1  UNL1        0.1549
     34 C          62.3245   87.4550   13.4508 C.ar    1  UNL1        0.0535
     35 C          63.5331   86.9046   13.9109 C.ar    1  UNL1        0.0353
     36 C          64.3479   87.6504   14.7665 C.ar    1  UNL1        0.1002
     37 N          63.9796   88.9048   15.1388 N.ar    1  UNL1       -0.2422
     38 C          62.8258   89.4691   14.6945 C.ar    1  UNL1        0.1002
     39 C          61.9828   88.7584   13.8368 C.ar    1  UNL1        0.0353
     40 C          58.8159   84.1652   12.2284 C.3     1  UNL1        0.0569
     41 C          58.4230   82.9167   11.4925 C.ar    1  UNL1       -0.0017
     42 C          57.9757   82.8359   10.1768 C.ar    1  UNL1        0.0681
     43 N          57.8077   81.5438    9.8138 N.ar    1  UNL1       -0.3523
     44 C          58.1565   80.8089   10.8841 C.ar    1  UNL1        0.0563
     45 C          58.1728   79.4185   10.9855 C.ar    1  UNL1        0.0170
     46 C          58.6010   78.8529   12.2006 C.ar    1  UNL1        0.0015
     47 C          59.0030   79.6800   13.2730 C.ar    1  UNL1        0.0001
     48 C          58.9788   81.0804   13.1410 C.ar    1  UNL1        0.0012
     49 C          58.5432   81.6114   11.9268 C.ar    1  UNL1        0.0131
     50 H          57.4900   81.1925    8.8832 H       1  UNL1        0.1660
@<TRIPOS>BOND
     1    26    27    1
     2    27    28    1
     3    27    18    1
     4    18    19   ar
     5    19    20   ar
     6    20    21   ar
     7    21    12    1
     8    12    13    1
     9    13    14    1
    10    14    15    1
    11    15     5    1
    12     5     6   ar
    13     6     7   ar
    14     7     8   ar
    15     8     1    1
    16     1     2    2
    17     1     3   am
    18     3    29    1
    19    29    40    1
    20    40    41    1
    21    41    42   ar
    22    42    43   ar
    23    43    44   ar
    24    44    45   ar
    25    45    46   ar
    26    46    47   ar
    27    47    48   ar
    28    48    49   ar
    29    29    30    1
    30    30    31    2
    31    30    32   am
    32    32    34    1
    33    34    35   ar
    34    35    36   ar
    35    36    37   ar
    36    37    38   ar
    37    38    39   ar
    38     8     9   ar
    39     9    10    1
    40     9    11   ar
    41    15    16    1
    42    16    17    1
    43    21    22   ar
    44    22    23    1
    45    22    24   ar
    46    24    25    1
    47    24    18   ar
    48    17    12    1
    49    11     5   ar
    50    49    41   ar
    51    39    34   ar
    52    49    44   ar
    53     3     4    1
    54    43    50    1
    55    32    33    1
@<TRIPOS>MOLECULE
*****
 50 55 0 0 0
SMALL
GASTEIGER

@<TRIPOS>ATOM
      1 C          58.8457   83.7976   12.6712 C.2     1  UNL1        0.2483
      2 O          57.5975   83.9583   12.7583 O.2     1  UNL1       -0.2701
      3 N          59.3738   82.5067   12.3299 N.am    1  UNL1       -0.2945
      4 H          60.3605   82.4399   11.9911 H       1  UNL1        0.1501
      5 C          61.4591   87.1449   13.3818 C.ar    1  UNL1        0.0502
      6 C          60.1544   87.1363   13.8983 C.ar    1  UNL1        0.0148
      7 C          59.3089   86.0485   13.6676 C.ar    1  UNL1        0.0080
      8 C          59.7531   84.9429   12.9205 C.ar    1  UNL1        0.0808
      9 C          61.0616   84.9554   12.3984 C.ar    1  UNL1        0.1457
     10 F          61.5376   83.9029   11.6853 F       1  UNL1       -0.2040
     11 C          61.9045   86.0464   12.6323 C.ar    1  UNL1        0.0443
     12 N          63.5907   90.6655   14.1779 N.pl3   1  UNL1       -0.3034
     13 C          62.9504   90.5228   12.8678 C.3     1  UNL1        0.1123
     14 C          62.8662   89.0415   12.4913 C.3     1  UNL1        0.1122
     15 N          62.3359   88.2623   13.6194 N.pl3   1  UNL1       -0.3040
     16 C          62.9678   88.4290   14.9361 C.3     1  UNL1        0.1122
     17 C          63.0300   89.9117   15.3019 C.3     1  UNL1        0.1123
     18 C          67.3017   92.7165   14.6282 C.ar    1  UNL1       -0.0110
     19 C          66.6672   92.1002   15.7236 C.ar    1  UNL1       -0.0021
     20 C          65.4586   91.4272   15.5663 C.ar    1  UNL1        0.0151
     21 C          64.8469   91.3507   14.3124 C.ar    1  UNL1        0.0594
     22 C          65.4647   91.9489   13.1995 C.ar    1  UNL1        0.0811
     23 CL         64.7201   91.7982   11.6054 Cl      1  UNL1       -0.0801
     24 C          66.6891   92.6330   13.3508 C.ar    1  UNL1        0.0654
     25 CL         67.4324   93.3676   11.9244 Cl      1  UNL1       -0.0817
     26 C          68.7109   94.0175   16.2693 C.3     1  UNL1        0.0047
     27 C          68.6239   93.4449   14.8486 C.3     1  UNL1        0.0232
     28 C          69.8163   92.5268   14.5511 C.3     1  UNL1        0.0047
     29 C          58.5338   81.3059   12.2919 C.3     1  UNL1        0.1535
     30 C          58.2883   80.8979   10.8651 C.2     1  UNL1        0.2443
     31 O          57.4415   79.9958   10.6219 O.2     1  UNL1       -0.2730
     32 N          59.0624   81.4747    9.8003 N.am    1  UNL1       -0.2825
     33 H          59.9557   81.9567   10.0492 H       1  UNL1        0.1549
     34 C          58.7300   81.3524    8.4069 C.ar    1  UNL1        0.0535
     35 C          59.4686   80.5244    7.5443 C.ar    1  UNL1        0.0353
     36 C          59.0917   80.4164    6.2032 C.ar    1  UNL1        0.1002
     37 N          58.0096   81.0970    5.7411 N.ar    1  UNL1       -0.2422
     38 C          57.2662   81.8901    6.5569 C.ar    1  UNL1        0.1002
     39 C          57.6076   82.0251    7.9047 C.ar    1  UNL1        0.0353
     40 C          59.1931   80.1553   13.0708 C.3     1  UNL1        0.0569
     41 C          60.6818   80.1562   12.8750 C.ar    1  UNL1       -0.0017
     42 C          61.3945   79.4193   11.9334 C.ar    1  UNL1        0.0681
     43 N          62.7075   79.7414   11.9772 N.ar    1  UNL1       -0.3523
     44 C          62.8273   80.6832   12.9291 C.ar    1  UNL1        0.0563
     45 C          63.9903   81.3439   13.3224 C.ar    1  UNL1        0.0170
     46 C          63.8828   82.3211   14.3290 C.ar    1  UNL1        0.0015
     47 C          62.6292   82.6158   14.9099 C.ar    1  UNL1        0.0001
     48 C          61.4717   81.9347   14.4910 C.ar    1  UNL1        0.0012
     49 C          61.6112   80.9669   13.4960 C.ar    1  UNL1        0.0131
     50 H          63.4673   79.3495   11.3777 H       1  UNL1        0.1660
@<TRIPOS>BOND
     1    26    27    1
     2    27    28    1
     3    27    18    1
     4    18    19   ar
     5    19    20   ar
     6    20    21   ar
     7    21    12    1
     8    12    13    1
     9    13    14    1
    10    14    15    1
    11    15     5    1
    12     5     6   ar
    13     6     7   ar
    14     7     8   ar
    15     8     1    1
    16     1     2    2
    17     1     3   am
    18     3    29    1
    19    29    40    1
    20    40    41    1
    21    41    42   ar
    22    42    43   ar
    23    43    44   ar
    24    44    45   ar
    25    45    46   ar
    26    46    47   ar
    27    47    48   ar
    28    48    49   ar
    29    29    30    1
    30    30    31    2
    31    30    32   am
    32    32    34    1
    33    34    35   ar
    34    35    36   ar
    35    36    37   ar
    36    37    38   ar
    37    38    39   ar
    38     8     9   ar
    39     9    10    1
    40     9    11   ar
    41    15    16    1
    42    16    17    1
    43    21    22   ar
    44    22    23    1
    45    22    24   ar
    46    24    25    1
    47    24    18   ar
    48    17    12    1
    49    11     5   ar
    50    49    41   ar
    51    39    34   ar
    52    49    44   ar
    53     3     4    1
    54    43    50    1
    55    32    33    1
@<TRIPOS>MOLECULE
*****
 50 55 0 0 0
SMALL
GASTEIGER

@<TRIPOS>ATOM
      1 C          59.7917   85.3173    8.5993 C.2     1  UNL1        0.2483
      2 O          58.7787   85.7106    7.9585 O.2     1  UNL1       -0.2701
      3 N          60.1526   83.9277    8.5745 N.am    1  UNL1       -0.2945
      4 H          61.1192   83.6533    8.8627 H       1  UNL1        0.1501
      5 C          62.1561   88.1575   10.8086 C.ar    1  UNL1        0.0502
      6 C          61.5616   88.5189    9.5901 C.ar    1  UNL1        0.0148
      7 C          60.7937   87.5961    8.8758 C.ar    1  UNL1        0.0080
      8 C          60.5989   86.2936    9.3689 C.ar    1  UNL1        0.0808
      9 C          61.2007   85.9308   10.5901 C.ar    1  UNL1        0.1457
     10 F          61.0261   84.6896   11.1115 F       1  UNL1       -0.2040
     11 C          61.9681   86.8581   11.3017 C.ar    1  UNL1        0.0443
     12 N          64.0153   91.1509   13.0791 N.pl3   1  UNL1       -0.3034
     13 C          63.6218   91.4664   11.7036 C.3     1  UNL1        0.1123
     14 C          63.6464   90.1940   10.8531 C.3     1  UNL1        0.1122
     15 N          62.9459   89.1059   11.5506 N.pl3   1  UNL1       -0.3040
     16 C          63.3293   88.8111   12.9387 C.3     1  UNL1        0.1122
     17 C          63.2850   90.0891   13.7758 C.3     1  UNL1        0.1123
     18 C          67.5859   92.7915   14.7344 C.ar    1  UNL1       -0.0110
     19 C          67.4298   92.6284   13.3447 C.ar    1  UNL1       -0.0021
     20 C          66.2580   92.0976   12.8124 C.ar    1  UNL1        0.0151
     21 C          65.2085   91.7125   13.6506 C.ar    1  UNL1        0.0594
     22 C          65.3345   91.8742   15.0420 C.ar    1  UNL1        0.0811
     23 CL         63.9832   91.4435   16.0940 Cl      1  UNL1       -0.0801
     24 C          66.5188   92.4109   15.5890 C.ar    1  UNL1        0.0654
     25 CL         66.6334   92.5997   17.3435 Cl      1  UNL1       -0.0817
     26 C          68.6380   94.6877   16.0264 C.3     1  UNL1        0.0047
     27 C          68.8887   93.3751   15.2726 C.3     1  UNL1        0.0232
     28 C          69.6224   92.3619   16.1604 C.3     1  UNL1        0.0047
     29 C          59.2675   82.9022    8.0141 C.3     1  UNL1        0.1535
     30 C          59.8255   81.5343    8.2970 C.2     1  UNL1        0.2443
     31 O          59.6229   80.6056    7.4686 O.2     1  UNL1       -0.2730
     32 N          60.5152   81.2710    9.5303 N.am    1  UNL1       -0.2825
     33 H          60.3836   81.9442   10.3188 H       1  UNL1        0.1549
     34 C          61.3027   80.0935    9.7757 C.ar    1  UNL1        0.0535
     35 C          62.4545   79.8086    9.0225 C.ar    1  UNL1        0.0353
     36 C          63.2034   78.6659    9.3150 C.ar    1  UNL1        0.1002
     37 N          62.8272   77.8444   10.3306 N.ar    1  UNL1       -0.2422
     38 C          61.7288   78.1053   11.0872 C.ar    1  UNL1        0.1002
     39 C          60.9527   79.2378   10.8292 C.ar    1  UNL1        0.0353
     40 C          57.8489   83.0310    8.5942 C.3     1  UNL1        0.0569
     41 C          57.8659   82.9068   10.0905 C.ar    1  UNL1       -0.0017
     42 C          58.1142   81.7499   10.8235 C.ar    1  UNL1        0.0681
     43 N          58.1467   82.0274   12.1469 N.ar    1  UNL1       -0.3523
     44 C          57.9334   83.3504   12.2544 C.ar    1  UNL1        0.0563
     45 C          57.9016   84.1090   13.4238 C.ar    1  UNL1        0.0170
     46 C          57.6870   85.4943   13.3031 C.ar    1  UNL1        0.0015
     47 C          57.5155   86.0841   12.0309 C.ar    1  UNL1        0.0001
     48 C          57.5552   85.2939   10.8676 C.ar    1  UNL1        0.0012
     49 C          57.7631   83.9229   11.0199 C.ar    1  UNL1        0.0131
     50 H          58.3219   81.3511   12.9231 H       1  UNL1        0.1660
@<TRIPOS>BOND
     1    26    27    1
     2    27    28    1
     3    27    18    1
     4    18    19   ar
     5    19    20   ar
     6    20    21   ar
     7    21    12    1
     8    12    13    1
     9    13    14    1
    10    14    15    1
    11    15     5    1
    12     5     6   ar
    13     6     7   ar
    14     7     8   ar
    15     8     1    1
    16     1     2    2
    17     1     3   am
    18     3    29    1
    19    29    40    1
    20    40    41    1
    21    41    42   ar
    22    42    43   ar
    23    43    44   ar
    24    44    45   ar
    25    45    46   ar
    26    46    47   ar
    27    47    48   ar
    28    48    49   ar
    29    29    30    1
    30    30    31    2
    31    30    32   am
    32    32    34    1
    33    34    35   ar
    34    35    36   ar
    35    36    37   ar
    36    37    38   ar
    37    38    39   ar
    38     8     9   ar
    39     9    10    1
    40     9    11   ar
    41    15    16    1
    42    16    17    1
    43    21    22   ar
    44    22    23    1
    45    22    24   ar
    46    24    25    1
    47    24    18   ar
    48    17    12    1
    49    11     5   ar
    50    49    41   ar
    51    39    34   ar
    52    49    44   ar
    53     3     4    1
    54    43    50    1
    55    32    33    1
@<TRIPOS>MOLECULE
*****
 50 55 0 0 0
SMALL
GASTEIGER

@<TRIPOS>ATOM
      1 C          59.4991   86.6782   10.3064 C.2     1  UNL1        0.2483
      2 O          59.6142   85.4342   10.1317 O.2     1  UNL1       -0.2701
      3 N          59.2942   87.1937   11.6308 N.am    1  UNL1       -0.2945
      4 H          59.4750   88.2075   11.8101 H       1  UNL1        0.1501
      5 C          59.7472   89.3154    6.9120 C.ar    1  UNL1        0.0502
      6 C          59.2077   88.0272    6.7765 C.ar    1  UNL1        0.0148
      7 C          59.1270   87.1740    7.8796 C.ar    1  UNL1        0.0080
      8 C          59.5785   87.5939    9.1435 C.ar    1  UNL1        0.0808
      9 C          60.1245   88.8858    9.2767 C.ar    1  UNL1        0.1457
     10 F          60.5577   89.3387   10.4809 F       1  UNL1       -0.2040
     11 C          60.2028   89.7366    8.1697 C.ar    1  UNL1        0.0443
     12 N          60.1474   92.2465    3.9419 N.pl3   1  UNL1       -0.3034
     13 C          58.9493   92.2713    4.7849 C.3     1  UNL1        0.1123
     14 C          58.6199   90.8535    5.2585 C.3     1  UNL1        0.1122
     15 N          59.8297   90.2003    5.7788 N.pl3   1  UNL1       -0.3040
     16 C          61.0352   90.2006    4.9375 C.3     1  UNL1        0.1122
     17 C          61.3571   91.6250    4.4863 C.3     1  UNL1        0.1123
     18 C          59.9057   93.3369   -0.1731 C.ar    1  UNL1       -0.0110
     19 C          58.7477   93.0927    0.5898 C.ar    1  UNL1       -0.0021
     20 C          58.8358   92.7432    1.9345 C.ar    1  UNL1        0.0151
     21 C          60.0810   92.6255    2.5572 C.ar    1  UNL1        0.0594
     22 C          61.2532   92.8739    1.8206 C.ar    1  UNL1        0.0811
     23 CL         62.8222   92.7840    2.6257 Cl      1  UNL1       -0.0801
     24 C          61.1723   93.2281    0.4575 C.ar    1  UNL1        0.0654
     25 CL         62.6709   93.5347   -0.4296 Cl      1  UNL1       -0.0817
     26 C          58.2997   94.0248   -1.9950 C.3     1  UNL1        0.0047
     27 C          59.7607   93.7147   -1.6440 C.3     1  UNL1        0.0232
     28 C          60.6753   94.8925   -2.0042 C.3     1  UNL1        0.0047
     29 C          58.9916   86.3207   12.7690 C.3     1  UNL1        0.1535
     30 C          58.3580   85.0462   12.2823 C.2     1  UNL1        0.2443
     31 O          57.2078   85.0904   11.7675 O.2     1  UNL1       -0.2730
     32 N          59.0227   83.7857   12.4702 N.am    1  UNL1       -0.2825
     33 H          59.7946   83.7387   13.1732 H       1  UNL1        0.1549
     34 C          58.6331   82.5659   11.8167 C.ar    1  UNL1        0.0535
     35 C          58.2161   82.5510   10.4746 C.ar    1  UNL1        0.0353
     36 C          57.8725   81.3373    9.8736 C.ar    1  UNL1        0.1002
     37 N          57.9551   80.1785   10.5792 N.ar    1  UNL1       -0.2422
     38 C          58.3727   80.1610   11.8725 C.ar    1  UNL1        0.1002
     39 C          58.7269   81.3519   12.5109 C.ar    1  UNL1        0.0353
     40 C          60.2664   86.0111   13.5718 C.3     1  UNL1        0.0569
     41 C          61.4141   86.8611   13.1084 C.ar    1  UNL1       -0.0017
     42 C          62.0517   86.7913   11.8730 C.ar    1  UNL1        0.0681
     43 N          62.9767   87.7719   11.7630 N.ar    1  UNL1       -0.3523
     44 C          62.9200   88.4668   12.9125 C.ar    1  UNL1        0.0563
     45 C          63.6699   89.5899   13.2589 C.ar    1  UNL1        0.0170
     46 C          63.4284   90.1804   14.5130 C.ar    1  UNL1        0.0015
     47 C          62.4510   89.6441   15.3807 C.ar    1  UNL1        0.0001
     48 C          61.7072   88.5112   15.0032 C.ar    1  UNL1        0.0012
     49 C          61.9739   87.9443   13.7567 C.ar    1  UNL1        0.0131
     50 H          63.5940   87.9593   10.9419 H       1  UNL1        0.1660
@<TRIPOS>BOND
     1    26    27    1
     2    27    28    1
     3    27    18    1
     4    18    19   ar
     5    19    20   ar
     6    20    21   ar
     7    21    12    1
     8    12    13    1
     9    13    14    1
    10    14    15    1
    11    15     5    1
    12     5     6   ar
    13     6     7   ar
    14     7     8   ar
    15     8     1    1
    16     1     2    2
    17     1     3   am
    18     3    29    1
    19    29    40    1
    20    40    41    1
    21    41    42   ar
    22    42    43   ar
    23    43    44   ar
    24    44    45   ar
    25    45    46   ar
    26    46    47   ar
    27    47    48   ar
    28    48    49   ar
    29    29    30    1
    30    30    31    2
    31    30    32   am
    32    32    34    1
    33    34    35   ar
    34    35    36   ar
    35    36    37   ar
    36    37    38   ar
    37    38    39   ar
    38     8     9   ar
    39     9    10    1
    40     9    11   ar
    41    15    16    1
    42    16    17    1
    43    21    22   ar
    44    22    23    1
    45    22    24   ar
    46    24    25    1
    47    24    18   ar
    48    17    12    1
    49    11     5   ar
    50    49    41   ar
    51    39    34   ar
    52    49    44   ar
    53     3     4    1
    54    43    50    1
    55    32    33    1
@<TRIPOS>MOLECULE
*****
 50 55 0 0 0
SMALL
GASTEIGER

@<TRIPOS>ATOM
      1 C          59.5946   84.7524    9.0399 C.2     1  UNL1        0.2483
      2 O          58.4300   85.0407    8.6501 O.2     1  UNL1       -0.2701
      3 N          60.1264   83.4438    8.7822 N.am    1  UNL1       -0.2945
      4 H          61.1592   83.2974    8.8511 H       1  UNL1        0.1501
      5 C          61.9663   87.6858   11.1156 C.ar    1  UNL1        0.0502
      6 C          62.1664   87.4450    9.7478 C.ar    1  UNL1        0.0148
      7 C          61.3947   86.4938    9.0762 C.ar    1  UNL1        0.0080
      8 C          60.4016   85.7677    9.7577 C.ar    1  UNL1        0.0808
      9 C          60.2055   86.0071   11.1321 C.ar    1  UNL1        0.1457
     10 F          59.2475   85.3410   11.8259 F       1  UNL1       -0.2040
     11 C          60.9802   86.9606   11.8000 C.ar    1  UNL1        0.0443
     12 N          63.8252   90.7513   13.2882 N.pl3   1  UNL1       -0.3034
     13 C          63.3168   91.0592   11.9490 C.3     1  UNL1        0.1123
     14 C          63.3466   89.7986   11.0813 C.3     1  UNL1        0.1122
     15 N          62.7569   88.6676   11.8121 N.pl3   1  UNL1       -0.3040
     16 C          63.2550   88.3797   13.1647 C.3     1  UNL1        0.1122
     17 C          63.2043   89.6449   14.0207 C.3     1  UNL1        0.1123
     18 C          67.4164   92.5568   14.7109 C.ar    1  UNL1       -0.0110
     19 C          67.2512   92.2245   13.3527 C.ar    1  UNL1       -0.0021
     20 C          66.0728   91.6408   12.8957 C.ar    1  UNL1        0.0151
     21 C          65.0254   91.3702   13.7801 C.ar    1  UNL1        0.0594
     22 C          65.1605   91.7016   15.1403 C.ar    1  UNL1        0.0811
     23 CL         63.8122   91.4144   16.2439 Cl      1  UNL1       -0.0801
     24 C          66.3516   92.2928   15.6111 C.ar    1  UNL1        0.0654
     25 CL         66.4774   92.6960   17.3282 Cl      1  UNL1       -0.0817
     26 C          68.4817   94.5625   15.8126 C.3     1  UNL1        0.0047
     27 C          68.7262   93.1926   15.1665 C.3     1  UNL1        0.0232
     28 C          69.4891   92.2631   16.1190 C.3     1  UNL1        0.0047
     29 C          59.2926   82.3489    8.2771 C.3     1  UNL1        0.1535
     30 C          60.0282   81.0433    8.4074 C.2     1  UNL1        0.2443
     31 O          59.9802   80.2147    7.4582 O.2     1  UNL1       -0.2730
     32 N          60.7133   80.7132    9.6270 N.am    1  UNL1       -0.2825
     33 H          60.4673   81.2512   10.4885 H       1  UNL1        0.1549
     34 C          61.6504   79.6305    9.7552 C.ar    1  UNL1        0.0535
     35 C          62.8403   79.5949    9.0080 C.ar    1  UNL1        0.0353
     36 C          63.7338   78.5356    9.1859 C.ar    1  UNL1        0.1002
     37 N          63.4594   77.5546   10.0859 N.ar    1  UNL1       -0.2422
     38 C          62.3256   77.5731   10.8352 C.ar    1  UNL1        0.1002
     39 C          61.4061   78.6147   10.6895 C.ar    1  UNL1        0.0353
     40 C          57.9563   82.2874    9.0359 C.3     1  UNL1        0.0569
     41 C          57.9640   81.1809   10.0509 C.ar    1  UNL1       -0.0017
     42 C          57.5145   79.8775    9.8598 C.ar    1  UNL1        0.0681
     43 N          57.7640   79.1265   10.9567 N.ar    1  UNL1       -0.3523
     44 C          58.3775   79.9409   11.8329 C.ar    1  UNL1        0.0563
     45 C          58.8521   79.6130   13.1021 C.ar    1  UNL1        0.0170
     46 C          59.4910   80.6219   13.8461 C.ar    1  UNL1        0.0015
     47 C          59.6435   81.9197   13.3092 C.ar    1  UNL1        0.0001
     48 C          59.1569   82.2212   12.0241 C.ar    1  UNL1        0.0012
     49 C          58.5224   81.2020   11.3137 C.ar    1  UNL1        0.0131
     50 H          57.5411   78.1144   11.0850 H       1  UNL1        0.1660
@<TRIPOS>BOND
     1    26    27    1
     2    27    28    1
     3    27    18    1
     4    18    19   ar
     5    19    20   ar
     6    20    21   ar
     7    21    12    1
     8    12    13    1
     9    13    14    1
    10    14    15    1
    11    15     5    1
    12     5     6   ar
    13     6     7   ar
    14     7     8   ar
    15     8     1    1
    16     1     2    2
    17     1     3   am
    18     3    29    1
    19    29    40    1
    20    40    41    1
    21    41    42   ar
    22    42    43   ar
    23    43    44   ar
    24    44    45   ar
    25    45    46   ar
    26    46    47   ar
    27    47    48   ar
    28    48    49   ar
    29    29    30    1
    30    30    31    2
    31    30    32   am
    32    32    34    1
    33    34    35   ar
    34    35    36   ar
    35    36    37   ar
    36    37    38   ar
    37    38    39   ar
    38     8     9   ar
    39     9    10    1
    40     9    11   ar
    41    15    16    1
    42    16    17    1
    43    21    22   ar
    44    22    23    1
    45    22    24   ar
    46    24    25    1
    47    24    18   ar
    48    17    12    1
    49    11     5   ar
    50    49    41   ar
    51    39    34   ar
    52    49    44   ar
    53     3     4    1
    54    43    50    1
    55    32    33    1
