@<TRIPOS>MOLECULE
*****
 34 38 0 0 0
SMALL
GASTEIGER

@<TRIPOS>ATOM
      1 C           5.2626   74.2616   21.4122 C.2     1  UNL1        0.2490
      2 O           5.1801   73.2320   20.6880 O.2     1  UNL1       -0.2699
      3 N           6.4637   74.4949   22.1715 N.am    1  UNL1       -0.2760
      4 C           7.1251   75.8035   22.1487 C.3     1  UNL1        0.0954
      5 C           8.4967   75.6856   21.4673 C.3     1  UNL1        0.0399
      6 C           9.3704   74.5266   22.0287 C.3     1  UNL1        0.0645
      7 C           8.5428   73.2115   22.0390 C.3     1  UNL1        0.0399
      8 C           7.2003   73.3737   22.7590 C.3     1  UNL1        0.0954
      9 C           9.8723   74.8546   23.4834 C.3     1  UNL1        0.0477
     10 C          10.9838   75.8583   23.4525 C.ar    1  UNL1        0.0220
     11 C          11.4941   76.6674   24.4407 C.ar    1  UNL1        0.0923
     12 N          12.6195   77.2528   23.9586 N.ar    1  UNL1       -0.2534
     13 N          12.8569   76.8154   22.7247 N.ar    1  UNL1       -0.1651
     14 C          11.8607   75.9669   22.4187 C.ar    1  UNL1        0.1515
     15 C          11.6947   75.1757   21.2104 C.2     1  UNL1        0.2650
     16 O          12.5529   75.1973   20.2891 O.2     1  UNL1       -0.2684
     17 N          10.5253   74.3467   21.1140 N.am    1  UNL1       -0.3023
     18 H          10.4262   73.7391   20.2689 H       1  UNL1        0.1497
     19 C           2.6813   77.8195   23.7221 C.ar    1  UNL1        0.2248
     20 N           1.6123   78.6650   23.7370 N.ar    1  UNL1       -0.2101
     21 C           0.7023   78.6999   22.7291 C.ar    1  UNL1        0.1021
     22 C           0.8406   77.8536   21.6293 C.ar    1  UNL1        0.0209
     23 C           1.9251   76.9693   21.5743 C.ar    1  UNL1        0.0060
     24 C           2.0859   76.1052   20.4828 C.ar    1  UNL1        0.0003
     25 C           3.1709   75.2271   20.4342 C.ar    1  UNL1        0.0045
     26 C           4.1180   75.2022   21.4715 C.ar    1  UNL1        0.0537
     27 C           3.9503   76.0574   22.5750 C.ar    1  UNL1        0.0092
     28 C           2.8630   76.9467   22.6321 C.ar    1  UNL1        0.0534
     29 C           3.3330   77.1810   26.0275 C.3     1  UNL1        0.2542
     30 O           3.5941   77.8206   24.7840 O.3     1  UNL1       -0.4561
     31 C          13.5052   78.1704   24.7028 C.3     1  UNL1        0.0867
     32 C          13.6112   77.7121   26.1704 C.3     1  UNL1        0.0244
     33 C          12.9436   79.6085   24.6750 C.3     1  UNL1        0.0244
     34 C          14.9019   78.1677   24.0550 C.3     1  UNL1        0.0244
@<TRIPOS>BOND
     1    29    30    1
     2    30    19    1
     3    19    20   ar
     4    20    21   ar
     5    21    22   ar
     6    22    23   ar
     7    23    24   ar
     8    24    25   ar
     9    25    26   ar
    10    26     1    1
    11     1     2    2
    12     1     3   am
    13     3     4    1
    14     4     5    1
    15     5     6    1
    16     6     7    1
    17     7     8    1
    18     6     9    1
    19     9    10    1
    20    10    11   ar
    21    11    12   ar
    22    12    31    1
    23    31    32    1
    24    31    33    1
    25    31    34    1
    26    12    13   ar
    27    13    14   ar
    28    14    15    1
    29    15    16    2
    30    15    17   am
    31    26    27   ar
    32    27    28   ar
    33    28    19   ar
    34    28    23   ar
    35     8     3    1
    36    14    10   ar
    37    17     6    1
    38    17    18    1
@<TRIPOS>MOLECULE
*****
 34 38 0 0 0
SMALL
GASTEIGER

@<TRIPOS>ATOM
      1 C           5.5135   74.7790   22.4347 C.2     1  UNL1        0.2490
      2 O           5.2933   73.7342   21.7629 O.2     1  UNL1       -0.2699
      3 N           6.8134   74.9788   23.0214 N.am    1  UNL1       -0.2760
      4 C           7.5192   76.2549   22.8677 C.3     1  UNL1        0.0954
      5 C           8.7823   76.0559   22.0164 C.3     1  UNL1        0.0399
      6 C           9.6742   74.8747   22.4970 C.3     1  UNL1        0.0645
      7 C           8.8018   73.5993   22.6604 C.3     1  UNL1        0.0399
      8 C           7.5745   73.8423   23.5446 C.3     1  UNL1        0.0954
      9 C          10.3778   75.2203   23.8613 C.3     1  UNL1        0.0477
     10 C          11.5158   76.1713   23.6508 C.ar    1  UNL1        0.0220
     11 C          12.1856   76.9839   24.5355 C.ar    1  UNL1        0.0923
     12 N          13.2603   77.5039   23.8902 N.ar    1  UNL1       -0.2534
     13 N          13.3136   77.0217   22.6513 N.ar    1  UNL1       -0.1651
     14 C          12.2515   76.2110   22.5077 C.ar    1  UNL1        0.1515
     15 C          11.8941   75.3945   21.3591 C.2     1  UNL1        0.2650
     16 O          12.6226   75.3514   20.3329 O.2     1  UNL1       -0.2684
     17 N          10.6891   74.6171   21.4451 N.am    1  UNL1       -0.3023
     18 H          10.4537   73.9911   20.6414 H       1  UNL1        0.1497
     19 C           2.7302   78.5214   20.7303 C.ar    1  UNL1        0.2248
     20 N           1.7268   79.4202   20.9382 N.ar    1  UNL1       -0.2101
     21 C           1.0380   79.4792   22.1075 C.ar    1  UNL1        0.1021
     22 C           1.3461   78.6035   23.1482 C.ar    1  UNL1        0.0209
     23 C           2.3703   77.6642   22.9761 C.ar    1  UNL1        0.0060
     24 C           2.7030   76.7750   24.0068 C.ar    1  UNL1        0.0003
     25 C           3.7247   75.8399   23.8271 C.ar    1  UNL1        0.0045
     26 C           4.4267   75.7718   22.6121 C.ar    1  UNL1        0.0537
     27 C           4.1049   76.6732   21.5820 C.ar    1  UNL1        0.0092
     28 C           3.0765   77.6164   21.7520 C.ar    1  UNL1        0.0534
     29 C           3.1333   77.5457   18.4869 C.3     1  UNL1        0.2542
     30 O           3.4112   78.4975   19.5069 O.3     1  UNL1       -0.4561
     31 C          14.2740   78.4009   24.4802 C.3     1  UNL1        0.0867
     32 C          15.4988   78.4829   23.5484 C.3     1  UNL1        0.0244
     33 C          14.7351   77.8693   25.8546 C.3     1  UNL1        0.0244
     34 C          13.6671   79.8035   24.6659 C.3     1  UNL1        0.0244
@<TRIPOS>BOND
     1    29    30    1
     2    30    19    1
     3    19    20   ar
     4    20    21   ar
     5    21    22   ar
     6    22    23   ar
     7    23    24   ar
     8    24    25   ar
     9    25    26   ar
    10    26     1    1
    11     1     2    2
    12     1     3   am
    13     3     4    1
    14     4     5    1
    15     5     6    1
    16     6     7    1
    17     7     8    1
    18     6     9    1
    19     9    10    1
    20    10    11   ar
    21    11    12   ar
    22    12    31    1
    23    31    32    1
    24    31    33    1
    25    31    34    1
    26    12    13   ar
    27    13    14   ar
    28    14    15    1
    29    15    16    2
    30    15    17   am
    31    26    27   ar
    32    27    28   ar
    33    28    19   ar
    34    28    23   ar
    35     8     3    1
    36    14    10   ar
    37    17     6    1
    38    17    18    1
@<TRIPOS>MOLECULE
*****
 34 38 0 0 0
SMALL
GASTEIGER

@<TRIPOS>ATOM
      1 C           9.6918   75.9863   26.7999 C.2     1  UNL1        0.2490
      2 O          10.6782   75.2041   26.8816 O.2     1  UNL1       -0.2699
      3 N           9.2245   76.3980   25.5014 N.am    1  UNL1       -0.2760
      4 C           7.7995   76.3366   25.1613 C.3     1  UNL1        0.0954
      5 C           7.5676   75.2880   24.0630 C.3     1  UNL1        0.0399
      6 C           8.5198   75.4474   22.8425 C.3     1  UNL1        0.0645
      7 C           9.9888   75.5430   23.3399 C.3     1  UNL1        0.0399
      8 C          10.1727   76.6251   24.4086 C.3     1  UNL1        0.0954
      9 C           8.1532   76.7292   22.0069 C.3     1  UNL1        0.0477
     10 C           6.9208   76.4993   21.1871 C.ar    1  UNL1        0.0220
     11 C           6.0629   77.3880   20.5823 C.ar    1  UNL1        0.0923
     12 N           5.2131   76.6773   19.7985 N.ar    1  UNL1       -0.2534
     13 N           5.5266   75.3856   19.8566 N.ar    1  UNL1       -0.1651
     14 C           6.5660   75.2794   20.7018 C.ar    1  UNL1        0.1515
     15 C           7.3173   74.0860   21.0554 C.2     1  UNL1        0.2650
     16 O           7.0565   72.9689   20.5360 O.2     1  UNL1       -0.2684
     17 N           8.3871   74.2305   22.0032 N.am    1  UNL1       -0.3023
     18 H           8.9614   73.3850   22.2236 H       1  UNL1        0.1497
     19 C           6.3016   75.5113   30.3967 C.ar    1  UNL1        0.2248
     20 N           5.7315   75.9952   31.5364 N.ar    1  UNL1       -0.2101
     21 C           6.1503   77.1463   32.1234 C.ar    1  UNL1        0.1021
     22 C           7.1965   77.8792   31.5636 C.ar    1  UNL1        0.0209
     23 C           7.8100   77.4172   30.3926 C.ar    1  UNL1        0.0060
     24 C           8.8608   78.1359   29.8069 C.ar    1  UNL1        0.0003
     25 C           9.4689   77.6681   28.6399 C.ar    1  UNL1        0.0045
     26 C           9.0429   76.4703   28.0419 C.ar    1  UNL1        0.0537
     27 C           7.9786   75.7554   28.6194 C.ar    1  UNL1        0.0092
     28 C           7.3617   76.2166   29.7953 C.ar    1  UNL1        0.0534
     29 C           4.4647   73.9423   29.8387 C.3     1  UNL1        0.2542
     30 O           5.8364   74.3189   29.8287 O.3     1  UNL1       -0.4561
     31 C           4.1522   77.2400   18.9393 C.3     1  UNL1        0.0867
     32 C           3.4370   76.1015   18.1858 C.3     1  UNL1        0.0244
     33 C           4.7527   78.2152   17.9036 C.3     1  UNL1        0.0244
     34 C           3.1392   78.0019   19.8131 C.3     1  UNL1        0.0244
@<TRIPOS>BOND
     1    29    30    1
     2    30    19    1
     3    19    20   ar
     4    20    21   ar
     5    21    22   ar
     6    22    23   ar
     7    23    24   ar
     8    24    25   ar
     9    25    26   ar
    10    26     1    1
    11     1     2    2
    12     1     3   am
    13     3     4    1
    14     4     5    1
    15     5     6    1
    16     6     7    1
    17     7     8    1
    18     6     9    1
    19     9    10    1
    20    10    11   ar
    21    11    12   ar
    22    12    31    1
    23    31    32    1
    24    31    33    1
    25    31    34    1
    26    12    13   ar
    27    13    14   ar
    28    14    15    1
    29    15    16    2
    30    15    17   am
    31    26    27   ar
    32    27    28   ar
    33    28    19   ar
    34    28    23   ar
    35     8     3    1
    36    14    10   ar
    37    17     6    1
    38    17    18    1
@<TRIPOS>MOLECULE
*****
 34 38 0 0 0
SMALL
GASTEIGER

@<TRIPOS>ATOM
      1 C           7.1739   74.7377   21.2920 C.2     1  UNL1        0.2490
      2 O           8.2587   74.3536   20.7752 O.2     1  UNL1       -0.2699
      3 N           7.0057   74.6564   22.7199 N.am    1  UNL1       -0.2760
      4 C           6.4975   75.8007   23.4832 C.3     1  UNL1        0.0954
      5 C           7.5941   76.3377   24.4152 C.3     1  UNL1        0.0399
      6 C           8.2719   75.2327   25.2762 C.3     1  UNL1        0.0645
      7 C           8.7247   74.0642   24.3575 C.3     1  UNL1        0.0399
      8 C           7.5868   73.5434   23.4738 C.3     1  UNL1        0.0954
      9 C           7.2864   74.6956   26.3790 C.3     1  UNL1        0.0477
     10 C           7.1526   75.6781   27.5017 C.ar    1  UNL1        0.0220
     11 C           6.1966   75.7994   28.4830 C.ar    1  UNL1        0.0923
     12 N           6.6300   76.7278   29.3728 N.ar    1  UNL1       -0.2534
     13 N           7.8336   77.1650   29.0116 N.ar    1  UNL1       -0.1651
     14 C           8.1499   76.5249   27.8730 C.ar    1  UNL1        0.1515
     15 C           9.3858   76.6051   27.1117 C.2     1  UNL1        0.2650
     16 O          10.3515   77.3132   27.5013 O.2     1  UNL1       -0.2684
     17 N           9.4766   75.8267   25.9077 N.am    1  UNL1       -0.3023
     18 H          10.3809   75.8430   25.3831 H       1  UNL1        0.1497
     19 C           4.9238   78.4751   18.9201 C.ar    1  UNL1        0.2248
     20 N           3.9121   78.9080   18.1158 N.ar    1  UNL1       -0.2101
     21 C           2.9642   78.0664   17.6278 C.ar    1  UNL1        0.1021
     22 C           3.0017   76.7085   17.9437 C.ar    1  UNL1        0.0209
     23 C           4.0246   76.2222   18.7672 C.ar    1  UNL1        0.0060
     24 C           4.0838   74.8631   19.1036 C.ar    1  UNL1        0.0003
     25 C           5.1079   74.3851   19.9241 C.ar    1  UNL1        0.0045
     26 C           6.0948   75.2552   20.4168 C.ar    1  UNL1        0.0537
     27 C           6.0287   76.6219   20.0932 C.ar    1  UNL1        0.0092
     28 C           5.0033   77.1124   19.2659 C.ar    1  UNL1        0.0534
     29 C           7.1245   79.6042   18.7479 C.3     1  UNL1        0.2542
     30 O           5.8792   79.3805   19.3981 O.3     1  UNL1       -0.4561
     31 C           5.9279   77.1409   30.6044 C.3     1  UNL1        0.0867
     32 C           5.7052   75.9142   31.5105 C.3     1  UNL1        0.0244
     33 C           4.5541   77.7585   30.2648 C.3     1  UNL1        0.0244
     34 C           6.7761   78.1890   31.3475 C.3     1  UNL1        0.0244
@<TRIPOS>BOND
     1    29    30    1
     2    30    19    1
     3    19    20   ar
     4    20    21   ar
     5    21    22   ar
     6    22    23   ar
     7    23    24   ar
     8    24    25   ar
     9    25    26   ar
    10    26     1    1
    11     1     2    2
    12     1     3   am
    13     3     4    1
    14     4     5    1
    15     5     6    1
    16     6     7    1
    17     7     8    1
    18     6     9    1
    19     9    10    1
    20    10    11   ar
    21    11    12   ar
    22    12    31    1
    23    31    32    1
    24    31    33    1
    25    31    34    1
    26    12    13   ar
    27    13    14   ar
    28    14    15    1
    29    15    16    2
    30    15    17   am
    31    26    27   ar
    32    27    28   ar
    33    28    19   ar
    34    28    23   ar
    35     8     3    1
    36    14    10   ar
    37    17     6    1
    38    17    18    1
@<TRIPOS>MOLECULE
*****
 34 38 0 0 0
SMALL
GASTEIGER

@<TRIPOS>ATOM
      1 C           8.9033   75.4820   26.8391 C.2     1  UNL1        0.2490
      2 O          10.0588   74.9757   26.8285 O.2     1  UNL1       -0.2699
      3 N           8.3410   75.9805   25.6107 N.am    1  UNL1       -0.2760
      4 C           6.9792   75.6175   25.2058 C.3     1  UNL1        0.0954
      5 C           7.0226   74.7524   23.9373 C.3     1  UNL1        0.0399
      6 C           7.8970   75.3597   22.8022 C.3     1  UNL1        0.0645
      7 C           9.2929   75.7390   23.3696 C.3     1  UNL1        0.0399
      8 C           9.1943   76.6289   24.6127 C.3     1  UNL1        0.0954
      9 C           7.2084   76.6308   22.1809 C.3     1  UNL1        0.0477
     10 C           6.0746   76.2404   21.2833 C.ar    1  UNL1        0.0220
     11 C           5.0139   76.9719   20.8022 C.ar    1  UNL1        0.0923
     12 N           4.3741   76.2156   19.8747 N.ar    1  UNL1       -0.2534
     13 N           5.0113   75.0570   19.7265 N.ar    1  UNL1       -0.1651
     14 C           6.0458   75.0741   20.5842 C.ar    1  UNL1        0.1515
     15 C           7.0813   74.0694   20.7619 C.2     1  UNL1        0.2650
     16 O           7.1166   73.0309   20.0505 O.2     1  UNL1       -0.2684
     17 N           8.0807   74.3147   21.7643 N.am    1  UNL1       -0.3023
     18 H           8.8549   73.6189   21.8623 H       1  UNL1        0.1497
     19 C           7.2810   78.0442   30.7711 C.ar    1  UNL1        0.2248
     20 N           6.5866   78.0695   31.9437 N.ar    1  UNL1       -0.2101
     21 C           5.9745   76.9662   32.4469 C.ar    1  UNL1        0.1021
     22 C           6.0420   75.7528   31.7628 C.ar    1  UNL1        0.0209
     23 C           6.7455   75.6833   30.5540 C.ar    1  UNL1        0.0060
     24 C           6.8325   74.4759   29.8480 C.ar    1  UNL1        0.0003
     25 C           7.5346   74.4147   28.6422 C.ar    1  UNL1        0.0045
     26 C           8.1556   75.5602   28.1170 C.ar    1  UNL1        0.0537
     27 C           8.0826   76.7691   28.8313 C.ar    1  UNL1        0.0092
     28 C           7.3762   76.8417   30.0446 C.ar    1  UNL1        0.0534
     29 C           9.1052   79.7222   30.8328 C.3     1  UNL1        0.2542
     30 O           7.8945   79.2081   30.2913 O.3     1  UNL1       -0.4561
     31 C           3.2008   76.6295   19.0794 C.3     1  UNL1        0.0867
     32 C           2.1456   75.5063   19.0890 C.3     1  UNL1        0.0244
     33 C           3.6082   76.9104   17.6168 C.3     1  UNL1        0.0244
     34 C           2.6011   77.9116   19.6853 C.3     1  UNL1        0.0244
@<TRIPOS>BOND
     1    29    30    1
     2    30    19    1
     3    19    20   ar
     4    20    21   ar
     5    21    22   ar
     6    22    23   ar
     7    23    24   ar
     8    24    25   ar
     9    25    26   ar
    10    26     1    1
    11     1     2    2
    12     1     3   am
    13     3     4    1
    14     4     5    1
    15     5     6    1
    16     6     7    1
    17     7     8    1
    18     6     9    1
    19     9    10    1
    20    10    11   ar
    21    11    12   ar
    22    12    31    1
    23    31    32    1
    24    31    33    1
    25    31    34    1
    26    12    13   ar
    27    13    14   ar
    28    14    15    1
    29    15    16    2
    30    15    17   am
    31    26    27   ar
    32    27    28   ar
    33    28    19   ar
    34    28    23   ar
    35     8     3    1
    36    14    10   ar
    37    17     6    1
    38    17    18    1
@<TRIPOS>MOLECULE
*****
 34 38 0 0 0
SMALL
GASTEIGER

@<TRIPOS>ATOM
      1 C           9.2357   77.0744   21.7856 C.2     1  UNL1        0.2490
      2 O          10.4705   77.0282   21.5315 O.2     1  UNL1       -0.2699
      3 N           8.7475   76.5070   23.0159 N.am    1  UNL1       -0.2760
      4 C           7.8313   77.2593   23.8789 C.3     1  UNL1        0.0954
      5 C           8.5236   77.6003   25.2071 C.3     1  UNL1        0.0399
      6 C           9.1967   76.3736   25.8882 C.3     1  UNL1        0.0645
      7 C          10.1036   75.6424   24.8600 C.3     1  UNL1        0.0399
      8 C           9.3570   75.2953   23.5681 C.3     1  UNL1        0.0954
      9 C           8.1150   75.3788   26.4504 C.3     1  UNL1        0.0477
     10 C           7.5007   75.9112   27.7085 C.ar    1  UNL1        0.0220
     11 C           6.3322   75.5760   28.3519 C.ar    1  UNL1        0.0923
     12 N           6.3223   76.2092   29.5521 N.ar    1  UNL1       -0.2534
     13 N           7.4518   76.8958   29.7042 N.ar    1  UNL1       -0.1651
     14 C           8.1675   76.7130   28.5815 C.ar    1  UNL1        0.1515
     15 C           9.5029   77.2013   28.2787 C.2     1  UNL1        0.2650
     16 O          10.1658   77.8632   29.1203 O.2     1  UNL1       -0.2684
     17 N          10.0517   76.8808   26.9903 N.am    1  UNL1       -0.3023
     18 H          11.0302   77.1879   26.7865 H       1  UNL1        0.1497
     19 C           4.8742   77.2488   19.4183 C.ar    1  UNL1        0.2248
     20 N           4.0627   77.8565   18.5072 N.ar    1  UNL1       -0.2101
     21 C           4.4538   78.9523   17.8062 C.ar    1  UNL1        0.1021
     22 C           5.7228   79.4958   18.0041 C.ar    1  UNL1        0.0209
     23 C           6.5881   78.9019   18.9312 C.ar    1  UNL1        0.0060
     24 C           7.8701   79.4252   19.1469 C.ar    1  UNL1        0.0003
     25 C           8.7270   78.8285   20.0744 C.ar    1  UNL1        0.0045
     26 C           8.3154   77.7032   20.8079 C.ar    1  UNL1        0.0537
     27 C           7.0352   77.1672   20.5821 C.ar    1  UNL1        0.0092
     28 C           6.1643   77.7621   19.6526 C.ar    1  UNL1        0.0534
     29 C           4.2128   74.8605   19.4956 C.3     1  UNL1        0.2542
     30 O           4.4262   76.1216   20.1181 O.3     1  UNL1       -0.4561
     31 C           5.2691   76.0982   30.5811 C.3     1  UNL1        0.0867
     32 C           4.5471   74.7439   30.4400 C.3     1  UNL1        0.0244
     33 C           4.2306   77.2294   30.4191 C.3     1  UNL1        0.0244
     34 C           5.9080   76.2038   31.9778 C.3     1  UNL1        0.0244
@<TRIPOS>BOND
     1    29    30    1
     2    30    19    1
     3    19    20   ar
     4    20    21   ar
     5    21    22   ar
     6    22    23   ar
     7    23    24   ar
     8    24    25   ar
     9    25    26   ar
    10    26     1    1
    11     1     2    2
    12     1     3   am
    13     3     4    1
    14     4     5    1
    15     5     6    1
    16     6     7    1
    17     7     8    1
    18     6     9    1
    19     9    10    1
    20    10    11   ar
    21    11    12   ar
    22    12    31    1
    23    31    32    1
    24    31    33    1
    25    31    34    1
    26    12    13   ar
    27    13    14   ar
    28    14    15    1
    29    15    16    2
    30    15    17   am
    31    26    27   ar
    32    27    28   ar
    33    28    19   ar
    34    28    23   ar
    35     8     3    1
    36    14    10   ar
    37    17     6    1
    38    17    18    1
@<TRIPOS>MOLECULE
*****
 34 38 0 0 0
SMALL
GASTEIGER

@<TRIPOS>ATOM
      1 C           7.2383   74.3451   21.4045 C.2     1  UNL1        0.2490
      2 O           8.1438   73.9317   20.6294 O.2     1  UNL1       -0.2699
      3 N           7.5633   74.6336   22.7774 N.am    1  UNL1       -0.2760
      4 C           7.1417   75.8920   23.4011 C.3     1  UNL1        0.0954
      5 C           8.3716   76.7505   23.7327 C.3     1  UNL1        0.0399
      6 C           9.4751   75.9779   24.5118 C.3     1  UNL1        0.0645
      7 C           9.7987   74.6500   23.7726 C.3     1  UNL1        0.0399
      8 C           8.5434   73.8164   23.4960 C.3     1  UNL1        0.0954
      9 C           9.0140   75.6718   25.9847 C.3     1  UNL1        0.0477
     10 C           9.0859   76.9030   26.8348 C.ar    1  UNL1        0.0220
     11 C           8.4977   77.1992   28.0423 C.ar    1  UNL1        0.0923
     12 N           9.0297   78.3651   28.4888 N.ar    1  UNL1       -0.2534
     13 N           9.9533   78.7918   27.6315 N.ar    1  UNL1       -0.1651
     14 C           9.9862   77.9007   26.6259 C.ar    1  UNL1        0.1515
     15 C          10.8711   77.8808   25.4727 C.2     1  UNL1        0.2650
     16 O          11.7722   78.7474   25.3223 O.2     1  UNL1       -0.2684
     17 N          10.6973   76.8201   24.5196 N.am    1  UNL1       -0.3023
     18 H          11.3627   76.7734   23.7145 H       1  UNL1        0.1497
     19 C           3.9593   76.6263   18.4547 C.ar    1  UNL1        0.2248
     20 N           2.6770   76.7510   18.0097 N.ar    1  UNL1       -0.2101
     21 C           1.6691   75.9691   18.4763 C.ar    1  UNL1        0.1021
     22 C           1.9249   74.9977   19.4437 C.ar    1  UNL1        0.0209
     23 C           3.2289   74.8365   19.9281 C.ar    1  UNL1        0.0060
     24 C           3.5131   73.8707   20.9030 C.ar    1  UNL1        0.0003
     25 C           4.8164   73.7147   21.3801 C.ar    1  UNL1        0.0045
     26 C           5.8598   74.5155   20.8863 C.ar    1  UNL1        0.0537
     27 C           5.5741   75.4955   19.9192 C.ar    1  UNL1        0.0092
     28 C           4.2661   75.6587   19.4307 C.ar    1  UNL1        0.0534
     29 C           5.1420   78.8032   18.3591 C.3     1  UNL1        0.2542
     30 O           4.9656   77.4546   17.9426 O.3     1  UNL1       -0.4561
     31 C           8.7084   79.0299   29.7675 C.3     1  UNL1        0.0867
     32 C           9.9608   79.7475   30.3077 C.3     1  UNL1        0.0244
     33 C           8.2429   77.9954   30.8151 C.3     1  UNL1        0.0244
     34 C           7.5802   80.0526   29.5409 C.3     1  UNL1        0.0244
@<TRIPOS>BOND
     1    29    30    1
     2    30    19    1
     3    19    20   ar
     4    20    21   ar
     5    21    22   ar
     6    22    23   ar
     7    23    24   ar
     8    24    25   ar
     9    25    26   ar
    10    26     1    1
    11     1     2    2
    12     1     3   am
    13     3     4    1
    14     4     5    1
    15     5     6    1
    16     6     7    1
    17     7     8    1
    18     6     9    1
    19     9    10    1
    20    10    11   ar
    21    11    12   ar
    22    12    31    1
    23    31    32    1
    24    31    33    1
    25    31    34    1
    26    12    13   ar
    27    13    14   ar
    28    14    15    1
    29    15    16    2
    30    15    17   am
    31    26    27   ar
    32    27    28   ar
    33    28    19   ar
    34    28    23   ar
    35     8     3    1
    36    14    10   ar
    37    17     6    1
    38    17    18    1
@<TRIPOS>MOLECULE
*****
 34 38 0 0 0
SMALL
GASTEIGER

@<TRIPOS>ATOM
      1 C           4.4779   77.0217   26.6208 C.2     1  UNL1        0.2490
      2 O           3.9821   76.4596   27.6355 O.2     1  UNL1       -0.2699
      3 N           5.8097   77.5644   26.6959 N.am    1  UNL1       -0.2760
      4 C           6.7994   77.2743   25.6536 C.3     1  UNL1        0.0954
      5 C           7.9402   76.4260   26.2355 C.3     1  UNL1        0.0399
      6 C           8.5348   77.0058   27.5516 C.3     1  UNL1        0.0645
      7 C           7.3843   77.3083   28.5513 C.3     1  UNL1        0.0399
      8 C           6.2903   78.1843   27.9327 C.3     1  UNL1        0.0954
      9 C           9.3558   78.3177   27.2677 C.3     1  UNL1        0.0477
     10 C          10.6823   77.9959   26.6509 C.ar    1  UNL1        0.0220
     11 C          11.5656   78.7852   25.9519 C.ar    1  UNL1        0.0923
     12 N          12.7079   78.0743   25.7750 N.ar    1  UNL1       -0.2534
     13 N          12.5919   76.8882   26.3664 N.ar    1  UNL1       -0.1651
     14 C          11.3588   76.8425   26.8990 C.ar    1  UNL1        0.1515
     15 C          10.7668   75.7859   27.7030 C.2     1  UNL1        0.2650
     16 O          11.4207   74.7571   28.0185 O.2     1  UNL1       -0.2684
     17 N           9.4128   75.9678   28.1472 N.am    1  UNL1       -0.3023
     18 H           8.9993   75.2336   28.7662 H       1  UNL1        0.1497
     19 C           3.5398   75.6559   21.9398 C.ar    1  UNL1        0.2248
     20 N           2.7771   75.7800   20.8170 N.ar    1  UNL1       -0.2101
     21 C           1.7248   76.6360   20.7472 C.ar    1  UNL1        0.1021
     22 C           1.3900   77.4275   21.8456 C.ar    1  UNL1        0.0209
     23 C           2.1479   77.3308   23.0192 C.ar    1  UNL1        0.0060
     24 C           1.8358   78.1172   24.1363 C.ar    1  UNL1        0.0003
     25 C           2.5952   78.0141   25.3039 C.ar    1  UNL1        0.0045
     26 C           3.6750   77.1184   25.3782 C.ar    1  UNL1        0.0537
     27 C           3.9994   76.3395   24.2534 C.ar    1  UNL1        0.0092
     28 C           3.2396   76.4340   23.0744 C.ar    1  UNL1        0.0534
     29 C           4.8318   73.7854   20.9502 C.3     1  UNL1        0.2542
     30 O           4.6145   74.7584   21.9649 O.3     1  UNL1       -0.4561
     31 C          13.9331   78.5564   25.1064 C.3     1  UNL1        0.0867
     32 C          14.1435   77.7836   23.7897 C.3     1  UNL1        0.0244
     33 C          15.1663   78.3365   26.0092 C.3     1  UNL1        0.0244
     34 C          13.7937   80.0607   24.8100 C.3     1  UNL1        0.0244
@<TRIPOS>BOND
     1    29    30    1
     2    30    19    1
     3    19    20   ar
     4    20    21   ar
     5    21    22   ar
     6    22    23   ar
     7    23    24   ar
     8    24    25   ar
     9    25    26   ar
    10    26     1    1
    11     1     2    2
    12     1     3   am
    13     3     4    1
    14     4     5    1
    15     5     6    1
    16     6     7    1
    17     7     8    1
    18     6     9    1
    19     9    10    1
    20    10    11   ar
    21    11    12   ar
    22    12    31    1
    23    31    32    1
    24    31    33    1
    25    31    34    1
    26    12    13   ar
    27    13    14   ar
    28    14    15    1
    29    15    16    2
    30    15    17   am
    31    26    27   ar
    32    27    28   ar
    33    28    19   ar
    34    28    23   ar
    35     8     3    1
    36    14    10   ar
    37    17     6    1
    38    17    18    1
@<TRIPOS>MOLECULE
*****
 34 38 0 0 0
SMALL
GASTEIGER

@<TRIPOS>ATOM
      1 C          10.5877   77.5561   24.9479 C.2     1  UNL1        0.2490
      2 O          11.6979   76.9753   24.8014 O.2     1  UNL1       -0.2699
      3 N           9.6510   77.5723   23.8542 N.am    1  UNL1       -0.2760
      4 C           8.2443   77.2155   24.0642 C.3     1  UNL1        0.0954
      5 C           7.9166   75.9138   23.3173 C.3     1  UNL1        0.0399
      6 C           8.3686   75.9228   21.8282 C.3     1  UNL1        0.0645
      7 C           9.8582   76.3563   21.7410 C.3     1  UNL1        0.0399
      8 C          10.1247   77.6758   22.4723 C.3     1  UNL1        0.0954
      9 C           7.4764   76.8988   20.9756 C.3     1  UNL1        0.0477
     10 C           6.1321   76.2962   20.7047 C.ar    1  UNL1        0.0220
     11 C           4.9494   76.8748   20.3070 C.ar    1  UNL1        0.0923
     12 N           4.0771   75.8776   20.0133 N.ar    1  UNL1       -0.2534
     13 N           4.6749   74.6998   20.1731 N.ar    1  UNL1       -0.1651
     14 C           5.9252   74.9566   20.5936 C.ar    1  UNL1        0.1515
     15 C           6.9981   74.0098   20.8507 C.2     1  UNL1        0.2650
     16 O           6.8439   72.7752   20.6570 O.2     1  UNL1       -0.2684
     17 N           8.2528   74.5361   21.3119 N.am    1  UNL1       -0.3023
     18 H           9.0420   73.8646   21.4513 H       1  UNL1        0.1497
     19 C           9.1029   77.3522   29.6819 C.ar    1  UNL1        0.2248
     20 N           8.8246   78.0005   30.8482 N.ar    1  UNL1       -0.2101
     21 C           8.9507   79.3469   30.9763 C.ar    1  UNL1        0.1021
     22 C           9.3770   80.1178   29.8951 C.ar    1  UNL1        0.0209
     23 C           9.6735   79.4911   28.6784 C.ar    1  UNL1        0.0060
     24 C          10.1001   80.2422   27.5749 C.ar    1  UNL1        0.0003
     25 C          10.3955   79.6100   26.3651 C.ar    1  UNL1        0.0045
     26 C          10.2771   78.2158   26.2388 C.ar    1  UNL1        0.0537
     27 C           9.8346   77.4619   27.3402 C.ar    1  UNL1        0.0092
     28 C           9.5372   78.0885   28.5630 C.ar    1  UNL1        0.0534
     29 C           7.6943   75.3123   29.6394 C.3     1  UNL1        0.2542
     30 O           8.9592   75.9617   29.5982 O.3     1  UNL1       -0.4561
     31 C           2.6998   76.0522   19.5103 C.3     1  UNL1        0.0867
     32 C           1.9092   76.9635   20.4693 C.3     1  UNL1        0.0244
     33 C           1.9787   74.6899   19.4185 C.3     1  UNL1        0.0244
     34 C           2.7458   76.6877   18.1088 C.3     1  UNL1        0.0244
@<TRIPOS>BOND
     1    29    30    1
     2    30    19    1
     3    19    20   ar
     4    20    21   ar
     5    21    22   ar
     6    22    23   ar
     7    23    24   ar
     8    24    25   ar
     9    25    26   ar
    10    26     1    1
    11     1     2    2
    12     1     3   am
    13     3     4    1
    14     4     5    1
    15     5     6    1
    16     6     7    1
    17     7     8    1
    18     6     9    1
    19     9    10    1
    20    10    11   ar
    21    11    12   ar
    22    12    31    1
    23    31    32    1
    24    31    33    1
    25    31    34    1
    26    12    13   ar
    27    13    14   ar
    28    14    15    1
    29    15    16    2
    30    15    17   am
    31    26    27   ar
    32    27    28   ar
    33    28    19   ar
    34    28    23   ar
    35     8     3    1
    36    14    10   ar
    37    17     6    1
    38    17    18    1
