@<TRIPOS>MOLECULE
*****
 46 51 0 0 0
SMALL
GASTEIGER

@<TRIPOS>ATOM
      1 C         -63.8713  -51.4609  -24.1952 C.ar    1  UNL1        0.0702
      2 C         -63.1898  -52.3183  -23.3228 C.ar    1  UNL1        0.0191
      3 C         -63.8021  -53.4837  -22.8597 C.ar    1  UNL1        0.0356
      4 C         -65.1090  -53.7894  -23.2712 C.ar    1  UNL1        0.1318
      5 N         -65.7678  -52.9214  -24.0883 N.ar    1  UNL1       -0.2279
      6 C         -65.1906  -51.7822  -24.5538 C.ar    1  UNL1        0.1149
      7 N         -65.7821  -54.9712  -22.7973 N.pl3   1  UNL1       -0.2932
      8 C         -66.7068  -55.6752  -23.6984 C.3     1  UNL1        0.0923
      9 C         -67.5224  -56.7421  -22.9519 C.3     1  UNL1        0.0252
     10 C         -67.9696  -56.2030  -21.5806 C.3     1  UNL1        0.0472
     11 C         -66.7535  -55.8310  -20.6883 C.3     1  UNL1        0.0252
     12 C         -65.4679  -55.5613  -21.4884 C.3     1  UNL1        0.0923
     13 C         -68.8938  -57.2149  -20.8769 C.3     1  UNL1        0.2054
     14 O         -70.1488  -56.6190  -20.5431 O.3     1  UNL1       -0.4755
     15 C         -70.4689  -56.0218  -19.3127 C.ar    1  UNL1        0.1388
     16 C         -69.9320  -56.4637  -18.0887 C.ar    1  UNL1        0.0369
     17 C         -70.2889  -55.8313  -16.8962 C.ar    1  UNL1        0.0033
     18 C         -71.1774  -54.7542  -16.9088 C.ar    1  UNL1        0.0066
     19 C         -71.7192  -54.2945  -18.1216 C.ar    1  UNL1        0.0785
     20 C         -71.3548  -54.9368  -19.3184 C.ar    1  UNL1        0.0433
     21 C         -72.6599  -53.1525  -18.1430 C.2     1  UNL1        0.3381
     22 O         -72.5279  -52.2322  -18.9947 O.2     1  UNL1       -0.2451
     23 O         -73.7013  -53.0832  -17.2210 O.3     1  UNL1       -0.4771
     24 H         -74.3507  -52.3057  -17.2270 H       1  UNL1        0.2954
     25 C         -63.5691  -49.5868  -25.8742 C.2     1  UNL1        0.2839
     26 O         -64.0603  -50.2422  -26.8322 O.2     1  UNL1       -0.2665
     27 N         -63.2377  -50.2512  -24.6457 N.am    1  UNL1       -0.2766
     28 H         -62.4174  -49.8955  -24.1059 H       1  UNL1        0.1553
     29 C         -62.2209  -43.8060  -25.5926 C.ar    1  UNL1       -0.0191
     30 C         -62.3772  -45.0121  -24.8713 C.ar    1  UNL1        0.0332
     31 C         -62.7364  -46.1606  -25.5672 C.ar    1  UNL1        0.1449
     32 O         -62.9267  -47.3610  -25.0766 O.2     1  UNL1       -0.4492
     33 C         -63.2692  -48.1580  -26.0734 C.ar    1  UNL1        0.1946
     34 C         -63.2804  -47.4409  -27.2762 C.ar    1  UNL1        0.0202
     35 C         -63.5805  -47.9389  -28.6577 C.3     1  UNL1        0.0345
     36 C         -62.9483  -46.1498  -26.9170 C.ar    1  UNL1        0.0337
     37 C         -62.8185  -44.9858  -27.6701 C.ar    1  UNL1        0.0025
     38 C         -62.4477  -43.7961  -27.0064 C.ar    1  UNL1       -0.0038
     39 C         -62.3172  -42.5643  -27.8092 C.ar    1  UNL1       -0.0003
     40 C         -63.4535  -41.9805  -28.3903 C.ar    1  UNL1       -0.0000
     41 C         -63.3299  -40.8239  -29.1665 C.ar    1  UNL1       -0.0000
     42 C         -62.0715  -40.2516  -29.3750 C.ar    1  UNL1       -0.0000
     43 C         -60.9344  -40.8375  -28.8111 C.ar    1  UNL1       -0.0000
     44 C         -61.0542  -41.9940  -28.0344 C.ar    1  UNL1       -0.0000
     45 C         -60.4786  -42.5628  -24.3001 C.3     1  UNL1        0.0050
     46 C         -61.9119  -42.5429  -24.8215 C.3     1  UNL1        0.0265
@<TRIPOS>BOND
     1    45    46    1
     2    46    29    1
     3    29    30   ar
     4    30    31   ar
     5    31    32   ar
     6    32    33   ar
     7    33    25    1
     8    25    26    2
     9    25    27   am
    10    27     1    1
    11     1     2   ar
    12     2     3   ar
    13     3     4   ar
    14     4     7    1
    15     7     8    1
    16     8     9    1
    17     9    10    1
    18    10    13    1
    19    13    14    1
    20    14    15    1
    21    15    16   ar
    22    16    17   ar
    23    17    18   ar
    24    18    19   ar
    25    19    21    1
    26    21    22    2
    27    21    23    1
    28    19    20   ar
    29    10    11    1
    30    11    12    1
    31     4     5   ar
    32     5     6   ar
    33    33    34   ar
    34    34    35    1
    35    34    36   ar
    36    36    37   ar
    37    37    38   ar
    38    38    39    1
    39    39    40   ar
    40    40    41   ar
    41    41    42   ar
    42    42    43   ar
    43    43    44   ar
    44    38    29   ar
    45    44    39   ar
    46    36    31   ar
    47     6     1   ar
    48    12     7    1
    49    20    15   ar
    50    27    28    1
    51    23    24    1
@<TRIPOS>MOLECULE
*****
 46 51 0 0 0
SMALL
GASTEIGER

@<TRIPOS>ATOM
      1 C         -63.8602  -51.2859  -24.2743 C.ar    1  UNL1        0.0702
      2 C         -63.1414  -52.2068  -23.5024 C.ar    1  UNL1        0.0191
      3 C         -63.7755  -53.3354  -22.9812 C.ar    1  UNL1        0.0356
      4 C         -65.1414  -53.5398  -23.2322 C.ar    1  UNL1        0.1318
      5 N         -65.8303  -52.6110  -23.9519 N.ar    1  UNL1       -0.2279
      6 C         -65.2332  -51.5060  -24.4716 C.ar    1  UNL1        0.1149
      7 N         -65.8355  -54.6807  -22.6930 N.pl3   1  UNL1       -0.2932
      8 C         -67.0973  -55.1079  -23.3158 C.3     1  UNL1        0.0923
      9 C         -67.8225  -56.1595  -22.4620 C.3     1  UNL1        0.0252
     10 C         -67.7332  -55.7843  -20.9713 C.3     1  UNL1        0.0472
     11 C         -66.2589  -55.7194  -20.4856 C.3     1  UNL1        0.0252
     12 C         -65.2488  -55.5023  -21.6248 C.3     1  UNL1        0.0923
     13 C         -68.5635  -56.7610  -20.1170 C.3     1  UNL1        0.2054
     14 O         -69.3024  -56.0643  -19.1119 O.3     1  UNL1       -0.4755
     15 C         -69.0325  -56.0895  -17.7336 C.ar    1  UNL1        0.1388
     16 C         -69.9849  -56.4914  -16.7780 C.ar    1  UNL1        0.0369
     17 C         -69.6593  -56.4940  -15.4202 C.ar    1  UNL1        0.0033
     18 C         -68.3865  -56.1022  -15.0005 C.ar    1  UNL1        0.0066
     19 C         -67.4201  -55.7036  -15.9402 C.ar    1  UNL1        0.0785
     20 C         -67.7558  -55.7036  -17.3057 C.ar    1  UNL1        0.0433
     21 C         -66.0687  -55.2888  -15.5030 C.2     1  UNL1        0.3381
     22 O         -65.9258  -54.3492  -14.6744 O.2     1  UNL1       -0.2451
     23 O         -64.9402  -55.9332  -16.0035 O.3     1  UNL1       -0.4771
     24 H         -64.0105  -55.6570  -15.7108 H       1  UNL1        0.2954
     25 C         -63.6377  -49.3961  -25.9482 C.2     1  UNL1        0.2839
     26 O         -64.2987  -49.9884  -26.8431 O.2     1  UNL1       -0.2665
     27 N         -63.2004  -50.1149  -24.7852 N.am    1  UNL1       -0.2766
     28 H         -62.2916  -49.8347  -24.3532 H       1  UNL1        0.1553
     29 C         -61.9613  -43.6992  -25.7278 C.ar    1  UNL1       -0.0191
     30 C         -62.1823  -44.8876  -24.9944 C.ar    1  UNL1        0.0332
     31 C         -62.6098  -46.0202  -25.6776 C.ar    1  UNL1        0.1449
     32 O         -62.8657  -47.2032  -25.1748 O.2     1  UNL1       -0.4492
     33 C         -63.2580  -47.9886  -26.1624 C.ar    1  UNL1        0.1946
     34 C         -63.2346  -47.2831  -27.3718 C.ar    1  UNL1        0.0202
     35 C         -63.5697  -47.7760  -28.7472 C.3     1  UNL1        0.0345
     36 C         -62.8278  -46.0098  -27.0265 C.ar    1  UNL1        0.0337
     37 C         -62.6358  -44.8621  -27.7913 C.ar    1  UNL1        0.0025
     38 C         -62.1945  -43.6893  -27.1405 C.ar    1  UNL1       -0.0038
     39 C         -61.9982  -42.4745  -27.9556 C.ar    1  UNL1       -0.0003
     40 C         -60.7427  -41.8482  -27.9925 C.ar    1  UNL1       -0.0000
     41 C         -60.5592  -40.6868  -28.7494 C.ar    1  UNL1       -0.0000
     42 C         -61.6294  -40.1397  -29.4634 C.ar    1  UNL1       -0.0000
     43 C         -62.8858  -40.7508  -29.4181 C.ar    1  UNL1       -0.0000
     44 C         -63.0731  -41.9122  -28.6624 C.ar    1  UNL1       -0.0000
     45 C         -62.5183  -42.2173  -23.7925 C.3     1  UNL1        0.0050
     46 C         -61.5770  -42.4486  -24.9702 C.3     1  UNL1        0.0265
@<TRIPOS>BOND
     1    45    46    1
     2    46    29    1
     3    29    30   ar
     4    30    31   ar
     5    31    32   ar
     6    32    33   ar
     7    33    25    1
     8    25    26    2
     9    25    27   am
    10    27     1    1
    11     1     2   ar
    12     2     3   ar
    13     3     4   ar
    14     4     7    1
    15     7     8    1
    16     8     9    1
    17     9    10    1
    18    10    13    1
    19    13    14    1
    20    14    15    1
    21    15    16   ar
    22    16    17   ar
    23    17    18   ar
    24    18    19   ar
    25    19    21    1
    26    21    22    2
    27    21    23    1
    28    19    20   ar
    29    10    11    1
    30    11    12    1
    31     4     5   ar
    32     5     6   ar
    33    33    34   ar
    34    34    35    1
    35    34    36   ar
    36    36    37   ar
    37    37    38   ar
    38    38    39    1
    39    39    40   ar
    40    40    41   ar
    41    41    42   ar
    42    42    43   ar
    43    43    44   ar
    44    38    29   ar
    45    44    39   ar
    46    36    31   ar
    47     6     1   ar
    48    12     7    1
    49    20    15   ar
    50    27    28    1
    51    23    24    1
@<TRIPOS>MOLECULE
*****
 46 51 0 0 0
SMALL
GASTEIGER

@<TRIPOS>ATOM
      1 C         -63.8873  -51.5509  -24.1134 C.ar    1  UNL1        0.0702
      2 C         -63.2365  -52.4096  -23.2192 C.ar    1  UNL1        0.0191
      3 C         -63.8809  -53.5536  -22.7463 C.ar    1  UNL1        0.0356
      4 C         -65.1890  -53.8362  -23.1698 C.ar    1  UNL1        0.1318
      5 N         -65.8177  -52.9664  -24.0086 N.ar    1  UNL1       -0.2279
      6 C         -65.2090  -51.8480  -24.4841 C.ar    1  UNL1        0.1149
      7 N         -65.8947  -54.9950  -22.6867 N.pl3   1  UNL1       -0.2932
      8 C         -66.4854  -55.9271  -23.6586 C.3     1  UNL1        0.0923
      9 C         -67.4110  -56.9458  -22.9757 C.3     1  UNL1        0.0252
     10 C         -68.2563  -56.2503  -21.8929 C.3     1  UNL1        0.0472
     11 C         -67.3637  -55.6139  -20.7920 C.3     1  UNL1        0.0252
     12 C         -65.9244  -55.3354  -21.2572 C.3     1  UNL1        0.0923
     13 C         -69.2772  -57.2334  -21.2892 C.3     1  UNL1        0.2054
     14 O         -70.6131  -56.7552  -21.4581 O.3     1  UNL1       -0.4755
     15 C         -71.1743  -56.3059  -22.6648 C.ar    1  UNL1        0.1388
     16 C         -72.4636  -56.6776  -23.0904 C.ar    1  UNL1        0.0369
     17 C         -72.9680  -56.2002  -24.3018 C.ar    1  UNL1        0.0033
     18 C         -72.1997  -55.3483  -25.0977 C.ar    1  UNL1        0.0066
     19 C         -70.9125  -54.9610  -24.6867 C.ar    1  UNL1        0.0785
     20 C         -70.4116  -55.4460  -23.4655 C.ar    1  UNL1        0.0433
     21 C         -70.0932  -54.0570  -25.5240 C.2     1  UNL1        0.3381
     22 O         -68.9051  -54.3603  -25.8178 O.2     1  UNL1       -0.2451
     23 O         -70.6274  -52.8607  -25.9961 O.3     1  UNL1       -0.4771
     24 H         -70.0751  -52.2348  -26.5699 H       1  UNL1        0.2954
     25 C         -63.5576  -49.6803  -25.7912 C.2     1  UNL1        0.2839
     26 O         -64.0962  -50.3121  -26.7395 O.2     1  UNL1       -0.2665
     27 N         -63.2208  -50.3629  -24.5742 N.am    1  UNL1       -0.2766
     28 H         -62.3748  -50.0405  -24.0535 H       1  UNL1        0.1553
     29 C         -62.0036  -43.9511  -25.5158 C.ar    1  UNL1       -0.0191
     30 C         -62.1933  -45.1526  -24.7949 C.ar    1  UNL1        0.0332
     31 C         -62.6012  -46.2861  -25.4883 C.ar    1  UNL1        0.1449
     32 O         -62.8275  -47.4802  -24.9976 O.2     1  UNL1       -0.4492
     33 C         -63.2102  -48.2624  -25.9915 C.ar    1  UNL1        0.1946
     34 C         -63.2111  -47.5426  -27.1927 C.ar    1  UNL1        0.0202
     35 C         -63.5457  -48.0266  -28.5713 C.3     1  UNL1        0.0345
     36 C         -62.8294  -46.2648  -26.8353 C.ar    1  UNL1        0.0337
     37 C         -62.6681  -45.1044  -27.5879 C.ar    1  UNL1        0.0025
     38 C         -62.2475  -43.9299  -26.9266 C.ar    1  UNL1       -0.0038
     39 C         -62.0837  -42.7017  -27.7288 C.ar    1  UNL1       -0.0003
     40 C         -60.8113  -42.1315  -27.8890 C.ar    1  UNL1       -0.0000
     41 C         -60.6564  -40.9578  -28.6332 C.ar    1  UNL1       -0.0000
     42 C         -61.7708  -40.3426  -29.2110 C.ar    1  UNL1       -0.0000
     43 C         -63.0426  -40.8979  -29.0419 C.ar    1  UNL1       -0.0000
     44 C         -63.2014  -42.0714  -28.2985 C.ar    1  UNL1       -0.0000
     45 C         -62.8668  -42.1173  -24.0517 C.3     1  UNL1        0.0050
     46 C         -61.6408  -42.7013  -24.7464 C.3     1  UNL1        0.0265
@<TRIPOS>BOND
     1    45    46    1
     2    46    29    1
     3    29    30   ar
     4    30    31   ar
     5    31    32   ar
     6    32    33   ar
     7    33    25    1
     8    25    26    2
     9    25    27   am
    10    27     1    1
    11     1     2   ar
    12     2     3   ar
    13     3     4   ar
    14     4     7    1
    15     7     8    1
    16     8     9    1
    17     9    10    1
    18    10    13    1
    19    13    14    1
    20    14    15    1
    21    15    16   ar
    22    16    17   ar
    23    17    18   ar
    24    18    19   ar
    25    19    21    1
    26    21    22    2
    27    21    23    1
    28    19    20   ar
    29    10    11    1
    30    11    12    1
    31     4     5   ar
    32     5     6   ar
    33    33    34   ar
    34    34    35    1
    35    34    36   ar
    36    36    37   ar
    37    37    38   ar
    38    38    39    1
    39    39    40   ar
    40    40    41   ar
    41    41    42   ar
    42    42    43   ar
    43    43    44   ar
    44    38    29   ar
    45    44    39   ar
    46    36    31   ar
    47     6     1   ar
    48    12     7    1
    49    20    15   ar
    50    27    28    1
    51    23    24    1
@<TRIPOS>MOLECULE
*****
 46 51 0 0 0
SMALL
GASTEIGER

@<TRIPOS>ATOM
      1 C         -61.5501  -44.9225  -21.9000 C.ar    1  UNL1        0.0702
      2 C         -60.6321  -45.8680  -21.4269 C.ar    1  UNL1        0.0191
      3 C         -60.6786  -47.1852  -21.8855 C.ar    1  UNL1        0.0356
      4 C         -61.6554  -47.5580  -22.8222 C.ar    1  UNL1        0.1318
      5 N         -62.5633  -46.6320  -23.2387 N.ar    1  UNL1       -0.2279
      6 C         -62.5356  -45.3431  -22.8080 C.ar    1  UNL1        0.1149
      7 N         -61.7490  -48.9126  -23.3022 N.pl3   1  UNL1       -0.2932
      8 C         -62.8251  -49.2642  -24.2408 C.3     1  UNL1        0.0923
      9 C         -62.9307  -50.7844  -24.4375 C.3     1  UNL1        0.0252
     10 C         -62.7549  -51.5061  -23.0887 C.3     1  UNL1        0.0472
     11 C         -61.3666  -51.2087  -22.4579 C.3     1  UNL1        0.0252
     12 C         -60.7221  -49.9139  -22.9810 C.3     1  UNL1        0.0923
     13 C         -62.9850  -53.0206  -23.2515 C.3     1  UNL1        0.2054
     14 O         -64.2934  -53.2901  -23.7584 O.3     1  UNL1       -0.4755
     15 C         -65.2834  -54.0442  -23.1070 C.ar    1  UNL1        0.1388
     16 C         -64.9829  -55.0249  -22.1428 C.ar    1  UNL1        0.0369
     17 C         -66.0103  -55.7448  -21.5297 C.ar    1  UNL1        0.0033
     18 C         -67.3425  -55.4950  -21.8650 C.ar    1  UNL1        0.0066
     19 C         -67.6627  -54.5155  -22.8209 C.ar    1  UNL1        0.0785
     20 C         -66.6224  -53.7948  -23.4339 C.ar    1  UNL1        0.0433
     21 C         -69.0723  -54.2441  -23.1799 C.2     1  UNL1        0.3381
     22 O         -69.9963  -54.4639  -22.3507 O.2     1  UNL1       -0.2451
     23 O         -69.3921  -53.7427  -24.4392 O.3     1  UNL1       -0.4771
     24 H         -70.3539  -53.5536  -24.6950 H       1  UNL1        0.2954
     25 C         -61.4675  -42.4129  -22.2435 C.2     1  UNL1        0.2839
     26 O         -60.9955  -42.4958  -23.4093 O.2     1  UNL1       -0.2665
     27 N         -61.5064  -43.5745  -21.4012 N.am    1  UNL1       -0.2766
     28 H         -61.3862  -43.4344  -20.3731 H       1  UNL1        0.1553
     29 C         -62.2895  -36.7255  -20.7296 C.ar    1  UNL1       -0.0191
     30 C         -61.4809  -37.6491  -21.4313 C.ar    1  UNL1        0.0332
     31 C         -61.8453  -38.9905  -21.4245 C.ar    1  UNL1        0.1449
     32 O         -61.2268  -39.9857  -22.0119 O.2     1  UNL1       -0.4492
     33 C         -61.8946  -41.0941  -21.7442 C.ar    1  UNL1        0.1946
     34 C         -63.0165  -40.7983  -20.9601 C.ar    1  UNL1        0.0202
     35 C         -64.0694  -41.7331  -20.4459 C.3     1  UNL1        0.0345
     36 C         -62.9506  -39.4345  -20.7552 C.ar    1  UNL1        0.0337
     37 C         -63.7723  -38.5670  -20.0402 C.ar    1  UNL1        0.0025
     38 C         -63.4450  -37.1937  -20.0253 C.ar    1  UNL1       -0.0038
     39 C         -64.3166  -36.2799  -19.2610 C.ar    1  UNL1       -0.0003
     40 C         -65.5872  -35.9445  -19.7538 C.ar    1  UNL1       -0.0000
     41 C         -66.4073  -35.0647  -19.0406 C.ar    1  UNL1       -0.0000
     42 C         -65.9593  -34.5078  -17.8391 C.ar    1  UNL1       -0.0000
     43 C         -64.6886  -34.8265  -17.3513 C.ar    1  UNL1       -0.0000
     44 C         -63.8658  -35.7059  -18.0617 C.ar    1  UNL1       -0.0000
     45 C         -60.3313  -35.1738  -20.8252 C.3     1  UNL1        0.0050
     46 C         -61.8448  -35.2818  -20.6699 C.3     1  UNL1        0.0265
@<TRIPOS>BOND
     1    45    46    1
     2    46    29    1
     3    29    30   ar
     4    30    31   ar
     5    31    32   ar
     6    32    33   ar
     7    33    25    1
     8    25    26    2
     9    25    27   am
    10    27     1    1
    11     1     2   ar
    12     2     3   ar
    13     3     4   ar
    14     4     7    1
    15     7     8    1
    16     8     9    1
    17     9    10    1
    18    10    13    1
    19    13    14    1
    20    14    15    1
    21    15    16   ar
    22    16    17   ar
    23    17    18   ar
    24    18    19   ar
    25    19    21    1
    26    21    22    2
    27    21    23    1
    28    19    20   ar
    29    10    11    1
    30    11    12    1
    31     4     5   ar
    32     5     6   ar
    33    33    34   ar
    34    34    35    1
    35    34    36   ar
    36    36    37   ar
    37    37    38   ar
    38    38    39    1
    39    39    40   ar
    40    40    41   ar
    41    41    42   ar
    42    42    43   ar
    43    43    44   ar
    44    38    29   ar
    45    44    39   ar
    46    36    31   ar
    47     6     1   ar
    48    12     7    1
    49    20    15   ar
    50    27    28    1
    51    23    24    1
@<TRIPOS>MOLECULE
*****
 46 51 0 0 0
SMALL
GASTEIGER

@<TRIPOS>ATOM
      1 C         -63.0611  -41.2365  -22.0259 C.ar    1  UNL1        0.0702
      2 C         -64.3532  -40.8552  -21.6444 C.ar    1  UNL1        0.0191
      3 C         -64.5536  -39.6893  -20.9041 C.ar    1  UNL1        0.0356
      4 C         -63.4497  -38.9023  -20.5401 C.ar    1  UNL1        0.1318
      5 N         -62.1983  -39.3128  -20.8874 N.ar    1  UNL1       -0.2279
      6 C         -61.9794  -40.4428  -21.6104 C.ar    1  UNL1        0.1149
      7 N         -63.6142  -37.7044  -19.7576 N.pl3   1  UNL1       -0.2932
      8 C         -64.5104  -37.7311  -18.5920 C.3     1  UNL1        0.0923
      9 C         -64.7660  -36.3195  -18.0417 C.3     1  UNL1        0.0252
     10 C         -64.9642  -35.3269  -19.2021 C.3     1  UNL1        0.0472
     11 C         -63.7087  -35.2560  -20.1144 C.3     1  UNL1        0.0252
     12 C         -62.8111  -36.5011  -20.0172 C.3     1  UNL1        0.0923
     13 C         -65.3467  -33.9351  -18.6639 C.3     1  UNL1        0.2054
     14 O         -66.4733  -34.0143  -17.7887 O.3     1  UNL1       -0.4755
     15 C         -67.8198  -34.0309  -18.1885 C.ar    1  UNL1        0.1388
     16 C         -68.2722  -34.7487  -19.3118 C.ar    1  UNL1        0.0369
     17 C         -69.6237  -34.7262  -19.6618 C.ar    1  UNL1        0.0033
     18 C         -70.5366  -33.9953  -18.8989 C.ar    1  UNL1        0.0066
     19 C         -70.1050  -33.2772  -17.7703 C.ar    1  UNL1        0.0785
     20 C         -68.7423  -33.3049  -17.4243 C.ar    1  UNL1        0.0433
     21 C         -71.0670  -32.5019  -16.9560 C.2     1  UNL1        0.3381
     22 O         -72.1932  -32.1860  -17.4267 O.2     1  UNL1       -0.2451
     23 O         -70.7369  -32.1131  -15.6602 O.3     1  UNL1       -0.4771
     24 H         -71.3882  -31.5822  -15.0944 H       1  UNL1        0.2954
     25 C         -61.7443  -43.3288  -22.5836 C.2     1  UNL1        0.2839
     26 O         -60.6569  -42.8742  -22.1369 O.2     1  UNL1       -0.2665
     27 N         -62.8663  -42.4528  -22.7679 N.am    1  UNL1       -0.2766
     28 H         -63.5171  -42.6554  -23.5593 H       1  UNL1        0.1553
     29 C         -62.8469  -48.7216  -24.8234 C.ar    1  UNL1       -0.0191
     30 C         -63.2082  -47.3546  -24.8206 C.ar    1  UNL1        0.0332
     31 C         -62.4986  -46.4815  -24.0043 C.ar    1  UNL1        0.1449
     32 O         -62.6851  -45.1913  -23.8677 O.2     1  UNL1       -0.4492
     33 C         -61.8084  -44.7450  -22.9855 C.ar    1  UNL1        0.1946
     34 C         -60.9973  -45.7975  -22.5435 C.ar    1  UNL1        0.0202
     35 C         -59.8572  -45.7533  -21.5714 C.3     1  UNL1        0.0345
     36 C         -61.4761  -46.9103  -23.2058 C.ar    1  UNL1        0.0337
     37 C         -61.0900  -48.2475  -23.1640 C.ar    1  UNL1        0.0025
     38 C         -61.7780  -49.1695  -23.9825 C.ar    1  UNL1       -0.0038
     39 C         -61.3677  -50.5864  -23.9296 C.ar    1  UNL1       -0.0003
     40 C         -62.1366  -51.5143  -23.2101 C.ar    1  UNL1       -0.0000
     41 C         -61.7400  -52.8536  -23.1433 C.ar    1  UNL1       -0.0000
     42 C         -60.5697  -53.2703  -23.7845 C.ar    1  UNL1       -0.0000
     43 C         -59.7920  -52.3474  -24.4899 C.ar    1  UNL1       -0.0000
     44 C         -60.1854  -51.0074  -24.5589 C.ar    1  UNL1       -0.0000
     45 C         -63.7553  -49.2179  -27.0994 C.3     1  UNL1        0.0050
     46 C         -63.6736  -49.6815  -25.6485 C.3     1  UNL1        0.0265
@<TRIPOS>BOND
     1    45    46    1
     2    46    29    1
     3    29    30   ar
     4    30    31   ar
     5    31    32   ar
     6    32    33   ar
     7    33    25    1
     8    25    26    2
     9    25    27   am
    10    27     1    1
    11     1     2   ar
    12     2     3   ar
    13     3     4   ar
    14     4     7    1
    15     7     8    1
    16     8     9    1
    17     9    10    1
    18    10    13    1
    19    13    14    1
    20    14    15    1
    21    15    16   ar
    22    16    17   ar
    23    17    18   ar
    24    18    19   ar
    25    19    21    1
    26    21    22    2
    27    21    23    1
    28    19    20   ar
    29    10    11    1
    30    11    12    1
    31     4     5   ar
    32     5     6   ar
    33    33    34   ar
    34    34    35    1
    35    34    36   ar
    36    36    37   ar
    37    37    38   ar
    38    38    39    1
    39    39    40   ar
    40    40    41   ar
    41    41    42   ar
    42    42    43   ar
    43    43    44   ar
    44    38    29   ar
    45    44    39   ar
    46    36    31   ar
    47     6     1   ar
    48    12     7    1
    49    20    15   ar
    50    27    28    1
    51    23    24    1
@<TRIPOS>MOLECULE
*****
 46 51 0 0 0
SMALL
GASTEIGER

@<TRIPOS>ATOM
      1 C         -63.8290  -52.3014  -24.3854 C.ar    1  UNL1        0.0702
      2 C         -62.6086  -52.7879  -23.9010 C.ar    1  UNL1        0.0191
      3 C         -61.6747  -51.9148  -23.3418 C.ar    1  UNL1        0.0356
      4 C         -61.9648  -50.5431  -23.2717 C.ar    1  UNL1        0.1318
      5 N         -63.1408  -50.0862  -23.7850 N.ar    1  UNL1       -0.2279
      6 C         -64.0663  -50.9182  -24.3316 C.ar    1  UNL1        0.1149
      7 N         -61.0172  -49.6082  -22.7219 N.pl3   1  UNL1       -0.2932
      8 C         -61.3435  -48.9174  -21.4653 C.3     1  UNL1        0.0923
      9 C         -60.3532  -47.7803  -21.1707 C.3     1  UNL1        0.0252
     10 C         -60.0291  -47.0118  -22.4651 C.3     1  UNL1        0.0472
     11 C         -59.3798  -47.9365  -23.5314 C.3     1  UNL1        0.0252
     12 C         -59.6839  -49.4284  -23.3138 C.3     1  UNL1        0.0923
     13 C         -59.1379  -45.7925  -22.1616 C.3     1  UNL1        0.2054
     14 O         -59.8325  -44.8350  -21.3601 O.3     1  UNL1       -0.4755
     15 C         -60.4666  -43.6758  -21.8368 C.ar    1  UNL1        0.1388
     16 C         -60.4326  -43.2906  -23.1904 C.ar    1  UNL1        0.0369
     17 C         -61.0808  -42.1255  -23.6053 C.ar    1  UNL1        0.0033
     18 C         -61.7703  -41.3364  -22.6825 C.ar    1  UNL1        0.0066
     19 C         -61.8207  -41.7079  -21.3278 C.ar    1  UNL1        0.0785
     20 C         -61.1654  -42.8826  -20.9178 C.ar    1  UNL1        0.0433
     21 C         -62.5509  -40.8776  -20.3445 C.2     1  UNL1        0.3381
     22 O         -61.9401  -40.3480  -19.3769 O.2     1  UNL1       -0.2451
     23 O         -63.9219  -40.6732  -20.4786 O.3     1  UNL1       -0.4771
     24 H         -64.4313  -40.1066  -19.8110 H       1  UNL1        0.2954
     25 C         -65.8321  -53.8484  -24.2544 C.2     1  UNL1        0.2839
     26 O         -65.7194  -54.0390  -23.0135 O.2     1  UNL1       -0.2665
     27 N         -64.7724  -53.2086  -24.9811 N.am    1  UNL1       -0.2766
     28 H         -64.6133  -53.5038  -25.9703 H       1  UNL1        0.1553
     29 C         -71.0714  -56.0141  -26.0358 C.ar    1  UNL1       -0.0191
     30 C         -70.2889  -55.5873  -24.9382 C.ar    1  UNL1        0.0332
     31 C         -68.9997  -55.1274  -25.1803 C.ar    1  UNL1        0.1449
     32 O         -68.1312  -54.6939  -24.2995 O.2     1  UNL1       -0.4492
     33 C         -67.0257  -54.3672  -24.9453 C.ar    1  UNL1        0.1946
     34 C         -67.1943  -54.5801  -26.3191 C.ar    1  UNL1        0.0202
     35 C         -66.2218  -54.3228  -27.4304 C.3     1  UNL1        0.0345
     36 C         -68.4729  -55.0867  -26.4404 C.ar    1  UNL1        0.0337
     37 C         -69.1985  -55.5066  -27.5522 C.ar    1  UNL1        0.0025
     38 C         -70.5158  -55.9747  -27.3549 C.ar    1  UNL1       -0.0038
     39 C         -71.2780  -56.4236  -28.5366 C.ar    1  UNL1       -0.0003
     40 C         -70.6010  -56.8235  -29.6992 C.ar    1  UNL1       -0.0000
     41 C         -71.3212  -57.2317  -30.8261 C.ar    1  UNL1       -0.0000
     42 C         -72.7190  -57.2323  -30.8016 C.ar    1  UNL1       -0.0000
     43 C         -73.3986  -56.8205  -29.6515 C.ar    1  UNL1       -0.0000
     44 C         -72.6818  -56.4118  -28.5227 C.ar    1  UNL1       -0.0000
     45 C         -73.0543  -55.9606  -24.5136 C.3     1  UNL1        0.0050
     46 C         -72.4414  -56.5910  -25.7600 C.3     1  UNL1        0.0265
@<TRIPOS>BOND
     1    45    46    1
     2    46    29    1
     3    29    30   ar
     4    30    31   ar
     5    31    32   ar
     6    32    33   ar
     7    33    25    1
     8    25    26    2
     9    25    27   am
    10    27     1    1
    11     1     2   ar
    12     2     3   ar
    13     3     4   ar
    14     4     7    1
    15     7     8    1
    16     8     9    1
    17     9    10    1
    18    10    13    1
    19    13    14    1
    20    14    15    1
    21    15    16   ar
    22    16    17   ar
    23    17    18   ar
    24    18    19   ar
    25    19    21    1
    26    21    22    2
    27    21    23    1
    28    19    20   ar
    29    10    11    1
    30    11    12    1
    31     4     5   ar
    32     5     6   ar
    33    33    34   ar
    34    34    35    1
    35    34    36   ar
    36    36    37   ar
    37    37    38   ar
    38    38    39    1
    39    39    40   ar
    40    40    41   ar
    41    41    42   ar
    42    42    43   ar
    43    43    44   ar
    44    38    29   ar
    45    44    39   ar
    46    36    31   ar
    47     6     1   ar
    48    12     7    1
    49    20    15   ar
    50    27    28    1
    51    23    24    1
@<TRIPOS>MOLECULE
*****
 46 51 0 0 0
SMALL
GASTEIGER

@<TRIPOS>ATOM
      1 C         -62.7307  -40.7486  -22.8063 C.ar    1  UNL1        0.0702
      2 C         -64.0767  -40.4355  -22.5809 C.ar    1  UNL1        0.0191
      3 C         -64.4340  -39.5643  -21.5509 C.ar    1  UNL1        0.0356
      4 C         -63.4346  -39.0063  -20.7384 C.ar    1  UNL1        0.1318
      5 N         -62.1352  -39.3556  -20.9499 N.ar    1  UNL1       -0.2279
      6 C         -61.7636  -40.1997  -21.9484 C.ar    1  UNL1        0.1149
      7 N         -63.7658  -38.1208  -19.6519 N.pl3   1  UNL1       -0.2932
      8 C         -65.0206  -38.3337  -18.9152 C.3     1  UNL1        0.0923
      9 C         -65.3341  -37.1565  -17.9788 C.3     1  UNL1        0.0252
     10 C         -65.0140  -35.8231  -18.6793 C.3     1  UNL1        0.0472
     11 C         -63.5129  -35.7278  -19.0684 C.3     1  UNL1        0.0252
     12 C         -62.8221  -37.0974  -19.1803 C.3     1  UNL1        0.0923
     13 C         -65.4427  -34.6334  -17.7995 C.3     1  UNL1        0.2054
     14 O         -66.3667  -33.7903  -18.4901 O.3     1  UNL1       -0.4755
     15 C         -67.7583  -33.9736  -18.5440 C.ar    1  UNL1        0.1388
     16 C         -68.3723  -34.8951  -19.4132 C.ar    1  UNL1        0.0369
     17 C         -69.7618  -35.0323  -19.4234 C.ar    1  UNL1        0.0033
     18 C         -70.5520  -34.2601  -18.5696 C.ar    1  UNL1        0.0066
     19 C         -69.9569  -33.3390  -17.6903 C.ar    1  UNL1        0.0785
     20 C         -68.5569  -33.2067  -17.6860 C.ar    1  UNL1        0.0433
     21 C         -70.7877  -32.5186  -16.7814 C.2     1  UNL1        0.3381
     22 O         -70.3207  -32.1095  -15.6840 O.2     1  UNL1       -0.2451
     23 O         -72.0954  -32.1903  -17.1299 O.3     1  UNL1       -0.4771
     24 H         -72.6726  -31.6293  -16.5148 H       1  UNL1        0.2954
     25 C         -63.1635  -41.8632  -25.0409 C.2     1  UNL1        0.2839
     26 O         -64.4014  -41.6268  -25.0226 O.2     1  UNL1       -0.2665
     27 N         -62.3781  -41.6664  -23.8556 N.am    1  UNL1       -0.2766
     28 H         -61.5659  -42.3041  -23.6986 H       1  UNL1        0.1553
     29 C         -60.2742  -44.8165  -29.3122 C.ar    1  UNL1       -0.0191
     30 C         -60.5545  -44.7276  -27.9292 C.ar    1  UNL1        0.0332
     31 C         -61.3998  -43.7170  -27.4862 C.ar    1  UNL1        0.1449
     32 O         -61.7738  -43.4762  -26.2532 O.2     1  UNL1       -0.4492
     33 C         -62.5664  -42.4189  -26.2679 C.ar    1  UNL1        0.1946
     34 C         -62.7316  -41.9640  -27.5819 C.ar    1  UNL1        0.0202
     35 C         -63.5618  -40.8179  -28.0761 C.3     1  UNL1        0.0345
     36 C         -61.9539  -42.8111  -28.3460 C.ar    1  UNL1        0.0337
     37 C         -61.6998  -42.8490  -29.7146 C.ar    1  UNL1        0.0025
     38 C         -60.8524  -43.8634  -30.2109 C.ar    1  UNL1       -0.0038
     39 C         -60.5824  -43.8950  -31.6617 C.ar    1  UNL1       -0.0003
     40 C         -59.3301  -44.3170  -32.1345 C.ar    1  UNL1       -0.0000
     41 C         -59.0657  -44.3303  -33.5075 C.ar    1  UNL1       -0.0000
     42 C         -60.0452  -43.9127  -34.4134 C.ar    1  UNL1       -0.0000
     43 C         -61.2890  -43.4770  -33.9473 C.ar    1  UNL1       -0.0000
     44 C         -61.5570  -43.4624  -32.5750 C.ar    1  UNL1       -0.0000
     45 C         -59.1109  -46.9499  -28.7232 C.3     1  UNL1        0.0050
     46 C         -59.2898  -45.8643  -29.7797 C.3     1  UNL1        0.0265
@<TRIPOS>BOND
     1    45    46    1
     2    46    29    1
     3    29    30   ar
     4    30    31   ar
     5    31    32   ar
     6    32    33   ar
     7    33    25    1
     8    25    26    2
     9    25    27   am
    10    27     1    1
    11     1     2   ar
    12     2     3   ar
    13     3     4   ar
    14     4     7    1
    15     7     8    1
    16     8     9    1
    17     9    10    1
    18    10    13    1
    19    13    14    1
    20    14    15    1
    21    15    16   ar
    22    16    17   ar
    23    17    18   ar
    24    18    19   ar
    25    19    21    1
    26    21    22    2
    27    21    23    1
    28    19    20   ar
    29    10    11    1
    30    11    12    1
    31     4     5   ar
    32     5     6   ar
    33    33    34   ar
    34    34    35    1
    35    34    36   ar
    36    36    37   ar
    37    37    38   ar
    38    38    39    1
    39    39    40   ar
    40    40    41   ar
    41    41    42   ar
    42    42    43   ar
    43    43    44   ar
    44    38    29   ar
    45    44    39   ar
    46    36    31   ar
    47     6     1   ar
    48    12     7    1
    49    20    15   ar
    50    27    28    1
    51    23    24    1
