@<TRIPOS>MOLECULE
*****
 40 44 0 0 0
SMALL
GASTEIGER

@<TRIPOS>ATOM
      1 C         -21.8076   -8.1845   -9.3666 C.2     1  UNL1        0.2506
      2 O         -22.6036   -8.1313   -8.3904 O.2     1  UNL1       -0.2699
      3 N         -22.0881   -7.4388  -10.5669 N.am    1  UNL1       -0.2680
      4 C         -21.0002   -6.7714  -11.2877 C.3     1  UNL1        0.1412
      5 C         -20.5942   -7.6019  -12.5015 C.3     1  UNL1        0.2268
      6 O         -21.7036   -8.3213  -13.0349 O.3     1  UNL1       -0.4726
      7 C         -22.9049   -7.7033  -13.3948 C.ar    1  UNL1        0.1489
      8 C         -23.2949   -7.7254  -14.7459 C.ar    1  UNL1        0.0757
      9 N         -22.4821   -8.3785  -15.7286 N.pl3   1  UNL1       -0.3546
     10 C         -24.4774   -7.0904  -15.1423 C.ar    1  UNL1        0.0171
     11 C         -25.2935   -6.4425  -14.2038 C.ar    1  UNL1        0.0012
     12 C         -24.9155   -6.4497  -12.8522 C.ar    1  UNL1        0.0005
     13 C         -23.7290   -7.0712  -12.4298 C.ar    1  UNL1        0.0329
     14 C         -23.4820   -7.1537  -10.9313 C.3     1  UNL1        0.1236
     15 H         -22.7663   -8.3888  -16.7336 H       1  UNL1        0.1424
     16 H         -21.5951   -8.8638  -15.4682 H       1  UNL1        0.1424
     17 C         -26.5487   -5.7735  -14.6303 C.ar    1  UNL1        0.0016
     18 C         -26.5031   -4.5678  -15.3851 C.ar    1  UNL1        0.0016
     19 C         -27.6879   -3.9268  -15.7934 C.ar    1  UNL1        0.0206
     20 C         -28.8976   -4.5114  -15.4344 C.ar    1  UNL1        0.0985
     21 N         -30.1388   -4.0740  -15.7131 N.ar    1  UNL1       -0.2241
     22 C         -30.9282   -5.0133  -15.1280 C.ar    1  UNL1        0.1750
     23 N         -30.2310   -5.9966  -14.5097 N.ar    1  UNL1       -0.3349
     24 C         -28.9512   -5.6640  -14.7139 C.ar    1  UNL1        0.0757
     25 C         -27.8054   -6.3312  -14.2898 C.ar    1  UNL1        0.0185
     26 H         -30.6085   -6.8221  -13.9937 H       1  UNL1        0.1675
     27 C         -19.7040   -8.8787   -8.1589 C.ar    1  UNL1        0.0503
     28 C         -18.5976   -9.7487   -8.0758 C.ar    1  UNL1        0.0328
     29 C         -18.3602  -10.7057   -9.0699 C.ar    1  UNL1        0.1069
     30 C         -19.2327  -10.8079  -10.1571 C.ar    1  UNL1        0.0186
     31 C         -20.3374   -9.9624  -10.2513 C.ar    1  UNL1        0.0071
     32 C         -20.5921   -9.0103   -9.2543 C.ar    1  UNL1        0.0667
     33 S         -16.9812  -11.7920   -8.9334 S.O2    1  UNL1        0.0105
     34 C         -16.6572  -12.1180   -7.2158 C.3     1  UNL1        0.1816
     35 O         -17.2728  -13.0852   -9.6420 O.2     1  UNL1       -0.1686
     36 O         -15.7727  -11.1585   -9.5639 O.2     1  UNL1       -0.1686
     37 N         -19.9107   -7.8494   -7.1658 N.pl3   1  UNL1       -0.3325
     38 H         -20.6539   -7.1329   -7.3275 H       1  UNL1        0.1468
     39 C         -19.7838   -8.5926   -4.8156 C.3     1  UNL1        0.0229
     40 C         -19.1373   -7.7665   -5.9242 C.3     1  UNL1        0.0871
@<TRIPOS>BOND
     1    39    40    1
     2    40    37    1
     3    37    27    1
     4    27    28   ar
     5    28    29   ar
     6    29    33    1
     7    33    34    1
     8    33    35    2
     9    33    36    2
    10    29    30   ar
    11    30    31   ar
    12    31    32   ar
    13    32     1    1
    14     1     2    2
    15     1     3   am
    16     3     4    1
    17     4     5    1
    18     5     6    1
    19     6     7    1
    20     7     8   ar
    21     8     9    1
    22     8    10   ar
    23    10    11   ar
    24    11    17    1
    25    17    18   ar
    26    18    19   ar
    27    19    20   ar
    28    20    21   ar
    29    21    22   ar
    30    22    23   ar
    31    23    24   ar
    32    24    25   ar
    33    11    12   ar
    34    12    13   ar
    35    13    14    1
    36    32    27   ar
    37    14     3    1
    38    13     7   ar
    39    25    17   ar
    40    24    20   ar
    41    37    38    1
    42     9    15    1
    43     9    16    1
    44    23    26    1
@<TRIPOS>MOLECULE
*****
 40 44 0 0 0
SMALL
GASTEIGER

@<TRIPOS>ATOM
      1 C         -22.0927   -8.0243   -9.3977 C.2     1  UNL1        0.2506
      2 O         -22.8889   -7.8914   -8.4293 O.2     1  UNL1       -0.2699
      3 N         -22.3326   -7.3181  -10.6302 N.am    1  UNL1       -0.2680
      4 C         -21.2113   -6.7348  -11.3725 C.3     1  UNL1        0.1412
      5 C         -20.8411   -7.6349  -12.5475 C.3     1  UNL1        0.2268
      6 O         -21.9818   -8.3227  -13.0562 O.3     1  UNL1       -0.4726
      7 C         -23.1506   -7.6639  -13.4490 C.ar    1  UNL1        0.1489
      8 C         -23.5362   -7.7251  -14.8001 C.ar    1  UNL1        0.0757
      9 N         -22.7521   -8.4577  -15.7495 N.pl3   1  UNL1       -0.3546
     10 C         -24.6854   -7.0518  -15.2299 C.ar    1  UNL1        0.0171
     11 C         -25.4729   -6.3261  -14.3246 C.ar    1  UNL1        0.0012
     12 C         -25.1008   -6.2935  -12.9718 C.ar    1  UNL1        0.0005
     13 C         -23.9470   -6.9524  -12.5165 C.ar    1  UNL1        0.0329
     14 C         -23.7098   -6.9825  -11.0145 C.3     1  UNL1        0.1236
     15 H         -23.0327   -8.4974  -16.7547 H       1  UNL1        0.1424
     16 H         -21.8904   -8.9733  -15.4635 H       1  UNL1        0.1424
     17 C         -26.6930   -5.6167  -14.7864 C.ar    1  UNL1        0.0016
     18 C         -26.5867   -4.4455  -15.5880 C.ar    1  UNL1        0.0016
     19 C         -27.7379   -3.7667  -16.0299 C.ar    1  UNL1        0.0206
     20 C         -28.9756   -4.2794  -15.6569 C.ar    1  UNL1        0.0985
     21 N         -30.1933   -3.7959  -15.9618 N.ar    1  UNL1       -0.2241
     22 C         -31.0292   -4.6732  -15.3458 C.ar    1  UNL1        0.1750
     23 N         -30.3823   -5.6625  -14.6839 N.ar    1  UNL1       -0.3349
     24 C         -29.0872   -5.3985  -14.8918 C.ar    1  UNL1        0.0757
     25 C         -27.9763   -6.1011  -14.4333 C.ar    1  UNL1        0.0185
     26 H         -30.8010   -6.4483  -14.1384 H       1  UNL1        0.1675
     27 C         -20.7219  -10.0313  -10.0747 C.ar    1  UNL1        0.0503
     28 C         -19.5419  -10.7876   -9.9215 C.ar    1  UNL1        0.0328
     29 C         -18.5941  -10.4504   -8.9475 C.ar    1  UNL1        0.1069
     30 C         -18.8135   -9.3465   -8.1188 C.ar    1  UNL1        0.0186
     31 C         -19.9701   -8.5811   -8.2621 C.ar    1  UNL1        0.0071
     32 C         -20.9186   -8.9017   -9.2434 C.ar    1  UNL1        0.0667
     33 S         -17.1203  -11.4008   -8.7884 S.O2    1  UNL1        0.0105
     34 C         -17.3994  -13.0319   -9.4388 C.3     1  UNL1        0.1816
     35 O         -16.0006  -10.7444   -9.5467 O.2     1  UNL1       -0.1686
     36 O         -16.7317  -11.4945   -7.3396 O.2     1  UNL1       -0.1686
     37 N         -21.7284  -10.4193  -11.0365 N.pl3   1  UNL1       -0.3325
     38 H         -22.6306   -9.8929  -11.0642 H       1  UNL1        0.1468
     39 C         -22.7189  -11.6019  -12.9632 C.3     1  UNL1        0.0229
     40 C         -21.5422  -11.5112  -11.9955 C.3     1  UNL1        0.0871
@<TRIPOS>BOND
     1    39    40    1
     2    40    37    1
     3    37    27    1
     4    27    28   ar
     5    28    29   ar
     6    29    33    1
     7    33    34    1
     8    33    35    2
     9    33    36    2
    10    29    30   ar
    11    30    31   ar
    12    31    32   ar
    13    32     1    1
    14     1     2    2
    15     1     3   am
    16     3     4    1
    17     4     5    1
    18     5     6    1
    19     6     7    1
    20     7     8   ar
    21     8     9    1
    22     8    10   ar
    23    10    11   ar
    24    11    17    1
    25    17    18   ar
    26    18    19   ar
    27    19    20   ar
    28    20    21   ar
    29    21    22   ar
    30    22    23   ar
    31    23    24   ar
    32    24    25   ar
    33    11    12   ar
    34    12    13   ar
    35    13    14    1
    36    32    27   ar
    37    14     3    1
    38    13     7   ar
    39    25    17   ar
    40    24    20   ar
    41    37    38    1
    42     9    15    1
    43     9    16    1
    44    23    26    1
@<TRIPOS>MOLECULE
*****
 40 44 0 0 0
SMALL
GASTEIGER

@<TRIPOS>ATOM
      1 C         -23.2539   -8.4365  -10.7294 C.2     1  UNL1        0.2506
      2 O         -24.4069   -8.9041  -10.5256 O.2     1  UNL1       -0.2699
      3 N         -22.9700   -7.7247  -11.9492 N.am    1  UNL1       -0.2680
      4 C         -22.1183   -6.5320  -11.9222 C.3     1  UNL1        0.1412
      5 C         -20.7117   -6.8866  -12.3951 C.3     1  UNL1        0.2268
      6 O         -20.7354   -7.9402  -13.3555 O.3     1  UNL1       -0.4726
      7 C         -21.5139   -7.8901  -14.5157 C.ar    1  UNL1        0.1489
      8 C         -20.8637   -7.8778  -15.7627 C.ar    1  UNL1        0.0757
      9 N         -19.4339   -7.9273  -15.8398 N.pl3   1  UNL1       -0.3546
     10 C         -21.6142   -7.7987  -16.9413 C.ar    1  UNL1        0.0171
     11 C         -23.0150   -7.7483  -16.8982 C.ar    1  UNL1        0.0012
     12 C         -23.6602   -7.7920  -15.6526 C.ar    1  UNL1        0.0005
     13 C         -22.9301   -7.8614  -14.4548 C.ar    1  UNL1        0.0329
     14 C         -23.7192   -8.0535  -13.1689 C.3     1  UNL1        0.1236
     15 H         -18.9492   -7.9100  -16.7647 H       1  UNL1        0.1424
     16 H         -18.8429   -7.9888  -14.9812 H       1  UNL1        0.1424
     17 C         -23.8058   -7.6679  -18.1525 C.ar    1  UNL1        0.0016
     18 C         -24.5450   -6.4926  -18.4653 C.ar    1  UNL1        0.0016
     19 C         -25.2974   -6.4078  -19.6518 C.ar    1  UNL1        0.0206
     20 C         -25.2919   -7.5080  -20.5024 C.ar    1  UNL1        0.0985
     21 N         -25.9349   -7.6452  -21.6760 N.ar    1  UNL1       -0.2241
     22 C         -25.5838   -8.8985  -22.0679 C.ar    1  UNL1        0.1750
     23 N         -24.7620   -9.5279  -21.1938 N.ar    1  UNL1       -0.3349
     24 C         -24.5879   -8.6352  -20.2125 C.ar    1  UNL1        0.0757
     25 C         -23.8306   -8.7623  -19.0513 C.ar    1  UNL1        0.0185
     26 H         -24.3593  -10.4881  -21.2713 H       1  UNL1        0.1675
     27 C         -21.0104   -9.3156   -9.9816 C.ar    1  UNL1        0.0503
     28 C         -20.0266   -9.3973   -8.9748 C.ar    1  UNL1        0.0328
     29 C         -20.2432   -8.8333   -7.7116 C.ar    1  UNL1        0.1069
     30 C         -21.4460   -8.1739   -7.4431 C.ar    1  UNL1        0.0186
     31 C         -22.4265   -8.0749   -8.4295 C.ar    1  UNL1        0.0071
     32 C         -22.2141   -8.6237   -9.7019 C.ar    1  UNL1        0.0667
     33 S         -18.9914   -8.9339   -6.4774 S.O2    1  UNL1        0.0105
     34 C         -19.7534   -9.0555   -4.8755 C.3     1  UNL1        0.1816
     35 O         -18.1305  -10.1429   -6.7152 O.2     1  UNL1       -0.1686
     36 O         -18.1253   -7.7068   -6.5328 O.2     1  UNL1       -0.1686
     37 N         -20.8111   -9.9540  -11.2626 N.pl3   1  UNL1       -0.3325
     38 H         -20.3403   -9.4185  -12.0265 H       1  UNL1        0.1468
     39 C         -21.7310  -11.4729  -12.9769 C.3     1  UNL1        0.0229
     40 C         -21.2231  -11.3315  -11.5446 C.3     1  UNL1        0.0871
@<TRIPOS>BOND
     1    39    40    1
     2    40    37    1
     3    37    27    1
     4    27    28   ar
     5    28    29   ar
     6    29    33    1
     7    33    34    1
     8    33    35    2
     9    33    36    2
    10    29    30   ar
    11    30    31   ar
    12    31    32   ar
    13    32     1    1
    14     1     2    2
    15     1     3   am
    16     3     4    1
    17     4     5    1
    18     5     6    1
    19     6     7    1
    20     7     8   ar
    21     8     9    1
    22     8    10   ar
    23    10    11   ar
    24    11    17    1
    25    17    18   ar
    26    18    19   ar
    27    19    20   ar
    28    20    21   ar
    29    21    22   ar
    30    22    23   ar
    31    23    24   ar
    32    24    25   ar
    33    11    12   ar
    34    12    13   ar
    35    13    14    1
    36    32    27   ar
    37    14     3    1
    38    13     7   ar
    39    25    17   ar
    40    24    20   ar
    41    37    38    1
    42     9    15    1
    43     9    16    1
    44    23    26    1
@<TRIPOS>MOLECULE
*****
 40 44 0 0 0
SMALL
GASTEIGER

@<TRIPOS>ATOM
      1 C         -21.2777   -7.4311  -11.7181 C.2     1  UNL1        0.2506
      2 O         -20.5104   -6.8515  -12.5335 O.2     1  UNL1       -0.2699
      3 N         -22.6549   -7.6680  -12.0680 N.am    1  UNL1       -0.2680
      4 C         -23.3019   -8.9281  -11.6910 C.3     1  UNL1        0.1412
      5 C         -24.1769   -8.7153  -10.4594 C.3     1  UNL1        0.2268
      6 O         -24.7142   -7.3950  -10.4241 O.3     1  UNL1       -0.4726
      7 C         -25.4322   -6.8408  -11.4880 C.ar    1  UNL1        0.1489
      8 C         -26.7846   -6.5109  -11.2879 C.ar    1  UNL1        0.0757
      9 N         -27.4077   -6.7285  -10.0162 N.pl3   1  UNL1       -0.3546
     10 C         -27.5380   -5.9816  -12.3419 C.ar    1  UNL1        0.0171
     11 C         -26.9565   -5.7578  -13.5982 C.ar    1  UNL1        0.0012
     12 C         -25.5986   -6.0600  -13.7839 C.ar    1  UNL1        0.0005
     13 C         -24.8230   -6.6011  -12.7455 C.ar    1  UNL1        0.0329
     14 C         -23.3313   -6.7552  -12.9988 C.3     1  UNL1        0.1236
     15 H         -28.4140   -6.4916   -9.8683 H       1  UNL1        0.1424
     16 H         -26.8754   -7.1196   -9.2075 H       1  UNL1        0.1424
     17 C         -27.7604   -5.1927  -14.7115 C.ar    1  UNL1        0.0016
     18 C         -29.1626   -5.4266  -14.7800 C.ar    1  UNL1        0.0016
     19 C         -29.9323   -4.8951  -15.8318 C.ar    1  UNL1        0.0206
     20 C         -29.2763   -4.1372  -16.7959 C.ar    1  UNL1        0.0985
     21 N         -29.8087   -3.5412  -17.8780 N.ar    1  UNL1       -0.2241
     22 C         -28.7306   -2.9507  -18.4583 C.ar    1  UNL1        0.1750
     23 N         -27.5733   -3.1575  -17.7850 N.ar    1  UNL1       -0.3349
     24 C         -27.9368   -3.9075  -16.7383 C.ar    1  UNL1        0.0757
     25 C         -27.1377   -4.4132  -15.7168 C.ar    1  UNL1        0.0185
     26 H         -26.6194   -2.8102  -18.0295 H       1  UNL1        0.1675
     27 C         -20.1161   -9.1247  -10.2525 C.ar    1  UNL1        0.0503
     28 C         -19.5612   -9.4480   -8.9973 C.ar    1  UNL1        0.0328
     29 C         -19.6506   -8.5564   -7.9214 C.ar    1  UNL1        0.1069
     30 C         -20.2916   -7.3260   -8.0913 C.ar    1  UNL1        0.0186
     31 C         -20.8379   -6.9851   -9.3280 C.ar    1  UNL1        0.0071
     32 C         -20.7415   -7.8645  -10.4155 C.ar    1  UNL1        0.0667
     33 S         -18.9338   -8.9769   -6.3690 S.O2    1  UNL1        0.0105
     34 C         -17.9427   -7.6184   -5.7917 C.3     1  UNL1        0.1816
     35 O         -20.0143   -9.2700   -5.3660 O.2     1  UNL1       -0.1686
     36 O         -18.0738  -10.2000   -6.5226 O.2     1  UNL1       -0.1686
     37 N         -20.0794  -10.0726  -11.3427 N.pl3   1  UNL1       -0.3325
     38 H         -19.7640   -9.7479  -12.2845 H       1  UNL1        0.1468
     39 C         -21.2461  -11.9755  -12.3963 C.3     1  UNL1        0.0229
     40 C         -20.4485  -11.4825  -11.1920 C.3     1  UNL1        0.0871
@<TRIPOS>BOND
     1    39    40    1
     2    40    37    1
     3    37    27    1
     4    27    28   ar
     5    28    29   ar
     6    29    33    1
     7    33    34    1
     8    33    35    2
     9    33    36    2
    10    29    30   ar
    11    30    31   ar
    12    31    32   ar
    13    32     1    1
    14     1     2    2
    15     1     3   am
    16     3     4    1
    17     4     5    1
    18     5     6    1
    19     6     7    1
    20     7     8   ar
    21     8     9    1
    22     8    10   ar
    23    10    11   ar
    24    11    17    1
    25    17    18   ar
    26    18    19   ar
    27    19    20   ar
    28    20    21   ar
    29    21    22   ar
    30    22    23   ar
    31    23    24   ar
    32    24    25   ar
    33    11    12   ar
    34    12    13   ar
    35    13    14    1
    36    32    27   ar
    37    14     3    1
    38    13     7   ar
    39    25    17   ar
    40    24    20   ar
    41    37    38    1
    42     9    15    1
    43     9    16    1
    44    23    26    1
@<TRIPOS>MOLECULE
*****
 40 44 0 0 0
SMALL
GASTEIGER

@<TRIPOS>ATOM
      1 C         -26.3729   -8.0647  -11.0705 C.2     1  UNL1        0.2506
      2 O         -26.8377   -8.1590   -9.9024 O.2     1  UNL1       -0.2699
      3 N         -25.1359   -8.7207  -11.4093 N.am    1  UNL1       -0.2680
      4 C         -24.9828   -9.3705  -12.7142 C.3     1  UNL1        0.1412
      5 C         -24.1786   -8.4738  -13.6506 C.3     1  UNL1        0.2268
      6 O         -23.2300   -7.6884  -12.9322 O.3     1  UNL1       -0.4726
      7 C         -22.2920   -8.2458  -12.0580 C.ar    1  UNL1        0.1489
      8 C         -20.9259   -8.1228  -12.3688 C.ar    1  UNL1        0.0757
      9 N         -20.5067   -7.4302  -13.5509 N.pl3   1  UNL1       -0.3546
     10 C         -19.9640   -8.6952  -11.5288 C.ar    1  UNL1        0.0171
     11 C         -20.3433   -9.3797  -10.3651 C.ar    1  UNL1        0.0012
     12 C         -21.7061   -9.4731  -10.0433 C.ar    1  UNL1        0.0005
     13 C         -22.6918   -8.9159  -10.8744 C.ar    1  UNL1        0.0329
     14 C         -24.1252   -8.9401  -10.3665 C.3     1  UNL1        0.1236
     15 H         -19.4930   -7.3450  -13.7874 H       1  UNL1        0.1424
     16 H         -21.1967   -6.9894  -14.1988 H       1  UNL1        0.1424
     17 C         -19.3175   -9.9819   -9.4761 C.ar    1  UNL1        0.0016
     18 C         -19.1406   -9.5001   -8.1487 C.ar    1  UNL1        0.0016
     19 C         -18.1706  -10.0649   -7.2993 C.ar    1  UNL1        0.0206
     20 C         -17.3962  -11.1050   -7.8017 C.ar    1  UNL1        0.0985
     21 N         -16.4196  -11.7832   -7.1725 N.ar    1  UNL1       -0.2241
     22 C         -16.0106  -12.6700   -8.1181 C.ar    1  UNL1        0.1750
     23 N         -16.6877  -12.5648   -9.2868 N.ar    1  UNL1       -0.3349
     24 C         -17.5586  -11.5728   -9.0686 C.ar    1  UNL1        0.0757
     25 C         -18.5050  -11.0444   -9.9421 C.ar    1  UNL1        0.0185
     26 H         -16.5573  -13.1295  -10.1554 H       1  UNL1        0.1675
     27 C         -26.7496   -5.9562  -12.4039 C.ar    1  UNL1        0.0503
     28 C         -27.4584   -5.2906  -13.4250 C.ar    1  UNL1        0.0328
     29 C         -28.5247   -5.9151  -14.0835 C.ar    1  UNL1        0.1069
     30 C         -28.8901   -7.2176  -13.7320 C.ar    1  UNL1        0.0186
     31 C         -28.1945   -7.8949  -12.7312 C.ar    1  UNL1        0.0071
     32 C         -27.1166   -7.2841  -12.0754 C.ar    1  UNL1        0.0667
     33 S         -29.3823   -5.0685  -15.3674 S.O2    1  UNL1        0.0105
     34 C         -28.2065   -4.2434  -16.4152 C.3     1  UNL1        0.1816
     35 O         -30.1810   -6.0457  -16.1838 O.2     1  UNL1       -0.1686
     36 O         -30.3214   -4.0588  -14.7693 O.2     1  UNL1       -0.1686
     37 N         -25.6920   -5.2867  -11.6816 N.pl3   1  UNL1       -0.3325
     38 H         -25.8323   -5.0653  -10.6701 H       1  UNL1        0.1468
     39 C         -23.2911   -4.8986  -11.2610 C.3     1  UNL1        0.0229
     40 C         -24.4144   -4.9135  -12.2941 C.3     1  UNL1        0.0871
@<TRIPOS>BOND
     1    39    40    1
     2    40    37    1
     3    37    27    1
     4    27    28   ar
     5    28    29   ar
     6    29    33    1
     7    33    34    1
     8    33    35    2
     9    33    36    2
    10    29    30   ar
    11    30    31   ar
    12    31    32   ar
    13    32     1    1
    14     1     2    2
    15     1     3   am
    16     3     4    1
    17     4     5    1
    18     5     6    1
    19     6     7    1
    20     7     8   ar
    21     8     9    1
    22     8    10   ar
    23    10    11   ar
    24    11    17    1
    25    17    18   ar
    26    18    19   ar
    27    19    20   ar
    28    20    21   ar
    29    21    22   ar
    30    22    23   ar
    31    23    24   ar
    32    24    25   ar
    33    11    12   ar
    34    12    13   ar
    35    13    14    1
    36    32    27   ar
    37    14     3    1
    38    13     7   ar
    39    25    17   ar
    40    24    20   ar
    41    37    38    1
    42     9    15    1
    43     9    16    1
    44    23    26    1
@<TRIPOS>MOLECULE
*****
 40 44 0 0 0
SMALL
GASTEIGER

@<TRIPOS>ATOM
      1 C         -26.4405   -5.5862  -15.1090 C.2     1  UNL1        0.2506
      2 O         -25.8846   -5.8119  -16.2178 O.2     1  UNL1       -0.2699
      3 N         -25.7321   -5.8447  -13.8815 N.am    1  UNL1       -0.2680
      4 C         -25.8612   -4.9210  -12.7507 C.3     1  UNL1        0.1412
      5 C         -26.8318   -5.4918  -11.7212 C.3     1  UNL1        0.2268
      6 O         -26.7947   -6.9171  -11.7047 O.3     1  UNL1       -0.4726
      7 C         -25.6109   -7.6422  -11.5387 C.ar    1  UNL1        0.1489
      8 C         -25.4687   -8.4456  -10.3933 C.ar    1  UNL1        0.0757
      9 N         -26.5211   -8.5267   -9.4244 N.pl3   1  UNL1       -0.3546
     10 C         -24.2839   -9.1607  -10.1841 C.ar    1  UNL1        0.0171
     11 C         -23.2360   -9.1011  -11.1140 C.ar    1  UNL1        0.0012
     12 C         -23.3949   -8.3222  -12.2705 C.ar    1  UNL1        0.0005
     13 C         -24.5698   -7.5874  -12.4995 C.ar    1  UNL1        0.0329
     14 C         -24.7061   -6.8951  -13.8468 C.3     1  UNL1        0.1236
     15 H         -26.4138   -9.1165   -8.5692 H       1  UNL1        0.1424
     16 H         -27.4189   -8.0085   -9.5493 H       1  UNL1        0.1424
     17 C         -21.9827   -9.8649  -10.8879 C.ar    1  UNL1        0.0016
     18 C         -21.7803  -11.1230  -11.5216 C.ar    1  UNL1        0.0016
     19 C         -20.5956  -11.8538  -11.3128 C.ar    1  UNL1        0.0206
     20 C         -19.6357  -11.3047  -10.4697 C.ar    1  UNL1        0.0985
     21 N         -18.4428  -11.8254  -10.1297 N.ar    1  UNL1       -0.2241
     22 C         -17.9294  -10.8838   -9.2945 C.ar    1  UNL1        0.1750
     23 N         -18.7482   -9.8202   -9.1105 N.ar    1  UNL1       -0.3349
     24 C         -19.8198  -10.1025   -9.8602 C.ar    1  UNL1        0.0757
     25 C         -20.9749   -9.3464  -10.0384 C.ar    1  UNL1        0.0185
     26 H         -18.5787   -8.9764   -8.5192 H       1  UNL1        0.1675
     27 C         -28.2134   -4.0080  -15.9644 C.ar    1  UNL1        0.0503
     28 C         -29.5600   -3.5906  -15.9476 C.ar    1  UNL1        0.0328
     29 C         -30.4810   -4.1713  -15.0672 C.ar    1  UNL1        0.1069
     30 C         -30.0657   -5.1829  -14.1966 C.ar    1  UNL1        0.0186
     31 C         -28.7401   -5.6152  -14.2057 C.ar    1  UNL1        0.0071
     32 C         -27.8134   -5.0504  -15.0930 C.ar    1  UNL1        0.0667
     33 S         -32.1610   -3.6442  -15.0784 S.O2    1  UNL1        0.0105
     34 C         -32.4445   -2.5543  -13.7025 C.3     1  UNL1        0.1816
     35 O         -32.4647   -2.9210  -16.3607 O.2     1  UNL1       -0.1686
     36 O         -33.0675   -4.8383  -14.9718 O.2     1  UNL1       -0.1686
     37 N         -27.2507   -3.3630  -16.8280 N.pl3   1  UNL1       -0.3325
     38 H         -26.4905   -2.7894  -16.3980 H       1  UNL1        0.1468
     39 C         -28.3611   -2.6044  -18.8977 C.3     1  UNL1        0.0229
     40 C         -27.2745   -3.4858  -18.2878 C.3     1  UNL1        0.0871
@<TRIPOS>BOND
     1    39    40    1
     2    40    37    1
     3    37    27    1
     4    27    28   ar
     5    28    29   ar
     6    29    33    1
     7    33    34    1
     8    33    35    2
     9    33    36    2
    10    29    30   ar
    11    30    31   ar
    12    31    32   ar
    13    32     1    1
    14     1     2    2
    15     1     3   am
    16     3     4    1
    17     4     5    1
    18     5     6    1
    19     6     7    1
    20     7     8   ar
    21     8     9    1
    22     8    10   ar
    23    10    11   ar
    24    11    17    1
    25    17    18   ar
    26    18    19   ar
    27    19    20   ar
    28    20    21   ar
    29    21    22   ar
    30    22    23   ar
    31    23    24   ar
    32    24    25   ar
    33    11    12   ar
    34    12    13   ar
    35    13    14    1
    36    32    27   ar
    37    14     3    1
    38    13     7   ar
    39    25    17   ar
    40    24    20   ar
    41    37    38    1
    42     9    15    1
    43     9    16    1
    44    23    26    1
@<TRIPOS>MOLECULE
*****
 40 44 0 0 0
SMALL
GASTEIGER

@<TRIPOS>ATOM
      1 C         -22.1444   -6.3709  -10.8900 C.2     1  UNL1        0.2506
      2 O         -21.4335   -5.3506  -10.6823 O.2     1  UNL1       -0.2699
      3 N         -21.8043   -7.6252  -10.2685 N.am    1  UNL1       -0.2680
      4 C         -22.8614   -8.4980   -9.7496 C.3     1  UNL1        0.1412
      5 C         -23.1271   -9.6341  -10.7326 C.3     1  UNL1        0.2268
      6 O         -21.9446   -9.9959  -11.4423 O.3     1  UNL1       -0.4726
      7 C         -20.7496  -10.3343  -10.8004 C.ar    1  UNL1        0.1489
      8 C         -20.2510  -11.6406  -10.9512 C.ar    1  UNL1        0.0757
      9 N         -20.9488  -12.5989  -11.7557 N.pl3   1  UNL1       -0.3546
     10 C         -19.0725  -12.0184  -10.2976 C.ar    1  UNL1        0.0171
     11 C         -18.3674  -11.1031   -9.5029 C.ar    1  UNL1        0.0012
     12 C         -18.8526   -9.7919   -9.3805 C.ar    1  UNL1        0.0005
     13 C         -20.0379   -9.3901  -10.0180 C.ar    1  UNL1        0.0329
     14 C         -20.4010   -7.9150   -9.9463 C.3     1  UNL1        0.1236
     15 H         -20.5842  -13.5718  -11.8621 H       1  UNL1        0.1424
     16 H         -21.8294  -12.3510  -12.2590 H       1  UNL1        0.1424
     17 C         -17.1157  -11.5092   -8.8148 C.ar    1  UNL1        0.0016
     18 C         -16.0841  -12.1797   -9.5302 C.ar    1  UNL1        0.0016
     19 C         -14.8945  -12.5684   -8.8859 C.ar    1  UNL1        0.0206
     20 C         -14.7649  -12.2750   -7.5327 C.ar    1  UNL1        0.0985
     21 N         -13.7255  -12.5531   -6.7253 N.ar    1  UNL1       -0.2241
     22 C         -14.1304  -12.0516   -5.5285 C.ar    1  UNL1        0.1750
     23 N         -15.3601  -11.4845   -5.5682 N.ar    1  UNL1       -0.3349
     24 C         -15.7450  -11.6338   -6.8409 C.ar    1  UNL1        0.0757
     25 C         -16.9366  -11.2314   -7.4375 C.ar    1  UNL1        0.0185
     26 H         -15.8837  -11.0353   -4.7844 H       1  UNL1        0.1675
     27 C         -23.4367   -7.0061  -12.9618 C.ar    1  UNL1        0.0503
     28 C         -24.6222   -6.9015  -13.7177 C.ar    1  UNL1        0.0328
     29 C         -25.6580   -6.0497  -13.3150 C.ar    1  UNL1        0.1069
     30 C         -25.5219   -5.2966  -12.1454 C.ar    1  UNL1        0.0186
     31 C         -24.3606   -5.3944  -11.3799 C.ar    1  UNL1        0.0071
     32 C         -23.3235   -6.2547  -11.7666 C.ar    1  UNL1        0.0667
     33 S         -27.1356   -5.9506  -14.2676 S.O2    1  UNL1        0.0105
     34 C         -28.1201   -7.4027  -13.9787 C.3     1  UNL1        0.1816
     35 O         -27.9189   -4.7288  -13.8763 O.2     1  UNL1       -0.1686
     36 O         -26.7918   -5.8558  -15.7277 O.2     1  UNL1       -0.1686
     37 N         -22.3434   -7.8363  -13.4134 N.pl3   1  UNL1       -0.3325
     38 H         -21.4564   -7.8485  -12.8611 H       1  UNL1        0.1468
     39 C         -21.5120   -8.1566  -15.7151 C.3     1  UNL1        0.0229
     40 C         -22.4196   -8.6830  -14.6066 C.3     1  UNL1        0.0871
@<TRIPOS>BOND
     1    39    40    1
     2    40    37    1
     3    37    27    1
     4    27    28   ar
     5    28    29   ar
     6    29    33    1
     7    33    34    1
     8    33    35    2
     9    33    36    2
    10    29    30   ar
    11    30    31   ar
    12    31    32   ar
    13    32     1    1
    14     1     2    2
    15     1     3   am
    16     3     4    1
    17     4     5    1
    18     5     6    1
    19     6     7    1
    20     7     8   ar
    21     8     9    1
    22     8    10   ar
    23    10    11   ar
    24    11    17    1
    25    17    18   ar
    26    18    19   ar
    27    19    20   ar
    28    20    21   ar
    29    21    22   ar
    30    22    23   ar
    31    23    24   ar
    32    24    25   ar
    33    11    12   ar
    34    12    13   ar
    35    13    14    1
    36    32    27   ar
    37    14     3    1
    38    13     7   ar
    39    25    17   ar
    40    24    20   ar
    41    37    38    1
    42     9    15    1
    43     9    16    1
    44    23    26    1
@<TRIPOS>MOLECULE
*****
 40 44 0 0 0
SMALL
GASTEIGER

@<TRIPOS>ATOM
      1 C         -21.9794   -8.8389  -13.8746 C.2     1  UNL1        0.2506
      2 O         -21.4003   -8.7326  -14.9894 O.2     1  UNL1       -0.2699
      3 N         -23.3856   -8.5467  -13.7621 N.am    1  UNL1       -0.2680
      4 C         -24.2421   -9.3768  -12.9101 C.3     1  UNL1        0.1412
      5 C         -24.5031   -8.6661  -11.5855 C.3     1  UNL1        0.2268
      6 O         -24.5169   -7.2497  -11.7483 O.3     1  UNL1       -0.4726
      7 C         -25.3318   -6.6025  -12.6820 C.ar    1  UNL1        0.1489
      8 C         -26.3328   -5.7329  -12.2135 C.ar    1  UNL1        0.0757
      9 N         -26.5041   -5.5078  -10.8089 N.pl3   1  UNL1       -0.3546
     10 C         -27.1835   -5.0927  -13.1220 C.ar    1  UNL1        0.0171
     11 C         -27.0409   -5.2934  -14.5025 C.ar    1  UNL1        0.0012
     12 C         -26.0207   -6.1381  -14.9664 C.ar    1  UNL1        0.0005
     13 C         -25.1601   -6.8000  -14.0754 C.ar    1  UNL1        0.0329
     14 C         -23.9969   -7.5737  -14.6767 C.3     1  UNL1        0.1236
     15 H         -27.2523   -4.8686  -10.4590 H       1  UNL1        0.1424
     16 H         -25.8865   -5.9670  -10.1034 H       1  UNL1        0.1424
     17 C         -27.9445   -4.6085  -15.4614 C.ar    1  UNL1        0.0016
     18 C         -29.3559   -4.6583  -15.2843 C.ar    1  UNL1        0.0016
     19 C         -30.2198   -4.0122  -16.1885 C.ar    1  UNL1        0.0206
     20 C         -29.6472   -3.3273  -17.2548 C.ar    1  UNL1        0.0985
     21 N         -30.2762   -2.6473  -18.2302 N.ar    1  UNL1       -0.2241
     22 C         -29.2470   -2.1900  -18.9914 C.ar    1  UNL1        0.1750
     23 N         -28.0278   -2.5570  -18.5286 N.ar    1  UNL1       -0.3349
     24 C         -28.2995   -3.2733  -17.4317 C.ar    1  UNL1        0.0757
     25 C         -27.4087   -3.8969  -16.5627 C.ar    1  UNL1        0.0185
     26 H         -27.0935   -2.3309  -18.9364 H       1  UNL1        0.1675
     27 C         -21.1536  -10.6286  -12.2997 C.ar    1  UNL1        0.0503
     28 C         -20.3311  -10.9855  -11.2115 C.ar    1  UNL1        0.0328
     29 C         -19.5951  -10.0161  -10.5194 C.ar    1  UNL1        0.1069
     30 C         -19.6686   -8.6770  -10.9131 C.ar    1  UNL1        0.0186
     31 C         -20.4692   -8.3067  -11.9929 C.ar    1  UNL1        0.0071
     32 C         -21.1991   -9.2713  -12.7015 C.ar    1  UNL1        0.0667
     33 S         -18.5617  -10.4906   -9.1750 S.O2    1  UNL1        0.0105
     34 C         -19.0104   -9.5565   -7.7302 C.3     1  UNL1        0.1816
     35 O         -18.7255  -11.9580   -8.8931 O.2     1  UNL1       -0.1686
     36 O         -17.1239  -10.2239   -9.5223 O.2     1  UNL1       -0.1686
     37 N         -21.9619  -11.6206  -12.9713 N.pl3   1  UNL1       -0.3325
     38 H         -23.0009  -11.5804  -12.8678 H       1  UNL1        0.1468
     39 C         -21.8459  -12.5303  -15.2628 C.3     1  UNL1        0.0229
     40 C         -21.3973  -12.6797  -13.8116 C.3     1  UNL1        0.0871
@<TRIPOS>BOND
     1    39    40    1
     2    40    37    1
     3    37    27    1
     4    27    28   ar
     5    28    29   ar
     6    29    33    1
     7    33    34    1
     8    33    35    2
     9    33    36    2
    10    29    30   ar
    11    30    31   ar
    12    31    32   ar
    13    32     1    1
    14     1     2    2
    15     1     3   am
    16     3     4    1
    17     4     5    1
    18     5     6    1
    19     6     7    1
    20     7     8   ar
    21     8     9    1
    22     8    10   ar
    23    10    11   ar
    24    11    17    1
    25    17    18   ar
    26    18    19   ar
    27    19    20   ar
    28    20    21   ar
    29    21    22   ar
    30    22    23   ar
    31    23    24   ar
    32    24    25   ar
    33    11    12   ar
    34    12    13   ar
    35    13    14    1
    36    32    27   ar
    37    14     3    1
    38    13     7   ar
    39    25    17   ar
    40    24    20   ar
    41    37    38    1
    42     9    15    1
    43     9    16    1
    44    23    26    1
@<TRIPOS>MOLECULE
*****
 40 44 0 0 0
SMALL
GASTEIGER

@<TRIPOS>ATOM
      1 C         -26.2056   -5.5262  -12.7721 C.2     1  UNL1        0.2506
      2 O         -26.6144   -4.9824  -11.7107 O.2     1  UNL1       -0.2699
      3 N         -25.2672   -6.6173  -12.7079 N.am    1  UNL1       -0.2680
      4 C         -25.4010   -7.7556  -13.6216 C.3     1  UNL1        0.1412
      5 C         -24.3997   -7.6250  -14.7653 C.3     1  UNL1        0.2268
      6 O         -23.2117   -6.9587  -14.3437 O.3     1  UNL1       -0.4726
      7 C         -22.4607   -7.3750  -13.2404 C.ar    1  UNL1        0.1489
      8 C         -21.1466   -7.8286  -13.4531 C.ar    1  UNL1        0.0757
      9 N         -20.5878   -7.8516  -14.7722 N.pl3   1  UNL1       -0.3546
     10 C         -20.3795   -8.2793  -12.3727 C.ar    1  UNL1        0.0171
     11 C         -20.8989   -8.2695  -11.0701 C.ar    1  UNL1        0.0012
     12 C         -22.1998   -7.7871  -10.8590 C.ar    1  UNL1        0.0005
     13 C         -22.9937   -7.3384  -11.9272 C.ar    1  UNL1        0.0329
     14 C         -24.3292   -6.6983  -11.5807 C.3     1  UNL1        0.1236
     15 H         -19.6149   -8.1958  -14.9329 H       1  UNL1        0.1424
     16 H         -21.1306   -7.5210  -15.6006 H       1  UNL1        0.1424
     17 C         -20.0787   -8.7458   -9.9275 C.ar    1  UNL1        0.0016
     18 C         -19.2066   -9.8602  -10.0805 C.ar    1  UNL1        0.0016
     19 C         -18.4257  -10.3185   -9.0028 C.ar    1  UNL1        0.0206
     20 C         -18.5367   -9.6465   -7.7904 C.ar    1  UNL1        0.0985
     21 N         -17.8925   -9.9116   -6.6396 N.ar    1  UNL1       -0.2241
     22 C         -18.3753   -8.9601   -5.7973 C.ar    1  UNL1        0.1750
     23 N         -19.2778   -8.1326   -6.3771 N.ar    1  UNL1       -0.3349
     24 C         -19.3667   -8.5801   -7.6349 C.ar    1  UNL1        0.0757
     25 C         -20.1562   -8.0932   -8.6729 C.ar    1  UNL1        0.0185
     26 H         -19.7851   -7.3314   -5.9401 H       1  UNL1        0.1675
     27 C         -28.0336   -5.2884  -14.4948 C.ar    1  UNL1        0.0503
     28 C         -28.4721   -4.7281  -15.7120 C.ar    1  UNL1        0.0328
     29 C         -27.6081   -3.9593  -16.5013 C.ar    1  UNL1        0.1069
     30 C         -26.2950   -3.7363  -16.0775 C.ar    1  UNL1        0.0186
     31 C         -25.8465   -4.2744  -14.8719 C.ar    1  UNL1        0.0071
     32 C         -26.7076   -5.0338  -14.0673 C.ar    1  UNL1        0.0667
     33 S         -28.1858   -3.2561  -18.0087 S.O2    1  UNL1        0.0105
     34 C         -29.9116   -3.6334  -18.2102 C.3     1  UNL1        0.1816
     35 O         -27.9989   -1.7648  -17.9856 O.2     1  UNL1       -0.1686
     36 O         -27.4070   -3.8219  -19.1630 O.2     1  UNL1       -0.1686
     37 N         -28.9069   -6.1347  -13.7140 N.pl3   1  UNL1       -0.3325
     38 H         -29.6997   -5.6981  -13.1920 H       1  UNL1        0.1468
     39 C         -28.7338   -8.0574  -12.1759 C.3     1  UNL1        0.0229
     40 C         -28.7480   -7.5887  -13.6284 C.3     1  UNL1        0.0871
@<TRIPOS>BOND
     1    39    40    1
     2    40    37    1
     3    37    27    1
     4    27    28   ar
     5    28    29   ar
     6    29    33    1
     7    33    34    1
     8    33    35    2
     9    33    36    2
    10    29    30   ar
    11    30    31   ar
    12    31    32   ar
    13    32     1    1
    14     1     2    2
    15     1     3   am
    16     3     4    1
    17     4     5    1
    18     5     6    1
    19     6     7    1
    20     7     8   ar
    21     8     9    1
    22     8    10   ar
    23    10    11   ar
    24    11    17    1
    25    17    18   ar
    26    18    19   ar
    27    19    20   ar
    28    20    21   ar
    29    21    22   ar
    30    22    23   ar
    31    23    24   ar
    32    24    25   ar
    33    11    12   ar
    34    12    13   ar
    35    13    14    1
    36    32    27   ar
    37    14     3    1
    38    13     7   ar
    39    25    17   ar
    40    24    20   ar
    41    37    38    1
    42     9    15    1
    43     9    16    1
    44    23    26    1
