@<TRIPOS>MOLECULE
*****
 47 52 0 0 0
SMALL
GASTEIGER

@<TRIPOS>ATOM
      1 C          59.1866   89.4178    6.6431 C.ar    1  UNL1        0.0702
      2 C          60.4933   89.6403    6.1817 C.ar    1  UNL1        0.0191
      3 C          60.7397   90.6223    5.2210 C.ar    1  UNL1        0.0356
      4 C          59.6714   91.3792    4.7116 C.ar    1  UNL1        0.1318
      5 N          58.4087   91.1233    5.1537 N.ar    1  UNL1       -0.2279
      6 C          58.1453   90.1716    6.0876 C.ar    1  UNL1        0.1149
      7 N          59.8842   92.4013    3.7166 N.pl3   1  UNL1       -0.2932
      8 C          60.7864   92.1704    2.5790 C.3     1  UNL1        0.0923
      9 C          61.5571   93.4498    2.2301 C.3     1  UNL1        0.0252
     10 C          60.6316   94.6744    2.0780 C.3     1  UNL1        0.0472
     11 C          59.7507   94.8363    3.3321 C.3     1  UNL1        0.0252
     12 C          58.9772   93.5561    3.6656 C.3     1  UNL1        0.0923
     13 C          59.7929   94.6254    0.7868 C.3     1  UNL1        0.2054
     14 O          60.4870   93.8838   -0.2141 O.3     1  UNL1       -0.4755
     15 C          61.8444   94.0471   -0.5274 C.ar    1  UNL1        0.1388
     16 C          62.1739   94.7029   -1.7180 C.ar    1  UNL1        0.0369
     17 C          63.5098   94.8923   -2.0756 C.ar    1  UNL1        0.0033
     18 C          64.5317   94.4273   -1.2454 C.ar    1  UNL1        0.0066
     19 C          64.2254   93.7647   -0.0435 C.ar    1  UNL1        0.0785
     20 C          62.8764   93.5776    0.3097 C.ar    1  UNL1        0.0433
     21 C          65.3051   93.2700    0.8397 C.2     1  UNL1        0.3381
     22 O          66.4944   93.2135    0.4244 O.2     1  UNL1       -0.2451
     23 O          65.0177   92.8615    2.1397 O.3     1  UNL1       -0.4771
     24 H          65.7495   92.5213    2.7520 H       1  UNL1        0.2954
     25 C          59.8019   87.9680    8.6346 C.2     1  UNL1        0.2839
     26 O          60.8376   88.6413    8.8825 O.2     1  UNL1       -0.2665
     27 N          58.8887   88.3979    7.6120 N.am    1  UNL1       -0.2766
     28 H          57.9185   88.0092    7.6283 H       1  UNL1        0.1553
     29 C          59.5351   83.2802   10.4673 C.ar    1  UNL1        0.0374
     30 C          58.6962   82.7823   11.5084 C.ar    1  UNL1        0.0029
     31 C          57.8099   83.6580   12.1807 C.ar    1  UNL1        0.0032
     32 C          57.7223   85.0087   11.8218 C.ar    1  UNL1        0.0375
     33 C          58.5449   85.4705   10.8036 C.ar    1  UNL1        0.1453
     34 O          58.5987   86.6940   10.3423 O.2     1  UNL1       -0.4492
     35 C          59.5149   86.7360    9.3963 C.ar    1  UNL1        0.1946
     36 C          60.1095   85.4751    9.2505 C.ar    1  UNL1        0.0203
     37 C          61.2456   85.1079    8.3387 C.3     1  UNL1        0.0345
     38 C          59.4354   84.6520   10.1509 C.ar    1  UNL1        0.0364
     39 C          58.6903   81.3518   11.8908 C.ar    1  UNL1        0.0001
     40 C          58.1951   80.3785   11.0061 C.ar    1  UNL1        0.0000
     41 C          58.1890   79.0298   11.3749 C.ar    1  UNL1        0.0000
     42 C          58.6678   78.6447   12.6300 C.ar    1  UNL1        0.0000
     43 C          59.1500   79.6081   13.5202 C.ar    1  UNL1        0.0000
     44 C          59.1583   80.9580   13.1554 C.ar    1  UNL1        0.0000
     45 C          61.8672   82.1849   10.2239 C.3     1  UNL1        0.0773
     46 C          60.4648   82.3892    9.7441 C.2     1  UNL1        0.1736
     47 O          60.0633   81.7654    8.7259 O.2     1  UNL1       -0.2913
@<TRIPOS>BOND
     1    45    46    1
     2    46    47    2
     3    46    29    1
     4    29    30   ar
     5    30    39    1
     6    39    40   ar
     7    40    41   ar
     8    41    42   ar
     9    42    43   ar
    10    43    44   ar
    11    30    31   ar
    12    31    32   ar
    13    32    33   ar
    14    33    34   ar
    15    34    35   ar
    16    35    25    1
    17    25    26    2
    18    25    27   am
    19    27     1    1
    20     1     2   ar
    21     2     3   ar
    22     3     4   ar
    23     4     7    1
    24     7     8    1
    25     8     9    1
    26     9    10    1
    27    10    13    1
    28    13    14    1
    29    14    15    1
    30    15    16   ar
    31    16    17   ar
    32    17    18   ar
    33    18    19   ar
    34    19    21    1
    35    21    22    2
    36    21    23    1
    37    19    20   ar
    38    10    11    1
    39    11    12    1
    40     4     5   ar
    41     5     6   ar
    42    35    36   ar
    43    36    37    1
    44    36    38   ar
    45    38    29   ar
    46    44    39   ar
    47    38    33   ar
    48     6     1   ar
    49    12     7    1
    50    20    15   ar
    51    27    28    1
    52    23    24    1
@<TRIPOS>MOLECULE
*****
 47 52 0 0 0
SMALL
GASTEIGER

@<TRIPOS>ATOM
      1 C          63.3031   87.9691   13.1189 C.ar    1  UNL1        0.0702
      2 C          63.9100   87.8356   14.3774 C.ar    1  UNL1        0.0191
      3 C          64.7188   88.8573   14.8775 C.ar    1  UNL1        0.0356
      4 C          64.9299   90.0147   14.1097 C.ar    1  UNL1        0.1318
      5 N          64.3540   90.1069   12.8788 N.ar    1  UNL1       -0.2279
      6 C          63.5636   89.1244   12.3715 C.ar    1  UNL1        0.1149
      7 N          65.7605   91.0916   14.5899 N.pl3   1  UNL1       -0.2932
      8 C          67.1971   91.1319   14.2801 C.3     1  UNL1        0.0923
      9 C          67.9938   91.6744   15.4732 C.3     1  UNL1        0.0252
     10 C          67.4163   92.9972   16.0171 C.3     1  UNL1        0.0472
     11 C          65.9161   92.8355   16.3303 C.3     1  UNL1        0.0252
     12 C          65.1279   92.3032   15.1287 C.3     1  UNL1        0.0923
     13 C          67.6842   94.1896   15.0793 C.3     1  UNL1        0.2054
     14 O          66.5472   94.4185   14.2495 O.3     1  UNL1       -0.4755
     15 C          66.5264   94.2320   12.8594 C.ar    1  UNL1        0.1388
     16 C          65.5404   94.8917   12.1185 C.ar    1  UNL1        0.0369
     17 C          65.4767   94.7407   10.7324 C.ar    1  UNL1        0.0033
     18 C          66.3994   93.9273   10.0715 C.ar    1  UNL1        0.0066
     19 C          67.3995   93.2535   10.7947 C.ar    1  UNL1        0.0785
     20 C          67.4569   93.4108   12.1917 C.ar    1  UNL1        0.0433
     21 C          68.3798   92.3901   10.0986 C.2     1  UNL1        0.3381
     22 O          68.0357   91.2597    9.6584 O.2     1  UNL1       -0.2451
     23 O          69.6932   92.8185    9.9228 O.3     1  UNL1       -0.4771
     24 H          70.3716   92.2351    9.4478 H       1  UNL1        0.2954
     25 C          62.9139   85.5662   12.3970 C.2     1  UNL1        0.2839
     26 O          63.9623   85.1609   12.9663 O.2     1  UNL1       -0.2665
     27 N          62.4850   86.9280   12.5582 N.am    1  UNL1       -0.2766
     28 H          61.4892   87.1562   12.3367 H       1  UNL1        0.1553
     29 C          60.2921   83.2520    8.7672 C.ar    1  UNL1        0.0374
     30 C          59.5602   82.0298    8.8447 C.ar    1  UNL1        0.0029
     31 C          59.5338   81.2982   10.0565 C.ar    1  UNL1        0.0032
     32 C          60.1967   81.7695   11.1964 C.ar    1  UNL1        0.0375
     33 C          60.8993   82.9625   11.0993 C.ar    1  UNL1        0.1453
     34 O          61.5748   83.5470   12.0557 O.2     1  UNL1       -0.4492
     35 C          62.1146   84.6444   11.5653 C.ar    1  UNL1        0.1946
     36 C          61.7941   84.7688   10.2065 C.ar    1  UNL1        0.0203
     37 C          62.2677   85.8317    9.2564 C.3     1  UNL1        0.0345
     38 C          60.9670   83.6815    9.9299 C.ar    1  UNL1        0.0364
     39 C          58.7820   81.5104    7.6969 C.ar    1  UNL1        0.0001
     40 C          59.1603   80.3162    7.0599 C.ar    1  UNL1        0.0000
     41 C          58.4234   79.8333    5.9743 C.ar    1  UNL1        0.0000
     42 C          57.3111   80.5420    5.5121 C.ar    1  UNL1        0.0000
     43 C          56.9361   81.7369    6.1322 C.ar    1  UNL1        0.0000
     44 C          57.6702   82.2234    7.2185 C.ar    1  UNL1        0.0000
     45 C          61.3572   83.7620    6.4643 C.3     1  UNL1        0.0773
     46 C          60.3325   84.0398    7.5185 C.2     1  UNL1        0.1736
     47 O          59.4717   84.9384    7.3218 O.2     1  UNL1       -0.2913
@<TRIPOS>BOND
     1    45    46    1
     2    46    47    2
     3    46    29    1
     4    29    30   ar
     5    30    39    1
     6    39    40   ar
     7    40    41   ar
     8    41    42   ar
     9    42    43   ar
    10    43    44   ar
    11    30    31   ar
    12    31    32   ar
    13    32    33   ar
    14    33    34   ar
    15    34    35   ar
    16    35    25    1
    17    25    26    2
    18    25    27   am
    19    27     1    1
    20     1     2   ar
    21     2     3   ar
    22     3     4   ar
    23     4     7    1
    24     7     8    1
    25     8     9    1
    26     9    10    1
    27    10    13    1
    28    13    14    1
    29    14    15    1
    30    15    16   ar
    31    16    17   ar
    32    17    18   ar
    33    18    19   ar
    34    19    21    1
    35    21    22    2
    36    21    23    1
    37    19    20   ar
    38    10    11    1
    39    11    12    1
    40     4     5   ar
    41     5     6   ar
    42    35    36   ar
    43    36    37    1
    44    36    38   ar
    45    38    29   ar
    46    44    39   ar
    47    38    33   ar
    48     6     1   ar
    49    12     7    1
    50    20    15   ar
    51    27    28    1
    52    23    24    1
@<TRIPOS>MOLECULE
*****
 47 52 0 0 0
SMALL
GASTEIGER

@<TRIPOS>ATOM
      1 C          63.3314   88.3592   13.5105 C.ar    1  UNL1        0.0702
      2 C          64.1061   88.2075   14.6710 C.ar    1  UNL1        0.0191
      3 C          65.0073   89.2045   15.0474 C.ar    1  UNL1        0.0356
      4 C          65.1417   90.3554   14.2529 C.ar    1  UNL1        0.1318
      5 N          64.4003   90.4648   13.1155 N.ar    1  UNL1       -0.2279
      6 C          63.5175   89.5064   12.7291 C.ar    1  UNL1        0.1149
      7 N          66.0633   91.4069   14.6064 N.pl3   1  UNL1       -0.2932
      8 C          67.4160   91.4488   14.0322 C.3     1  UNL1        0.0923
      9 C          68.4312   91.9392   15.0721 C.3     1  UNL1        0.0252
     10 C          67.9857   93.2442   15.7634 C.3     1  UNL1        0.0472
     11 C          66.5694   93.0813   16.3484 C.3     1  UNL1        0.0252
     12 C          65.5611   92.6013   15.2990 C.3     1  UNL1        0.0923
     13 C          68.0889   94.4700   14.8360 C.3     1  UNL1        0.2054
     14 O          66.8787   94.6217   14.0970 O.3     1  UNL1       -0.4755
     15 C          66.7411   94.3414   12.7296 C.ar    1  UNL1        0.1388
     16 C          65.6510   94.8924   12.0481 C.ar    1  UNL1        0.0369
     17 C          65.4689   94.6453   10.6865 C.ar    1  UNL1        0.0033
     18 C          66.3760   93.8433    9.9909 C.ar    1  UNL1        0.0066
     19 C          67.4794   93.2779   10.6543 C.ar    1  UNL1        0.0785
     20 C          67.6558   93.5317   12.0270 C.ar    1  UNL1        0.0433
     21 C          68.4436   92.4271    9.9213 C.2     1  UNL1        0.3381
     22 O          68.0971   91.2931    9.4924 O.2     1  UNL1       -0.2451
     23 O          69.7444   92.8713    9.6979 O.3     1  UNL1       -0.4771
     24 H          70.4118   92.2966    9.1974 H       1  UNL1        0.2954
     25 C          61.3460   86.8217   13.8857 C.2     1  UNL1        0.2839
     26 O          61.0149   87.4084   14.9505 O.2     1  UNL1       -0.2665
     27 N          62.4118   87.3431   13.0753 N.am    1  UNL1       -0.2766
     28 H          62.4673   87.0291   12.0798 H       1  UNL1        0.1553
     29 C          59.9127   82.1273   12.7396 C.ar    1  UNL1        0.0374
     30 C          58.7134   81.6992   12.0963 C.ar    1  UNL1        0.0029
     31 C          57.7366   82.6515   11.7175 C.ar    1  UNL1        0.0032
     32 C          57.9397   84.0188   11.9412 C.ar    1  UNL1        0.0375
     33 C          59.1152   84.4130   12.5651 C.ar    1  UNL1        0.1453
     34 O          59.4684   85.6396   12.8541 O.2     1  UNL1       -0.4492
     35 C          60.6383   85.5980   13.4591 C.ar    1  UNL1        0.1946
     36 C          61.0593   84.2680   13.5947 C.ar    1  UNL1        0.0203
     37 C          62.2962   83.7744   14.2899 C.3     1  UNL1        0.0345
     38 C          60.0699   83.5108   12.9697 C.ar    1  UNL1        0.0364
     39 C          58.4668   80.2762   11.7693 C.ar    1  UNL1        0.0001
     40 C          57.8935   79.9157   10.5379 C.ar    1  UNL1        0.0000
     41 C          57.6599   78.5704   10.2369 C.ar    1  UNL1        0.0000
     42 C          57.9880   77.5780   11.1645 C.ar    1  UNL1        0.0000
     43 C          58.5466   77.9294   12.3964 C.ar    1  UNL1        0.0000
     44 C          58.7822   79.2737   12.7014 C.ar    1  UNL1        0.0000
     45 C          62.0058   80.7137   12.1753 C.3     1  UNL1        0.0773
     46 C          60.9521   81.1575   13.1403 C.2     1  UNL1        0.1736
     47 O          60.9730   80.7206   14.3218 O.2     1  UNL1       -0.2913
@<TRIPOS>BOND
     1    45    46    1
     2    46    47    2
     3    46    29    1
     4    29    30   ar
     5    30    39    1
     6    39    40   ar
     7    40    41   ar
     8    41    42   ar
     9    42    43   ar
    10    43    44   ar
    11    30    31   ar
    12    31    32   ar
    13    32    33   ar
    14    33    34   ar
    15    34    35   ar
    16    35    25    1
    17    25    26    2
    18    25    27   am
    19    27     1    1
    20     1     2   ar
    21     2     3   ar
    22     3     4   ar
    23     4     7    1
    24     7     8    1
    25     8     9    1
    26     9    10    1
    27    10    13    1
    28    13    14    1
    29    14    15    1
    30    15    16   ar
    31    16    17   ar
    32    17    18   ar
    33    18    19   ar
    34    19    21    1
    35    21    22    2
    36    21    23    1
    37    19    20   ar
    38    10    11    1
    39    11    12    1
    40     4     5   ar
    41     5     6   ar
    42    35    36   ar
    43    36    37    1
    44    36    38   ar
    45    38    29   ar
    46    44    39   ar
    47    38    33   ar
    48     6     1   ar
    49    12     7    1
    50    20    15   ar
    51    27    28    1
    52    23    24    1
@<TRIPOS>MOLECULE
*****
 47 52 0 0 0
SMALL
GASTEIGER

@<TRIPOS>ATOM
      1 C          63.4883   88.4629   13.5089 C.ar    1  UNL1        0.0702
      2 C          63.5778   89.7034   12.8584 C.ar    1  UNL1        0.0191
      3 C          64.4746   90.6708   13.3143 C.ar    1  UNL1        0.0356
      4 C          65.2791   90.3996   14.4336 C.ar    1  UNL1        0.1318
      5 N          65.1516   89.1996   15.0654 N.ar    1  UNL1       -0.2279
      6 C          64.2847   88.2433   14.6397 C.ar    1  UNL1        0.1149
      7 N          66.2163   91.3735   14.9369 N.pl3   1  UNL1       -0.2932
      8 C          67.6279   91.0223   15.1497 C.3     1  UNL1        0.0923
      9 C          68.1755   91.7147   16.4040 C.3     1  UNL1        0.0252
     10 C          67.8806   93.2286   16.4198 C.3     1  UNL1        0.0472
     11 C          66.3744   93.4808   16.2132 C.3     1  UNL1        0.0252
     12 C          65.8399   92.7936   14.9521 C.3     1  UNL1        0.0923
     13 C          68.7399   94.0094   15.4073 C.3     1  UNL1        0.2054
     14 O          69.2710   93.1155   14.4313 O.3     1  UNL1       -0.4755
     15 C          68.6387   92.7907   13.2222 C.ar    1  UNL1        0.1388
     16 C          69.1664   91.7430   12.4606 C.ar    1  UNL1        0.0369
     17 C          68.5739   91.3792   11.2503 C.ar    1  UNL1        0.0033
     18 C          67.4460   92.0603   10.7880 C.ar    1  UNL1        0.0066
     19 C          66.8974   93.1173   11.5357 C.ar    1  UNL1        0.0785
     20 C          67.5006   93.4780   12.7546 C.ar    1  UNL1        0.0433
     21 C          65.7020   93.8422   11.0497 C.2     1  UNL1        0.3381
     22 O          65.3021   94.8823   11.6400 O.2     1  UNL1       -0.2451
     23 O          65.0065   93.3823    9.9343 O.3     1  UNL1       -0.4771
     24 H          64.1872   93.8712    9.5939 H       1  UNL1        0.2954
     25 C          61.4516   86.9927   13.8793 C.2     1  UNL1        0.2839
     26 O          61.0988   87.6344   14.9047 O.2     1  UNL1       -0.2665
     27 N          62.5583   87.4511   13.0859 N.am    1  UNL1       -0.2766
     28 H          62.6405   87.0915   12.1078 H       1  UNL1        0.1553
     29 C          59.9860   82.3026   12.7570 C.ar    1  UNL1        0.0374
     30 C          58.7501   81.8726   12.1886 C.ar    1  UNL1        0.0029
     31 C          57.7418   82.8210   11.8913 C.ar    1  UNL1        0.0032
     32 C          57.9474   84.1866   12.1227 C.ar    1  UNL1        0.0375
     33 C          59.1586   84.5828   12.6727 C.ar    1  UNL1        0.1453
     34 O          59.5196   85.8081   12.9570 O.2     1  UNL1       -0.4492
     35 C          60.7277   85.7689   13.4815 C.ar    1  UNL1        0.1946
     36 C          61.1685   84.4411   13.5675 C.ar    1  UNL1        0.0203
     37 C          62.4536   83.9491   14.1703 C.3     1  UNL1        0.0345
     38 C          60.1461   83.6839   12.9980 C.ar    1  UNL1        0.0364
     39 C          58.4946   80.4524   11.8562 C.ar    1  UNL1        0.0001
     40 C          57.9870   80.0946   10.5955 C.ar    1  UNL1        0.0000
     41 C          57.7446   78.7520   10.2894 C.ar    1  UNL1        0.0000
     42 C          57.9981   77.7599   11.2404 C.ar    1  UNL1        0.0000
     43 C          58.4908   78.1091   12.5008 C.ar    1  UNL1        0.0000
     44 C          58.7350   79.4505   12.8110 C.ar    1  UNL1        0.0000
     45 C          62.0606   80.9332   12.0367 C.3     1  UNL1        0.0773
     46 C          61.0584   81.3370   13.0717 C.2     1  UNL1        0.1736
     47 O          61.1522   80.8696   14.2378 O.2     1  UNL1       -0.2913
@<TRIPOS>BOND
     1    45    46    1
     2    46    47    2
     3    46    29    1
     4    29    30   ar
     5    30    39    1
     6    39    40   ar
     7    40    41   ar
     8    41    42   ar
     9    42    43   ar
    10    43    44   ar
    11    30    31   ar
    12    31    32   ar
    13    32    33   ar
    14    33    34   ar
    15    34    35   ar
    16    35    25    1
    17    25    26    2
    18    25    27   am
    19    27     1    1
    20     1     2   ar
    21     2     3   ar
    22     3     4   ar
    23     4     7    1
    24     7     8    1
    25     8     9    1
    26     9    10    1
    27    10    13    1
    28    13    14    1
    29    14    15    1
    30    15    16   ar
    31    16    17   ar
    32    17    18   ar
    33    18    19   ar
    34    19    21    1
    35    21    22    2
    36    21    23    1
    37    19    20   ar
    38    10    11    1
    39    11    12    1
    40     4     5   ar
    41     5     6   ar
    42    35    36   ar
    43    36    37    1
    44    36    38   ar
    45    38    29   ar
    46    44    39   ar
    47    38    33   ar
    48     6     1   ar
    49    12     7    1
    50    20    15   ar
    51    27    28    1
    52    23    24    1
@<TRIPOS>MOLECULE
*****
 47 52 0 0 0
SMALL
GASTEIGER

@<TRIPOS>ATOM
      1 C          63.2097   87.8749   13.2657 C.ar    1  UNL1        0.0702
      2 C          63.7546   87.7369   14.5518 C.ar    1  UNL1        0.0191
      3 C          64.5595   88.7452   15.0839 C.ar    1  UNL1        0.0356
      4 C          64.8294   89.8937   14.3211 C.ar    1  UNL1        0.1318
      5 N          64.3134   89.9899   13.0642 N.ar    1  UNL1       -0.2279
      6 C          63.5279   89.0203   12.5255 C.ar    1  UNL1        0.1149
      7 N          65.6582   90.9567   14.8341 N.pl3   1  UNL1       -0.2932
      8 C          67.1229   90.8313   14.8482 C.3     1  UNL1        0.0923
      9 C          67.7100   91.4755   16.1102 C.3     1  UNL1        0.0252
     10 C          67.1854   92.9075   16.3415 C.3     1  UNL1        0.0472
     11 C          65.6444   92.9191   16.3319 C.3     1  UNL1        0.0252
     12 C          65.0685   92.2829   15.0623 C.3     1  UNL1        0.0923
     13 C          67.7757   93.9222   15.3441 C.3     1  UNL1        0.2054
     14 O          68.5631   93.2416   14.3692 O.3     1  UNL1       -0.4755
     15 C          68.1246   92.9189   13.0766 C.ar    1  UNL1        0.1388
     16 C          68.9018   92.0405   12.3146 C.ar    1  UNL1        0.0369
     17 C          68.5093   91.6862   11.0229 C.ar    1  UNL1        0.0033
     18 C          67.3337   92.2072   10.4785 C.ar    1  UNL1        0.0066
     19 C          66.5358   93.0923   11.2249 C.ar    1  UNL1        0.0785
     20 C          66.9385   93.4447   12.5261 C.ar    1  UNL1        0.0433
     21 C          65.2889   93.6473   10.6521 C.2     1  UNL1        0.3381
     22 O          65.0882   94.8922   10.6448 O.2     1  UNL1       -0.2451
     23 O          64.3239   92.7989   10.1149 O.3     1  UNL1       -0.4771
     24 H          63.4673   93.1688    9.7206 H       1  UNL1        0.2954
     25 C          62.8286   85.4890   12.4853 C.2     1  UNL1        0.2839
     26 O          63.8709   85.0708   13.0567 O.2     1  UNL1       -0.2665
     27 N          62.3979   86.8469   12.6726 N.am    1  UNL1       -0.2766
     28 H          61.4045   87.0802   12.4456 H       1  UNL1        0.1553
     29 C          60.2295   83.2665    8.7826 C.ar    1  UNL1        0.0374
     30 C          59.5101   82.0351    8.8206 C.ar    1  UNL1        0.0029
     31 C          59.4916   81.2645   10.0082 C.ar    1  UNL1        0.0032
     32 C          60.1500   81.7054   11.1627 C.ar    1  UNL1        0.0375
     33 C          60.8403   82.9082   11.1042 C.ar    1  UNL1        0.1453
     34 O          61.5101   83.4683   12.0790 O.2     1  UNL1       -0.4492
     35 C          62.0386   84.5865   11.6243 C.ar    1  UNL1        0.1946
     36 C          61.7164   84.7514   10.2702 C.ar    1  UNL1        0.0203
     37 C          62.1788   85.8492    9.3549 C.3     1  UNL1        0.0345
     38 C          60.9003   83.6652    9.9586 C.ar    1  UNL1        0.0364
     39 C          58.7369   81.5451    7.6566 C.ar    1  UNL1        0.0001
     40 C          57.6905   82.3144    7.1199 C.ar    1  UNL1        0.0000
     41 C          56.9620   81.8442    6.0230 C.ar    1  UNL1        0.0000
     42 C          57.2663   80.6015    5.4608 C.ar    1  UNL1        0.0000
     43 C          58.2971   79.8250    5.9969 C.ar    1  UNL1        0.0000
     44 C          59.0285   80.2915    7.0937 C.ar    1  UNL1        0.0000
     45 C          61.2876   83.8605    6.4967 C.3     1  UNL1        0.0773
     46 C          60.2614   84.0946    7.5601 C.2     1  UNL1        0.1736
     47 O          59.3922   84.9912    7.3931 O.2     1  UNL1       -0.2913
@<TRIPOS>BOND
     1    45    46    1
     2    46    47    2
     3    46    29    1
     4    29    30   ar
     5    30    39    1
     6    39    40   ar
     7    40    41   ar
     8    41    42   ar
     9    42    43   ar
    10    43    44   ar
    11    30    31   ar
    12    31    32   ar
    13    32    33   ar
    14    33    34   ar
    15    34    35   ar
    16    35    25    1
    17    25    26    2
    18    25    27   am
    19    27     1    1
    20     1     2   ar
    21     2     3   ar
    22     3     4   ar
    23     4     7    1
    24     7     8    1
    25     8     9    1
    26     9    10    1
    27    10    13    1
    28    13    14    1
    29    14    15    1
    30    15    16   ar
    31    16    17   ar
    32    17    18   ar
    33    18    19   ar
    34    19    21    1
    35    21    22    2
    36    21    23    1
    37    19    20   ar
    38    10    11    1
    39    11    12    1
    40     4     5   ar
    41     5     6   ar
    42    35    36   ar
    43    36    37    1
    44    36    38   ar
    45    38    29   ar
    46    44    39   ar
    47    38    33   ar
    48     6     1   ar
    49    12     7    1
    50    20    15   ar
    51    27    28    1
    52    23    24    1
@<TRIPOS>MOLECULE
*****
 47 52 0 0 0
SMALL
GASTEIGER

@<TRIPOS>ATOM
      1 C          63.0822   88.3176   14.4960 C.ar    1  UNL1        0.0702
      2 C          63.0989   89.0544   15.6905 C.ar    1  UNL1        0.0191
      3 C          64.0217   90.0869   15.8643 C.ar    1  UNL1        0.0356
      4 C          64.9398   90.3774   14.8413 C.ar    1  UNL1        0.1318
      5 N          64.9227   89.6280   13.7041 N.ar    1  UNL1       -0.2279
      6 C          64.0339   88.6175   13.5135 C.ar    1  UNL1        0.1149
      7 N          65.9104   91.4347   14.9832 N.pl3   1  UNL1       -0.2932
      8 C          67.0913   91.4967   14.1097 C.3     1  UNL1        0.0923
      9 C          68.3175   91.9866   14.8900 C.3     1  UNL1        0.0252
     10 C          68.0358   93.2796   15.6826 C.3     1  UNL1        0.0472
     11 C          66.7966   93.0958   16.5800 C.3     1  UNL1        0.0252
     12 C          65.5748   92.6165   15.7890 C.3     1  UNL1        0.0923
     13 C          67.9102   94.5160   14.7724 C.3     1  UNL1        0.2054
     14 O          66.6049   94.5659   14.2001 O.3     1  UNL1       -0.4755
     15 C          66.3041   94.2230   12.8737 C.ar    1  UNL1        0.1388
     16 C          66.9798   94.8924   11.8483 C.ar    1  UNL1        0.0369
     17 C          66.7182   94.5878   10.5115 C.ar    1  UNL1        0.0033
     18 C          65.7767   93.6095   10.1854 C.ar    1  UNL1        0.0066
     19 C          65.0843   92.9232   11.1987 C.ar    1  UNL1        0.0785
     20 C          65.3537   93.2361   12.5438 C.ar    1  UNL1        0.0433
     21 C          64.0854   91.8854   10.8581 C.2     1  UNL1        0.3381
     22 O          63.6977   91.7387    9.6672 O.2     1  UNL1       -0.2451
     23 O          63.5635   91.0599   11.8507 O.3     1  UNL1       -0.4771
     24 H          62.8794   90.3467   11.6279 H       1  UNL1        0.2954
     25 C          62.4869   85.8495   14.5268 C.2     1  UNL1        0.2839
     26 O          63.5309   85.5429   15.1622 O.2     1  UNL1       -0.2665
     27 N          62.1649   87.2296   14.2898 N.am    1  UNL1       -0.2766
     28 H          61.1781   87.4649   14.0375 H       1  UNL1        0.1553
     29 C          60.3807   81.6470   12.7079 C.ar    1  UNL1        0.0374
     30 C          59.0209   81.4266   12.3365 C.ar    1  UNL1        0.0029
     31 C          58.0704   82.4649   12.4876 C.ar    1  UNL1        0.0032
     32 C          58.4491   83.7222   12.9743 C.ar    1  UNL1        0.0375
     33 C          59.7778   83.9155   13.3258 C.ar    1  UNL1        0.1453
     34 O          60.3049   85.0167   13.7973 O.2     1  UNL1       -0.4492
     35 C          61.5834   84.7944   14.0261 C.ar    1  UNL1        0.1946
     36 C          61.9018   83.4665   13.7101 C.ar    1  UNL1        0.0203
     37 C          63.2269   82.7830   13.8936 C.3     1  UNL1        0.0345
     38 C          60.7184   82.9193   13.2171 C.ar    1  UNL1        0.0364
     39 C          58.5683   80.1435   11.7522 C.ar    1  UNL1        0.0001
     40 C          58.7772   78.9342   12.4371 C.ar    1  UNL1        0.0000
     41 C          58.3507   77.7257   11.8781 C.ar    1  UNL1        0.0000
     42 C          57.7218   77.7146   10.6301 C.ar    1  UNL1        0.0000
     43 C          57.5218   78.9117    9.9372 C.ar    1  UNL1        0.0000
     44 C          57.9466   80.1226   10.4927 C.ar    1  UNL1        0.0000
     45 C          62.0739   80.3489   11.2432 C.3     1  UNL1        0.0773
     46 C          61.3955   80.5848   12.5557 C.2     1  UNL1        0.1736
     47 O          61.7198   79.8867   13.5530 O.2     1  UNL1       -0.2913
@<TRIPOS>BOND
     1    45    46    1
     2    46    47    2
     3    46    29    1
     4    29    30   ar
     5    30    39    1
     6    39    40   ar
     7    40    41   ar
     8    41    42   ar
     9    42    43   ar
    10    43    44   ar
    11    30    31   ar
    12    31    32   ar
    13    32    33   ar
    14    33    34   ar
    15    34    35   ar
    16    35    25    1
    17    25    26    2
    18    25    27   am
    19    27     1    1
    20     1     2   ar
    21     2     3   ar
    22     3     4   ar
    23     4     7    1
    24     7     8    1
    25     8     9    1
    26     9    10    1
    27    10    13    1
    28    13    14    1
    29    14    15    1
    30    15    16   ar
    31    16    17   ar
    32    17    18   ar
    33    18    19   ar
    34    19    21    1
    35    21    22    2
    36    21    23    1
    37    19    20   ar
    38    10    11    1
    39    11    12    1
    40     4     5   ar
    41     5     6   ar
    42    35    36   ar
    43    36    37    1
    44    36    38   ar
    45    38    29   ar
    46    44    39   ar
    47    38    33   ar
    48     6     1   ar
    49    12     7    1
    50    20    15   ar
    51    27    28    1
    52    23    24    1
@<TRIPOS>MOLECULE
*****
 47 52 0 0 0
SMALL
GASTEIGER

@<TRIPOS>ATOM
      1 C          62.5929   88.8053   11.2449 C.ar    1  UNL1        0.0702
      2 C          62.4876   89.6462   10.1261 C.ar    1  UNL1        0.0191
      3 C          63.3295   90.7521    9.9987 C.ar    1  UNL1        0.0356
      4 C          64.2753   91.0241   11.0013 C.ar    1  UNL1        0.1318
      5 N          64.3371   90.2100   12.0916 N.ar    1  UNL1       -0.2279
      6 C          63.5269   89.1284   12.2371 C.ar    1  UNL1        0.1149
      7 N          65.1617   92.1580   10.9079 N.pl3   1  UNL1       -0.2932
      8 C          64.6831   93.5160   11.2048 C.3     1  UNL1        0.0923
      9 C          65.3294   94.5370   10.2602 C.3     1  UNL1        0.0252
     10 C          66.8642   94.3958   10.1980 C.3     1  UNL1        0.0472
     11 C          67.2529   92.9440    9.8573 C.3     1  UNL1        0.0252
     12 C          66.6105   91.9331   10.8133 C.3     1  UNL1        0.0923
     13 C          67.5565   94.8918   11.4816 C.3     1  UNL1        0.2054
     14 O          66.6810   94.7343   12.5963 O.3     1  UNL1       -0.4755
     15 C          66.8142   93.7418   13.5784 C.ar    1  UNL1        0.1388
     16 C          68.0042   93.0081   13.6200 C.ar    1  UNL1        0.0369
     17 C          68.1875   92.0101   14.5784 C.ar    1  UNL1        0.0033
     18 C          67.1814   91.7346   15.5066 C.ar    1  UNL1        0.0066
     19 C          65.9761   92.4584   15.4846 C.ar    1  UNL1        0.0785
     20 C          65.7990   93.4627   14.5152 C.ar    1  UNL1        0.0433
     21 C          64.9066   92.1700   16.4664 C.2     1  UNL1        0.3381
     22 O          64.1430   91.1794   16.3064 O.2     1  UNL1       -0.2451
     23 O          64.7332   92.9909   17.5779 O.3     1  UNL1       -0.4771
     24 H          64.0042   92.8021   18.2555 H       1  UNL1        0.2954
     25 C          61.4856   87.0363   12.6910 C.2     1  UNL1        0.2839
     26 O          61.8452   87.5977   13.7601 O.2     1  UNL1       -0.2665
     27 N          61.7263   87.6722   11.4252 N.am    1  UNL1       -0.2766
     28 H          61.1701   87.3477   10.6017 H       1  UNL1        0.1553
     29 C          60.2524   82.1541   12.9122 C.ar    1  UNL1        0.0374
     30 C          58.9667   81.5569   12.7518 C.ar    1  UNL1        0.0029
     31 C          57.8333   82.3726   12.5189 C.ar    1  UNL1        0.0032
     32 C          57.9565   83.7637   12.4163 C.ar    1  UNL1        0.0375
     33 C          59.2172   84.3230   12.5718 C.ar    1  UNL1        0.1453
     34 O          59.5161   85.5956   12.5108 O.2     1  UNL1       -0.4492
     35 C          60.8090   85.7245   12.7301 C.ar    1  UNL1        0.1946
     36 C          61.3802   84.4678   12.9731 C.ar    1  UNL1        0.0203
     37 C          62.8076   84.1756   13.3392 C.3     1  UNL1        0.0345
     38 C          60.3322   83.5606   12.8265 C.ar    1  UNL1        0.0364
     39 C          58.7777   80.0885   12.7811 C.ar    1  UNL1        0.0001
     40 C          58.5345   79.3763   11.5942 C.ar    1  UNL1        0.0000
     41 C          58.3532   77.9904   11.6294 C.ar    1  UNL1        0.0000
     42 C          58.4045   77.3080   12.8479 C.ar    1  UNL1        0.0000
     43 C          58.6332   78.0110   14.0340 C.ar    1  UNL1        0.0000
     44 C          58.8153   79.3971   14.0033 C.ar    1  UNL1        0.0000
     45 C          62.2842   80.8292   12.0099 C.3     1  UNL1        0.0773
     46 C          61.4535   81.3283   13.1499 C.2     1  UNL1        0.1736
     47 O          61.8042   81.0657   14.3311 O.2     1  UNL1       -0.2913
@<TRIPOS>BOND
     1    45    46    1
     2    46    47    2
     3    46    29    1
     4    29    30   ar
     5    30    39    1
     6    39    40   ar
     7    40    41   ar
     8    41    42   ar
     9    42    43   ar
    10    43    44   ar
    11    30    31   ar
    12    31    32   ar
    13    32    33   ar
    14    33    34   ar
    15    34    35   ar
    16    35    25    1
    17    25    26    2
    18    25    27   am
    19    27     1    1
    20     1     2   ar
    21     2     3   ar
    22     3     4   ar
    23     4     7    1
    24     7     8    1
    25     8     9    1
    26     9    10    1
    27    10    13    1
    28    13    14    1
    29    14    15    1
    30    15    16   ar
    31    16    17   ar
    32    17    18   ar
    33    18    19   ar
    34    19    21    1
    35    21    22    2
    36    21    23    1
    37    19    20   ar
    38    10    11    1
    39    11    12    1
    40     4     5   ar
    41     5     6   ar
    42    35    36   ar
    43    36    37    1
    44    36    38   ar
    45    38    29   ar
    46    44    39   ar
    47    38    33   ar
    48     6     1   ar
    49    12     7    1
    50    20    15   ar
    51    27    28    1
    52    23    24    1
@<TRIPOS>MOLECULE
*****
 47 52 0 0 0
SMALL
GASTEIGER

@<TRIPOS>ATOM
      1 C          60.8613   89.5790    9.8110 C.ar    1  UNL1        0.0702
      2 C          61.8051   88.5404    9.7874 C.ar    1  UNL1        0.0191
      3 C          62.1976   87.9227   10.9758 C.ar    1  UNL1        0.0356
      4 C          61.6503   88.3534   12.1960 C.ar    1  UNL1        0.1318
      5 N          60.7590   89.3833   12.1950 N.ar    1  UNL1       -0.2279
      6 C          60.3631   90.0000   11.0503 C.ar    1  UNL1        0.1149
      7 N          62.0316   87.7425   13.4457 N.pl3   1  UNL1       -0.2932
      8 C          61.0231   87.4161   14.4643 C.3     1  UNL1        0.0923
      9 C          61.5754   87.6656   15.8733 C.3     1  UNL1        0.0252
     10 C          62.9505   87.0031   16.0950 C.3     1  UNL1        0.0472
     11 C          63.9337   87.4316   14.9884 C.3     1  UNL1        0.0252
     12 C          63.3767   87.1682   13.5852 C.3     1  UNL1        0.0923
     13 C          62.8557   85.4706   16.2200 C.3     1  UNL1        0.2054
     14 O          63.9462   84.8599   15.5333 O.3     1  UNL1       -0.4755
     15 C          63.8447   83.6996   14.7519 C.ar    1  UNL1        0.1388
     16 C          63.5836   82.4874   15.3989 C.ar    1  UNL1        0.0369
     17 C          63.4719   81.3040   14.6672 C.ar    1  UNL1        0.0033
     18 C          63.6205   81.3201   13.2789 C.ar    1  UNL1        0.0066
     19 C          63.8839   82.5263   12.6059 C.ar    1  UNL1        0.0785
     20 C          63.9951   83.7149   13.3507 C.ar    1  UNL1        0.0433
     21 C          64.0423   82.5485   11.1345 C.2     1  UNL1        0.3381
     22 O          65.0825   83.0325   10.6114 O.2     1  UNL1       -0.2451
     23 O          63.0428   82.0342   10.3123 O.3     1  UNL1       -0.4771
     24 H          63.1415   82.0447    9.3042 H       1  UNL1        0.2954
     25 C          59.7978   89.6139    7.5058 C.2     1  UNL1        0.2839
     26 O          59.3327   88.4501    7.6356 O.2     1  UNL1       -0.2665
     27 N          60.4516   90.2577    8.6115 N.am    1  UNL1       -0.2766
     28 H          60.5560   91.2974    8.5795 H       1  UNL1        0.1553
     29 C          60.5045   91.9135    3.0766 C.ar    1  UNL1        0.0374
     30 C          59.5506   92.6137    2.2797 C.ar    1  UNL1        0.0029
     31 C          58.2034   92.7021    2.7058 C.ar    1  UNL1        0.0032
     32 C          57.7929   92.1326    3.9174 C.ar    1  UNL1        0.0375
     33 C          58.7385   91.4595    4.6785 C.ar    1  UNL1        0.1453
     34 O          58.5336   90.8681    5.8278 O.2     1  UNL1       -0.4492
     35 C          59.6696   90.3276    6.2195 C.ar    1  UNL1        0.1946
     36 C          60.6645   90.5577    5.2594 C.ar    1  UNL1        0.0203
     37 C          62.0786   90.0508    5.2789 C.3     1  UNL1        0.0345
     38 C          60.0473   91.3324    4.2788 C.ar    1  UNL1        0.0364
     39 C          59.9328   93.2962    1.0223 C.ar    1  UNL1        0.0001
     40 C          59.2852   92.9834   -0.1850 C.ar    1  UNL1        0.0000
     41 C          59.6535   93.6289   -1.3693 C.ar    1  UNL1        0.0000
     42 C          60.6747   94.5829   -1.3587 C.ar    1  UNL1        0.0000
     43 C          61.3320   94.8903   -0.1643 C.ar    1  UNL1        0.0000
     44 C          60.9667   94.2472    1.0225 C.ar    1  UNL1        0.0000
     45 C          62.9211   92.8398    3.0759 C.3     1  UNL1        0.0773
     46 C          61.9179   91.8103    2.6607 C.2     1  UNL1        0.1736
     47 O          62.2936   90.8240    1.9728 O.2     1  UNL1       -0.2913
@<TRIPOS>BOND
     1    45    46    1
     2    46    47    2
     3    46    29    1
     4    29    30   ar
     5    30    39    1
     6    39    40   ar
     7    40    41   ar
     8    41    42   ar
     9    42    43   ar
    10    43    44   ar
    11    30    31   ar
    12    31    32   ar
    13    32    33   ar
    14    33    34   ar
    15    34    35   ar
    16    35    25    1
    17    25    26    2
    18    25    27   am
    19    27     1    1
    20     1     2   ar
    21     2     3   ar
    22     3     4   ar
    23     4     7    1
    24     7     8    1
    25     8     9    1
    26     9    10    1
    27    10    13    1
    28    13    14    1
    29    14    15    1
    30    15    16   ar
    31    16    17   ar
    32    17    18   ar
    33    18    19   ar
    34    19    21    1
    35    21    22    2
    36    21    23    1
    37    19    20   ar
    38    10    11    1
    39    11    12    1
    40     4     5   ar
    41     5     6   ar
    42    35    36   ar
    43    36    37    1
    44    36    38   ar
    45    38    29   ar
    46    44    39   ar
    47    38    33   ar
    48     6     1   ar
    49    12     7    1
    50    20    15   ar
    51    27    28    1
    52    23    24    1
