@<TRIPOS>MOLECULE
*****
 42 46 0 0 0
SMALL
GASTEIGER

@<TRIPOS>ATOM
      1 C         -24.8353   50.4957   -8.0575 C.ar    1  UNL1        0.0922
      2 C         -23.5236   50.8491   -7.6663 C.ar    1  UNL1        0.0284
      3 C         -22.7222   51.5321   -8.5777 C.ar    1  UNL1        0.1033
      4 N         -21.4690   51.9783   -8.3812 N.ar    1  UNL1       -0.2134
      5 C         -21.1648   52.5622   -9.5704 C.ar    1  UNL1        0.2019
      6 N         -22.1676   52.4872  -10.4868 N.ar    1  UNL1       -0.2950
      7 C         -22.1880   53.0130  -11.8517 C.3     1  UNL1        0.1333
      8 C         -23.1545   51.8450   -9.8343 C.ar    1  UNL1        0.1173
      9 C         -24.4347   51.4943  -10.2705 C.ar    1  UNL1        0.1897
     10 C         -25.2855   50.8238   -9.3668 C.ar    1  UNL1        0.1782
     11 O         -26.5683   50.4730   -9.8035 O.3     1  UNL1       -0.4682
     12 C         -27.1343   51.0389  -10.9870 C.3     1  UNL1        0.2526
     13 C         -26.0669   51.1534  -12.0810 C.3     1  UNL1        0.2527
     14 O         -24.8916   51.7780  -11.5611 O.3     1  UNL1       -0.4669
     15 N         -26.1435   50.4228   -5.8883 N.am    1  UNL1       -0.2806
     16 C         -25.7093   49.7857   -7.0995 C.2     1  UNL1        0.2526
     17 O         -26.0620   48.6003   -7.3480 O.2     1  UNL1       -0.2697
     18 H         -25.6792   51.3058   -5.5791 H       1  UNL1        0.1552
     19 C         -28.5076   50.1170   -5.1429 C.ar    1  UNL1       -0.0029
     20 C         -27.1159   49.8222   -5.0201 C.ar    1  UNL1        0.0466
     21 C         -26.6559   48.9481   -4.0342 C.ar    1  UNL1        0.0166
     22 C         -27.5401   48.3494   -3.1551 C.ar    1  UNL1        0.0308
     23 C         -28.9071   48.5572   -3.2848 C.ar    1  UNL1        0.1438
     24 F         -29.7161   47.9540   -2.3761 F       1  UNL1       -0.2042
     25 C         -29.4310   49.3719   -4.3204 C.ar    1  UNL1        0.0960
     26 C         -30.9491   49.4345   -4.4636 C.3     1  UNL1        0.4204
     27 F         -31.3338   48.8486   -5.6546 F       1  UNL1       -0.1658
     28 F         -31.4098   50.7398   -4.4642 F       1  UNL1       -0.1658
     29 F         -31.5812   48.8185   -3.4069 F       1  UNL1       -0.1658
     30 C         -29.2882   50.6860   -7.5737 C.3     1  UNL1        0.0047
     31 C         -28.9072   51.1934   -6.1741 C.3     1  UNL1        0.0236
     32 C         -27.9159   52.3641   -6.2136 C.3     1  UNL1        0.0047
     33 N         -19.9199   53.2378   -9.8036 N.pl3   1  UNL1       -0.2814
     34 H         -19.9351   54.2637   -9.9957 H       1  UNL1        0.1551
     35 C         -18.6566   52.6347   -9.4880 C.ar    1  UNL1        0.0889
     36 C         -18.1863   52.6759   -8.1648 C.ar    1  UNL1        0.1543
     37 F         -18.9285   53.2636   -7.1929 F       1  UNL1       -0.2028
     38 C         -16.9600   52.0923   -7.8337 C.ar    1  UNL1        0.0310
     39 C         -16.1877   51.4767   -8.8204 C.ar    1  UNL1        0.0033
     40 C         -16.6338   51.4521  -10.1437 C.ar    1  UNL1        0.0128
     41 C         -17.8607   52.0330  -10.4870 C.ar    1  UNL1        0.0733
     42 CL        -18.3311   52.0578  -12.1827 Cl      1  UNL1       -0.0809
@<TRIPOS>BOND
     1    30    31    1
     2    31    32    1
     3    31    19    1
     4    19    20   ar
     5    20    15    1
     6    15    16   am
     7    16    17    2
     8    16     1    1
     9     1     2   ar
    10     2     3   ar
    11     3     4   ar
    12     4     5   ar
    13     5    33    1
    14    33    35    1
    15    35    36   ar
    16    36    37    1
    17    36    38   ar
    18    38    39   ar
    19    39    40   ar
    20    40    41   ar
    21    41    42    1
    22     5     6   ar
    23     6     7    1
    24     6     8   ar
    25     8     9   ar
    26     9    10   ar
    27    10    11    1
    28    11    12    1
    29    12    13    1
    30    13    14    1
    31    20    21   ar
    32    21    22   ar
    33    22    23   ar
    34    23    24    1
    35    23    25   ar
    36    25    26    1
    37    26    27    1
    38    26    28    1
    39    26    29    1
    40    25    19   ar
    41    10     1   ar
    42     8     3   ar
    43    14     9    1
    44    41    35   ar
    45    15    18    1
    46    33    34    1
@<TRIPOS>MOLECULE
*****
 42 46 0 0 0
SMALL
GASTEIGER

@<TRIPOS>ATOM
      1 C         -24.9792   50.3819   -8.2751 C.ar    1  UNL1        0.0922
      2 C         -23.6933   50.7366   -7.8070 C.ar    1  UNL1        0.0284
      3 C         -22.8659   51.4808   -8.6442 C.ar    1  UNL1        0.1033
      4 N         -21.6316   51.9375   -8.3681 N.ar    1  UNL1       -0.2134
      5 C         -21.2866   52.5889   -9.5101 C.ar    1  UNL1        0.2019
      6 N         -22.2462   52.5454  -10.4737 N.ar    1  UNL1       -0.2950
      7 C         -22.2165   53.1425  -11.8088 C.3     1  UNL1        0.1333
      8 C         -23.2482   51.8525   -9.9010 C.ar    1  UNL1        0.1173
      9 C         -24.5007   51.5033  -10.4124 C.ar    1  UNL1        0.1897
     10 C         -25.3774   50.7712   -9.5845 C.ar    1  UNL1        0.1782
     11 O         -26.6324   50.4219  -10.0965 O.3     1  UNL1       -0.4682
     12 C         -27.1564   51.0401  -11.2731 C.3     1  UNL1        0.2526
     13 C         -26.0441   51.2309  -12.3103 C.3     1  UNL1        0.2527
     14 O         -24.9055   51.8473  -11.7058 O.3     1  UNL1       -0.4669
     15 N         -26.1046   48.2070   -7.6228 N.am    1  UNL1       -0.2806
     16 C         -25.8806   49.6070   -7.3961 C.2     1  UNL1        0.2526
     17 O         -26.4690   50.1923   -6.4460 O.2     1  UNL1       -0.2697
     18 H         -25.8001   47.7790   -8.5255 H       1  UNL1        0.1552
     19 C         -28.1143   46.8424   -7.0418 C.ar    1  UNL1       -0.0029
     20 C         -26.8439   47.3960   -6.6976 C.ar    1  UNL1        0.0466
     21 C         -26.2881   47.1768   -5.4364 C.ar    1  UNL1        0.0166
     22 C         -26.9577   46.4182   -4.4935 C.ar    1  UNL1        0.0308
     23 C         -28.1631   45.8066   -4.8126 C.ar    1  UNL1        0.1438
     24 F         -28.7756   45.0925   -3.8334 F       1  UNL1       -0.2042
     25 C         -28.7300   45.9315   -6.1063 C.ar    1  UNL1        0.0960
     26 C         -29.9862   45.1173   -6.4031 C.3     1  UNL1        0.4204
     27 F         -31.0953   45.9417   -6.3890 F       1  UNL1       -0.1658
     28 F         -30.1852   44.1217   -5.4623 F       1  UNL1       -0.1658
     29 F         -29.8930   44.4697   -7.6145 F       1  UNL1       -0.1658
     30 C         -27.8305   46.9685   -9.6390 C.3     1  UNL1        0.0047
     31 C         -28.7074   47.2466   -8.4082 C.3     1  UNL1        0.0236
     32 C         -29.2880   48.6670   -8.3981 C.3     1  UNL1        0.0047
     33 N         -20.0461   53.2974   -9.6511 N.pl3   1  UNL1       -0.2814
     34 H         -20.0705   54.3370   -9.7412 H       1  UNL1        0.1551
     35 C         -18.7815   52.6794   -9.3721 C.ar    1  UNL1        0.0889
     36 C         -18.2781   52.7045   -8.0607 C.ar    1  UNL1        0.1543
     37 F         -18.9901   53.2911   -7.0657 F       1  UNL1       -0.2028
     38 C         -17.0498   52.1063   -7.7651 C.ar    1  UNL1        0.0310
     39 C         -16.3084   51.4917   -8.7759 C.ar    1  UNL1        0.0033
     40 C         -16.7873   51.4828  -10.0878 C.ar    1  UNL1        0.0128
     41 C         -18.0165   52.0786  -10.3956 C.ar    1  UNL1        0.0733
     42 CL        -18.5286   52.1225  -12.0788 Cl      1  UNL1       -0.0809
@<TRIPOS>BOND
     1    30    31    1
     2    31    32    1
     3    31    19    1
     4    19    20   ar
     5    20    15    1
     6    15    16   am
     7    16    17    2
     8    16     1    1
     9     1     2   ar
    10     2     3   ar
    11     3     4   ar
    12     4     5   ar
    13     5    33    1
    14    33    35    1
    15    35    36   ar
    16    36    37    1
    17    36    38   ar
    18    38    39   ar
    19    39    40   ar
    20    40    41   ar
    21    41    42    1
    22     5     6   ar
    23     6     7    1
    24     6     8   ar
    25     8     9   ar
    26     9    10   ar
    27    10    11    1
    28    11    12    1
    29    12    13    1
    30    13    14    1
    31    20    21   ar
    32    21    22   ar
    33    22    23   ar
    34    23    24    1
    35    23    25   ar
    36    25    26    1
    37    26    27    1
    38    26    28    1
    39    26    29    1
    40    25    19   ar
    41    10     1   ar
    42     8     3   ar
    43    14     9    1
    44    41    35   ar
    45    15    18    1
    46    33    34    1
@<TRIPOS>MOLECULE
*****
 42 46 0 0 0
SMALL
GASTEIGER

@<TRIPOS>ATOM
      1 C         -25.1787   50.4602   -7.9785 C.ar    1  UNL1        0.0922
      2 C         -23.8398   50.8080   -7.6870 C.ar    1  UNL1        0.0284
      3 C         -23.1146   51.5111   -8.6457 C.ar    1  UNL1        0.1033
      4 N         -21.8497   51.9556   -8.5416 N.ar    1  UNL1       -0.2134
      5 C         -21.6425   52.5643   -9.7392 C.ar    1  UNL1        0.2019
      6 N         -22.7158   52.5062  -10.5733 N.ar    1  UNL1       -0.2950
      7 C         -22.8462   53.0597  -11.9210 C.3     1  UNL1        0.1333
      8 C         -23.6468   51.8489   -9.8567 C.ar    1  UNL1        0.1173
      9 C         -24.9578   51.5046  -10.1956 C.ar    1  UNL1        0.1897
     10 C         -25.7329   50.8142   -9.2403 C.ar    1  UNL1        0.1782
     11 O         -27.0466   50.4699   -9.5794 O.3     1  UNL1       -0.4682
     12 C         -27.7062   51.0589  -10.7015 C.3     1  UNL1        0.2526
     13 C         -26.7305   51.1978  -11.8754 C.3     1  UNL1        0.2527
     14 O         -25.5173   51.8139  -11.4390 O.3     1  UNL1       -0.4669
     15 N         -26.3703   50.3653   -5.7440 N.am    1  UNL1       -0.2806
     16 C         -25.9724   49.7291   -6.9681 C.2     1  UNL1        0.2526
     17 O         -26.2879   48.5268   -7.1834 O.2     1  UNL1       -0.2697
     18 H         -25.9279   51.2709   -5.4700 H       1  UNL1        0.1552
     19 C         -28.6813   49.9530   -4.8908 C.ar    1  UNL1       -0.0029
     20 C         -27.2714   49.7381   -4.8194 C.ar    1  UNL1        0.0466
     21 C         -26.7236   48.9194   -3.8309 C.ar    1  UNL1        0.0166
     22 C         -27.5363   48.2993   -2.8994 C.ar    1  UNL1        0.0308
     23 C         -28.9170   48.4285   -2.9764 C.ar    1  UNL1        0.1438
     24 F         -29.6532   47.8088   -2.0183 F       1  UNL1       -0.2042
     25 C         -29.5273   49.1830   -4.0102 C.ar    1  UNL1        0.0960
     26 C         -31.0511   49.1586   -4.0904 C.3     1  UNL1        0.4204
     27 F         -31.5689   50.3239   -3.5577 F       1  UNL1       -0.1658
     28 F         -31.5840   48.0949   -3.3828 F       1  UNL1       -0.1658
     29 F         -31.4854   48.9966   -5.3868 F       1  UNL1       -0.1658
     30 C         -30.1553   52.0482   -5.4191 C.3     1  UNL1        0.0047
     31 C         -29.1820   50.9757   -5.9326 C.3     1  UNL1        0.0236
     32 C         -29.6614   50.3065   -7.2277 C.3     1  UNL1        0.0047
     33 N         -20.4206   53.2469  -10.0579 N.pl3   1  UNL1       -0.2814
     34 H         -20.4685   54.2449  -10.3602 H       1  UNL1        0.1551
     35 C         -19.1371   52.7194   -9.6924 C.ar    1  UNL1        0.0889
     36 C         -18.3738   52.0385  -10.6555 C.ar    1  UNL1        0.1543
     37 F         -18.8385   51.8981  -11.9226 F       1  UNL1       -0.2028
     38 C         -17.1195   51.5189  -10.3229 C.ar    1  UNL1        0.0310
     39 C         -16.6234   51.6615   -9.0258 C.ar    1  UNL1        0.0033
     40 C         -17.3845   52.3146   -8.0537 C.ar    1  UNL1        0.0128
     41 C         -18.6422   52.8394   -8.3755 C.ar    1  UNL1        0.0733
     42 CL        -19.5996   53.5685   -7.0915 Cl      1  UNL1       -0.0809
@<TRIPOS>BOND
     1    30    31    1
     2    31    32    1
     3    31    19    1
     4    19    20   ar
     5    20    15    1
     6    15    16   am
     7    16    17    2
     8    16     1    1
     9     1     2   ar
    10     2     3   ar
    11     3     4   ar
    12     4     5   ar
    13     5    33    1
    14    33    35    1
    15    35    36   ar
    16    36    37    1
    17    36    38   ar
    18    38    39   ar
    19    39    40   ar
    20    40    41   ar
    21    41    42    1
    22     5     6   ar
    23     6     7    1
    24     6     8   ar
    25     8     9   ar
    26     9    10   ar
    27    10    11    1
    28    11    12    1
    29    12    13    1
    30    13    14    1
    31    20    21   ar
    32    21    22   ar
    33    22    23   ar
    34    23    24    1
    35    23    25   ar
    36    25    26    1
    37    26    27    1
    38    26    28    1
    39    26    29    1
    40    25    19   ar
    41    10     1   ar
    42     8     3   ar
    43    14     9    1
    44    41    35   ar
    45    15    18    1
    46    33    34    1
@<TRIPOS>MOLECULE
*****
 42 46 0 0 0
SMALL
GASTEIGER

@<TRIPOS>ATOM
      1 C         -24.8996   50.4296   -8.3334 C.ar    1  UNL1        0.0922
      2 C         -23.6159   50.8471   -7.9136 C.ar    1  UNL1        0.0284
      3 C         -22.8558   51.6257   -8.7826 C.ar    1  UNL1        0.1033
      4 N         -21.6354   52.1417   -8.5531 N.ar    1  UNL1       -0.2134
      5 C         -21.3634   52.8033   -9.7089 C.ar    1  UNL1        0.2019
      6 N         -22.3542   52.7098  -10.6367 N.ar    1  UNL1       -0.2950
      7 C         -22.4014   53.3014  -11.9738 C.3     1  UNL1        0.1333
      8 C         -23.3007   51.9729  -10.0258 C.ar    1  UNL1        0.1173
      9 C         -24.5528   51.5623  -10.4902 C.ar    1  UNL1        0.1897
     10 C         -25.3631   50.7934   -9.6286 C.ar    1  UNL1        0.1782
     11 O         -26.6179   50.3826  -10.0935 O.3     1  UNL1       -0.4682
     12 C         -27.2130   50.9696  -11.2520 C.3     1  UNL1        0.2526
     13 C         -26.1494   51.2081  -12.3296 C.3     1  UNL1        0.2527
     14 O         -25.0202   51.8806  -11.7689 O.3     1  UNL1       -0.4669
     15 N         -26.1186   48.2801   -7.7714 N.am    1  UNL1       -0.2806
     16 C         -25.7307   49.6170   -7.4198 C.2     1  UNL1        0.2526
     17 O         -26.1130   50.1156   -6.3259 O.2     1  UNL1       -0.2697
     18 H         -25.9936   47.9524   -8.7552 H       1  UNL1        0.1552
     19 C         -28.0984   46.9123   -7.1020 C.ar    1  UNL1       -0.0029
     20 C         -26.7867   47.4134   -6.8426 C.ar    1  UNL1        0.0466
     21 C         -26.1183   47.0860   -5.6620 C.ar    1  UNL1        0.0166
     22 C         -26.7140   46.2689   -4.7185 C.ar    1  UNL1        0.0308
     23 C         -27.9601   45.7068   -4.9637 C.ar    1  UNL1        0.1438
     24 F         -28.4943   44.9301   -3.9863 F       1  UNL1       -0.2042
     25 C         -28.6451   45.9429   -6.1825 C.ar    1  UNL1        0.0960
     26 C         -29.9450   45.1781   -6.4160 C.3     1  UNL1        0.4204
     27 F         -30.0815   44.1819   -5.4680 F       1  UNL1       -0.1658
     28 F         -29.9709   44.5820   -7.6651 F       1  UNL1       -0.1658
     29 F         -31.0365   46.0166   -6.3824 F       1  UNL1       -0.1658
     30 C         -28.0966   47.1699   -9.7050 C.3     1  UNL1        0.0047
     31 C         -28.8092   47.4329   -8.3691 C.3     1  UNL1        0.0236
     32 C         -29.2818   48.8853   -8.2213 C.3     1  UNL1        0.0047
     33 N         -20.1640   53.5691   -9.8972 N.pl3   1  UNL1       -0.2814
     34 H         -19.6823   53.5262  -10.8222 H       1  UNL1        0.1551
     35 C         -19.7748   54.6087   -8.9877 C.ar    1  UNL1        0.0889
     36 C         -20.3224   55.8938   -9.1372 C.ar    1  UNL1        0.1543
     37 F         -21.2238   56.1433  -10.1202 F       1  UNL1       -0.2028
     38 C         -19.9602   56.9210   -8.2611 C.ar    1  UNL1        0.0310
     39 C         -19.0400   56.6790   -7.2396 C.ar    1  UNL1        0.0033
     40 C         -18.4703   55.4117   -7.0972 C.ar    1  UNL1        0.0128
     41 C         -18.8258   54.3750   -7.9687 C.ar    1  UNL1        0.0733
     42 CL        -18.0086   52.8250   -7.8048 Cl      1  UNL1       -0.0809
@<TRIPOS>BOND
     1    30    31    1
     2    31    32    1
     3    31    19    1
     4    19    20   ar
     5    20    15    1
     6    15    16   am
     7    16    17    2
     8    16     1    1
     9     1     2   ar
    10     2     3   ar
    11     3     4   ar
    12     4     5   ar
    13     5    33    1
    14    33    35    1
    15    35    36   ar
    16    36    37    1
    17    36    38   ar
    18    38    39   ar
    19    39    40   ar
    20    40    41   ar
    21    41    42    1
    22     5     6   ar
    23     6     7    1
    24     6     8   ar
    25     8     9   ar
    26     9    10   ar
    27    10    11    1
    28    11    12    1
    29    12    13    1
    30    13    14    1
    31    20    21   ar
    32    21    22   ar
    33    22    23   ar
    34    23    24    1
    35    23    25   ar
    36    25    26    1
    37    26    27    1
    38    26    28    1
    39    26    29    1
    40    25    19   ar
    41    10     1   ar
    42     8     3   ar
    43    14     9    1
    44    41    35   ar
    45    15    18    1
    46    33    34    1
@<TRIPOS>MOLECULE
*****
 42 46 0 0 0
SMALL
GASTEIGER

@<TRIPOS>ATOM
      1 C         -26.8133   50.3180   -7.4076 C.ar    1  UNL1        0.0922
      2 C         -25.4376   50.5888   -7.5883 C.ar    1  UNL1        0.0284
      3 C         -24.9896   50.9175   -8.8652 C.ar    1  UNL1        0.1033
      4 N         -23.7346   51.2366   -9.2277 N.ar    1  UNL1       -0.2134
      5 C         -23.8528   51.4640  -10.5625 C.ar    1  UNL1        0.2019
      6 N         -25.1169   51.2914  -11.0352 N.ar    1  UNL1       -0.2950
      7 C         -25.6025   51.4605  -12.4046 C.3     1  UNL1        0.1333
      8 C         -25.8287   50.9611   -9.9413 C.ar    1  UNL1        0.1173
      9 C         -27.1907   50.6777   -9.8125 C.ar    1  UNL1        0.1897
     10 C         -27.6873   50.3653   -8.5295 C.ar    1  UNL1        0.1782
     11 O         -29.0520   50.0820   -8.4002 O.3     1  UNL1       -0.4682
     12 C         -29.9820   50.4036   -9.4359 C.3     1  UNL1        0.2526
     13 C         -29.3680   50.1074  -10.8087 C.3     1  UNL1        0.2527
     14 O         -28.0657   50.6879  -10.9030 O.3     1  UNL1       -0.4669
     15 N         -28.4494   49.1227   -5.8856 N.am    1  UNL1       -0.2806
     16 C         -27.3135   49.9840   -6.0571 C.2     1  UNL1        0.2526
     17 O         -26.7401   50.4772   -5.0475 O.2     1  UNL1       -0.2697
     18 H         -29.0511   48.8981   -6.7093 H       1  UNL1        0.1552
     19 C         -28.5196   47.3452   -4.1323 C.ar    1  UNL1       -0.0029
     20 C         -28.8591   48.6536   -4.5924 C.ar    1  UNL1        0.0466
     21 C         -29.6190   49.5142   -3.7990 C.ar    1  UNL1        0.0166
     22 C         -30.0591   49.1163   -2.5497 C.ar    1  UNL1        0.0308
     23 C         -29.6930   47.8779   -2.0385 C.ar    1  UNL1        0.1438
     24 F         -30.1763   47.5438   -0.8142 F       1  UNL1       -0.2042
     25 C         -28.8551   46.9996   -2.7714 C.ar    1  UNL1        0.0960
     26 C         -28.3996   45.7205   -2.0746 C.3     1  UNL1        0.4204
     27 F         -28.8753   44.6176   -2.7580 F       1  UNL1       -0.1658
     28 F         -28.8703   45.6502   -0.7748 F       1  UNL1       -0.1658
     29 F         -27.0276   45.6610   -1.9761 F       1  UNL1       -0.1658
     30 C         -26.2822   46.6556   -5.2987 C.3     1  UNL1        0.0047
     31 C         -27.7911   46.4192   -5.1292 C.3     1  UNL1        0.0236
     32 C         -28.5305   46.3026   -6.4688 C.3     1  UNL1        0.0047
     33 N         -22.7504   51.8979  -11.3731 N.pl3   1  UNL1       -0.2814
     34 H         -22.8866   51.9727  -12.4054 H       1  UNL1        0.1551
     35 C         -21.5852   52.5139  -10.8056 C.ar    1  UNL1        0.0889
     36 C         -20.4258   51.7444  -10.6119 C.ar    1  UNL1        0.1543
     37 F         -20.4036   50.4373  -10.9753 F       1  UNL1       -0.2028
     38 C         -19.2781   52.3240  -10.0635 C.ar    1  UNL1        0.0310
     39 C         -19.2819   53.6696   -9.6915 C.ar    1  UNL1        0.0033
     40 C         -20.4368   54.4375   -9.8563 C.ar    1  UNL1        0.0128
     41 C         -21.5922   53.8677  -10.4049 C.ar    1  UNL1        0.0733
     42 CL        -23.0472   54.8529  -10.5029 Cl      1  UNL1       -0.0809
@<TRIPOS>BOND
     1    30    31    1
     2    31    32    1
     3    31    19    1
     4    19    20   ar
     5    20    15    1
     6    15    16   am
     7    16    17    2
     8    16     1    1
     9     1     2   ar
    10     2     3   ar
    11     3     4   ar
    12     4     5   ar
    13     5    33    1
    14    33    35    1
    15    35    36   ar
    16    36    37    1
    17    36    38   ar
    18    38    39   ar
    19    39    40   ar
    20    40    41   ar
    21    41    42    1
    22     5     6   ar
    23     6     7    1
    24     6     8   ar
    25     8     9   ar
    26     9    10   ar
    27    10    11    1
    28    11    12    1
    29    12    13    1
    30    13    14    1
    31    20    21   ar
    32    21    22   ar
    33    22    23   ar
    34    23    24    1
    35    23    25   ar
    36    25    26    1
    37    26    27    1
    38    26    28    1
    39    26    29    1
    40    25    19   ar
    41    10     1   ar
    42     8     3   ar
    43    14     9    1
    44    41    35   ar
    45    15    18    1
    46    33    34    1
@<TRIPOS>MOLECULE
*****
 42 46 0 0 0
SMALL
GASTEIGER

@<TRIPOS>ATOM
      1 C         -25.0626   50.4567   -8.2233 C.ar    1  UNL1        0.0922
      2 C         -23.7648   50.8482   -7.8219 C.ar    1  UNL1        0.0284
      3 C         -22.9842   51.5721   -8.7197 C.ar    1  UNL1        0.1033
      4 N         -21.7475   52.0573   -8.5118 N.ar    1  UNL1       -0.2134
      5 C         -21.4596   52.6697   -9.6906 C.ar    1  UNL1        0.2019
      6 N         -22.4565   52.5752  -10.6118 N.ar    1  UNL1       -0.2950
      7 C         -22.4906   53.1213  -11.9684 C.3     1  UNL1        0.1333
      8 C         -23.4231   51.8898   -9.9728 C.ar    1  UNL1        0.1173
      9 C         -24.6892   51.5028  -10.4190 C.ar    1  UNL1        0.1897
     10 C         -25.5196   50.7899   -9.5289 C.ar    1  UNL1        0.1782
     11 O         -26.7884   50.4027   -9.9756 O.3     1  UNL1       -0.4682
     12 C         -27.3696   50.9676  -11.1521 C.3     1  UNL1        0.2526
     13 C         -26.3034   51.1352  -12.2405 C.3     1  UNL1        0.2527
     14 O         -25.1515   51.7911  -11.7067 O.3     1  UNL1       -0.4669
     15 N         -26.2271   50.2355   -5.9834 N.am    1  UNL1       -0.2806
     16 C         -25.9149   49.7027   -7.2796 C.2     1  UNL1        0.2526
     17 O         -26.3577   48.5708   -7.6176 O.2     1  UNL1       -0.2697
     18 H         -25.6884   51.0545   -5.6229 H       1  UNL1        0.1552
     19 C         -28.5550   49.9769   -5.1160 C.ar    1  UNL1       -0.0029
     20 C         -27.1764   49.6048   -5.1109 C.ar    1  UNL1        0.0466
     21 C         -26.7058   48.6218   -4.2393 C.ar    1  UNL1        0.0166
     22 C         -27.5664   47.9878   -3.3617 C.ar    1  UNL1        0.0308
     23 C         -28.9255   48.2728   -3.3829 C.ar    1  UNL1        0.1438
     24 F         -29.7096   47.6278   -2.4811 F       1  UNL1       -0.2042
     25 C         -29.4660   49.2044   -4.3051 C.ar    1  UNL1        0.0960
     26 C         -30.9844   49.3535   -4.3430 C.3     1  UNL1        0.4204
     27 F         -31.3240   50.6909   -4.4194 F       1  UNL1       -0.1658
     28 F         -31.5787   48.8287   -3.2083 F       1  UNL1       -0.1658
     29 F         -31.5326   48.6646   -5.4014 F       1  UNL1       -0.1658
     30 C         -29.4415   50.8065   -7.4328 C.3     1  UNL1        0.0047
     31 C         -28.9572   51.1624   -6.0185 C.3     1  UNL1        0.0236
     32 C         -27.9119   52.2858   -6.0113 C.3     1  UNL1        0.0047
     33 N         -20.2376   53.3906   -9.9088 N.pl3   1  UNL1       -0.2814
     34 H         -19.7681   53.3110  -10.8377 H       1  UNL1        0.1551
     35 C         -19.8040   54.4367   -9.0274 C.ar    1  UNL1        0.0889
     36 C         -20.3037   55.7375   -9.2058 C.ar    1  UNL1        0.1543
     37 F         -21.2010   55.9968  -10.1900 F       1  UNL1       -0.2028
     38 C         -19.8977   56.7715   -8.3573 C.ar    1  UNL1        0.0310
     39 C         -18.9811   56.5200   -7.3348 C.ar    1  UNL1        0.0033
     40 C         -18.4587   55.2359   -7.1641 C.ar    1  UNL1        0.0128
     41 C         -18.8584   54.1924   -8.0078 C.ar    1  UNL1        0.0733
     42 CL        -18.0992   52.6170   -7.8099 Cl      1  UNL1       -0.0809
@<TRIPOS>BOND
     1    30    31    1
     2    31    32    1
     3    31    19    1
     4    19    20   ar
     5    20    15    1
     6    15    16   am
     7    16    17    2
     8    16     1    1
     9     1     2   ar
    10     2     3   ar
    11     3     4   ar
    12     4     5   ar
    13     5    33    1
    14    33    35    1
    15    35    36   ar
    16    36    37    1
    17    36    38   ar
    18    38    39   ar
    19    39    40   ar
    20    40    41   ar
    21    41    42    1
    22     5     6   ar
    23     6     7    1
    24     6     8   ar
    25     8     9   ar
    26     9    10   ar
    27    10    11    1
    28    11    12    1
    29    12    13    1
    30    13    14    1
    31    20    21   ar
    32    21    22   ar
    33    22    23   ar
    34    23    24    1
    35    23    25   ar
    36    25    26    1
    37    26    27    1
    38    26    28    1
    39    26    29    1
    40    25    19   ar
    41    10     1   ar
    42     8     3   ar
    43    14     9    1
    44    41    35   ar
    45    15    18    1
    46    33    34    1
@<TRIPOS>MOLECULE
*****
 42 46 0 0 0
SMALL
GASTEIGER

@<TRIPOS>ATOM
      1 C         -24.3751   51.2689   -9.5515 C.ar    1  UNL1        0.0922
      2 C         -24.4021   51.1554   -8.1426 C.ar    1  UNL1        0.0284
      3 C         -25.6366   51.0175   -7.5130 C.ar    1  UNL1        0.1033
      4 N         -25.8633   50.8650   -6.1964 N.ar    1  UNL1       -0.2134
      5 C         -27.2182   50.7785   -6.1298 C.ar    1  UNL1        0.2019
      6 N         -27.8310   50.8792   -7.3404 N.ar    1  UNL1       -0.2950
      7 C         -29.2618   50.8185   -7.6388 C.3     1  UNL1        0.1333
      8 C         -26.8112   51.0136   -8.2088 C.ar    1  UNL1        0.1173
      9 C         -26.8323   51.1467   -9.5994 C.ar    1  UNL1        0.1897
     10 C         -25.5998   51.2630  -10.2759 C.ar    1  UNL1        0.1782
     11 O         -25.6208   51.3956  -11.6692 O.3     1  UNL1       -0.4682
     12 C         -26.7950   51.1034  -12.4288 C.3     1  UNL1        0.2526
     13 C         -28.0404   51.6104  -11.6932 C.3     1  UNL1        0.2527
     14 O         -28.0225   51.1739  -10.3326 O.3     1  UNL1       -0.4669
     15 N         -21.9639   52.0470   -9.6030 N.am    1  UNL1       -0.2806
     16 C         -23.0743   51.3987  -10.2419 C.2     1  UNL1        0.2526
     17 O         -22.9493   50.9455  -11.4126 O.2     1  UNL1       -0.2697
     18 H         -22.1276   52.6103   -8.7388 H       1  UNL1        0.1552
     19 C         -19.4781   52.0998   -9.3652 C.ar    1  UNL1       -0.0029
     20 C         -20.6496   52.0477  -10.1799 C.ar    1  UNL1        0.0466
     21 C         -20.5500   52.0127  -11.5715 C.ar    1  UNL1        0.0166
     22 C         -19.3130   52.0281  -12.1899 C.ar    1  UNL1        0.0308
     23 C         -18.1494   52.0099  -11.4319 C.ar    1  UNL1        0.1438
     24 F         -16.9699   52.0457  -12.1037 F       1  UNL1       -0.2042
     25 C         -18.1965   51.9630  -10.0155 C.ar    1  UNL1        0.0960
     26 C         -16.8710   51.8122   -9.2743 C.3     1  UNL1        0.4204
     27 F         -16.8243   52.6926   -8.2102 F       1  UNL1       -0.1658
     28 F         -15.7910   52.0826  -10.0968 F       1  UNL1       -0.1658
     29 F         -16.6854   50.5223   -8.8303 F       1  UNL1       -0.1658
     30 C         -19.5400   53.6951   -7.2932 C.3     1  UNL1        0.0047
     31 C         -19.6887   52.2689   -7.8456 C.3     1  UNL1        0.0236
     32 C         -18.9129   51.2283   -7.0269 C.3     1  UNL1        0.0047
     33 N         -27.9183   50.5480   -4.8980 N.pl3   1  UNL1       -0.2814
     34 H         -28.7675   51.1184   -4.6902 H       1  UNL1        0.1551
     35 C         -27.6837   49.3809   -4.0969 C.ar    1  UNL1        0.0889
     36 C         -26.5688   49.3458   -3.2427 C.ar    1  UNL1        0.1543
     37 F         -25.7339   50.4124   -3.1633 F       1  UNL1       -0.2028
     38 C         -26.3221   48.2206   -2.4508 C.ar    1  UNL1        0.0310
     39 C         -27.1758   47.1178   -2.5148 C.ar    1  UNL1        0.0033
     40 C         -28.2729   47.1318   -3.3790 C.ar    1  UNL1        0.0128
     41 C         -28.5301   48.2535   -4.1767 C.ar    1  UNL1        0.0733
     42 CL        -29.8693   48.1824   -5.3162 Cl      1  UNL1       -0.0809
@<TRIPOS>BOND
     1    30    31    1
     2    31    32    1
     3    31    19    1
     4    19    20   ar
     5    20    15    1
     6    15    16   am
     7    16    17    2
     8    16     1    1
     9     1     2   ar
    10     2     3   ar
    11     3     4   ar
    12     4     5   ar
    13     5    33    1
    14    33    35    1
    15    35    36   ar
    16    36    37    1
    17    36    38   ar
    18    38    39   ar
    19    39    40   ar
    20    40    41   ar
    21    41    42    1
    22     5     6   ar
    23     6     7    1
    24     6     8   ar
    25     8     9   ar
    26     9    10   ar
    27    10    11    1
    28    11    12    1
    29    12    13    1
    30    13    14    1
    31    20    21   ar
    32    21    22   ar
    33    22    23   ar
    34    23    24    1
    35    23    25   ar
    36    25    26    1
    37    26    27    1
    38    26    28    1
    39    26    29    1
    40    25    19   ar
    41    10     1   ar
    42     8     3   ar
    43    14     9    1
    44    41    35   ar
    45    15    18    1
    46    33    34    1
@<TRIPOS>MOLECULE
*****
 42 46 0 0 0
SMALL
GASTEIGER

@<TRIPOS>ATOM
      1 C         -29.2738   46.9876  -10.2764 C.ar    1  UNL1        0.0922
      2 C         -29.7463   46.1446  -11.3082 C.ar    1  UNL1        0.0284
      3 C         -30.2524   46.7331  -12.4644 C.ar    1  UNL1        0.1033
      4 N         -30.7149   46.1042  -13.5594 N.ar    1  UNL1       -0.2134
      5 C         -31.0771   47.1333  -14.3701 C.ar    1  UNL1        0.2019
      6 N         -30.8666   48.3602  -13.8209 N.ar    1  UNL1       -0.2950
      7 C         -31.1285   49.6731  -14.4103 C.3     1  UNL1        0.1333
      8 C         -30.3272   48.0876  -12.6180 C.ar    1  UNL1        0.1173
      9 C         -29.8935   48.9576  -11.6144 C.ar    1  UNL1        0.1897
     10 C         -29.3506   48.3992  -10.4381 C.ar    1  UNL1        0.1782
     11 O         -28.9155   49.2707   -9.4329 O.3     1  UNL1       -0.4682
     12 C         -28.7151   50.6622   -9.6872 C.3     1  UNL1        0.2526
     13 C         -29.8249   51.1984  -10.5984 C.3     1  UNL1        0.2527
     14 O         -29.9849   50.3475  -11.7351 O.3     1  UNL1       -0.4669
     15 N         -28.8974   47.0148   -7.7705 N.am    1  UNL1       -0.2806
     16 C         -28.7163   46.3839   -9.0474 C.2     1  UNL1        0.2526
     17 O         -28.0614   45.3089   -9.1305 O.2     1  UNL1       -0.2697
     18 H         -29.2395   48.0008   -7.7302 H       1  UNL1        0.1552
     19 C         -27.4813   46.9190   -5.7152 C.ar    1  UNL1       -0.0029
     20 C         -28.5086   46.3762   -6.5452 C.ar    1  UNL1        0.0466
     21 C         -29.1574   45.1913   -6.1949 C.ar    1  UNL1        0.0166
     22 C         -28.8177   44.5182   -5.0355 C.ar    1  UNL1        0.0308
     23 C         -27.8719   45.0488   -4.1678 C.ar    1  UNL1        0.1438
     24 F         -27.5726   44.3260   -3.0578 F       1  UNL1       -0.2042
     25 C         -27.2426   46.2904   -4.4377 C.ar    1  UNL1        0.0960
     26 C         -26.3171   46.8558   -3.3639 C.3     1  UNL1        0.4204
     27 F         -25.0775   46.2505   -3.4451 F       1  UNL1       -0.1658
     28 F         -26.8149   46.6352   -2.0913 F       1  UNL1       -0.1658
     29 F         -26.1857   48.2214   -3.4793 F       1  UNL1       -0.1658
     30 C         -27.5450   49.4585   -6.3386 C.3     1  UNL1        0.0047
     31 C         -26.7314   48.1580   -6.2487 C.3     1  UNL1        0.0236
     32 C         -25.9419   47.8587   -7.5300 C.3     1  UNL1        0.0047
     33 N         -31.5816   46.9299  -15.6985 N.pl3   1  UNL1       -0.2814
     34 H         -32.4165   47.4756  -16.0063 H       1  UNL1        0.1551
     35 C         -30.8195   46.2482  -16.7053 C.ar    1  UNL1        0.0889
     36 C         -30.8181   44.8436  -16.7334 C.ar    1  UNL1        0.1543
     37 F         -31.5452   44.1405  -15.8290 F       1  UNL1       -0.2028
     38 C         -30.0855   44.1584  -17.7069 C.ar    1  UNL1        0.0310
     39 C         -29.3384   44.8669  -18.6497 C.ar    1  UNL1        0.0033
     40 C         -29.3124   46.2630  -18.6156 C.ar    1  UNL1        0.0128
     41 C         -30.0426   46.9600  -17.6453 C.ar    1  UNL1        0.0733
     42 CL        -29.9000   48.7131  -17.5878 Cl      1  UNL1       -0.0809
@<TRIPOS>BOND
     1    30    31    1
     2    31    32    1
     3    31    19    1
     4    19    20   ar
     5    20    15    1
     6    15    16   am
     7    16    17    2
     8    16     1    1
     9     1     2   ar
    10     2     3   ar
    11     3     4   ar
    12     4     5   ar
    13     5    33    1
    14    33    35    1
    15    35    36   ar
    16    36    37    1
    17    36    38   ar
    18    38    39   ar
    19    39    40   ar
    20    40    41   ar
    21    41    42    1
    22     5     6   ar
    23     6     7    1
    24     6     8   ar
    25     8     9   ar
    26     9    10   ar
    27    10    11    1
    28    11    12    1
    29    12    13    1
    30    13    14    1
    31    20    21   ar
    32    21    22   ar
    33    22    23   ar
    34    23    24    1
    35    23    25   ar
    36    25    26    1
    37    26    27    1
    38    26    28    1
    39    26    29    1
    40    25    19   ar
    41    10     1   ar
    42     8     3   ar
    43    14     9    1
    44    41    35   ar
    45    15    18    1
    46    33    34    1
@<TRIPOS>MOLECULE
*****
 42 46 0 0 0
SMALL
GASTEIGER

@<TRIPOS>ATOM
      1 C         -24.7378   51.2513   -9.2171 C.ar    1  UNL1        0.0922
      2 C         -24.6704   51.0312   -7.8223 C.ar    1  UNL1        0.0284
      3 C         -25.8619   50.8827   -7.1170 C.ar    1  UNL1        0.1033
      4 N         -26.0015   50.6368   -5.8024 N.ar    1  UNL1       -0.2134
      5 C         -27.3506   50.5864   -5.6446 C.ar    1  UNL1        0.2019
      6 N         -28.0425   50.7979   -6.7968 N.ar    1  UNL1       -0.2950
      7 C         -29.4919   50.8035   -6.9946 C.3     1  UNL1        0.1333
      8 C         -27.0817   50.9676   -7.7243 C.ar    1  UNL1        0.1173
      9 C         -27.1952   51.2074   -9.0961 C.ar    1  UNL1        0.1897
     10 C         -26.0096   51.3379   -9.8494 C.ar    1  UNL1        0.1782
     11 O         -26.1231   51.5775  -11.2238 O.3     1  UNL1       -0.4682
     12 C         -27.3572   51.3799  -11.9161 C.3     1  UNL1        0.2526
     13 C         -28.5294   51.8664  -11.0567 C.3     1  UNL1        0.2527
     14 O         -28.4319   51.3266   -9.7372 O.3     1  UNL1       -0.4669
     15 N         -22.3430   52.0545   -9.4207 N.am    1  UNL1       -0.2806
     16 C         -23.4846   51.3943   -9.9883 C.2     1  UNL1        0.2526
     17 O         -23.4291   50.9417  -11.1645 O.2     1  UNL1       -0.2697
     18 H         -22.4577   52.6166   -8.5479 H       1  UNL1        0.1552
     19 C         -19.8483   52.1482   -9.3410 C.ar    1  UNL1       -0.0029
     20 C         -21.0678   52.0687  -10.0795 C.ar    1  UNL1        0.0466
     21 C         -21.0555   52.0189  -11.4741 C.ar    1  UNL1        0.0166
     22 C         -19.8604   52.0460  -12.1696 C.ar    1  UNL1        0.0308
     23 C         -18.6512   52.0545  -11.4864 C.ar    1  UNL1        0.1438
     24 F         -17.5170   52.1005  -12.2317 F       1  UNL1       -0.2042
     25 C         -18.6082   52.0234  -10.0695 C.ar    1  UNL1        0.0960
     26 C         -17.2364   51.9015   -9.4119 C.3     1  UNL1        0.4204
     27 F         -17.1261   52.8151   -8.3809 F       1  UNL1       -0.1658
     28 F         -16.2138   52.1505  -10.3110 F       1  UNL1       -0.1658
     29 F         -17.0143   50.6270   -8.9410 F       1  UNL1       -0.1658
     30 C         -19.7663   53.7601   -7.2826 C.3     1  UNL1        0.0047
     31 C         -19.9654   52.3317   -7.8130 C.3     1  UNL1        0.0236
     32 C         -19.1550   51.2876   -7.0333 C.3     1  UNL1        0.0047
     33 N         -27.9707   50.2834   -4.3859 N.pl3   1  UNL1       -0.2814
     34 H         -28.6432   50.9711   -3.9805 H       1  UNL1        0.1551
     35 C         -27.9398   48.9648   -3.8208 C.ar    1  UNL1        0.0889
     36 C         -28.9895   48.0731   -4.0978 C.ar    1  UNL1        0.1543
     37 F         -30.0118   48.4498   -4.9065 F       1  UNL1       -0.2028
     38 C         -28.9789   46.7826   -3.5608 C.ar    1  UNL1        0.0310
     39 C         -27.9305   46.3765   -2.7331 C.ar    1  UNL1        0.0033
     40 C         -26.8945   47.2631   -2.4307 C.ar    1  UNL1        0.0128
     41 C         -26.8944   48.5581   -2.9633 C.ar    1  UNL1        0.0733
     42 CL        -25.6162   49.6650   -2.4751 Cl      1  UNL1       -0.0809
@<TRIPOS>BOND
     1    30    31    1
     2    31    32    1
     3    31    19    1
     4    19    20   ar
     5    20    15    1
     6    15    16   am
     7    16    17    2
     8    16     1    1
     9     1     2   ar
    10     2     3   ar
    11     3     4   ar
    12     4     5   ar
    13     5    33    1
    14    33    35    1
    15    35    36   ar
    16    36    37    1
    17    36    38   ar
    18    38    39   ar
    19    39    40   ar
    20    40    41   ar
    21    41    42    1
    22     5     6   ar
    23     6     7    1
    24     6     8   ar
    25     8     9   ar
    26     9    10   ar
    27    10    11    1
    28    11    12    1
    29    12    13    1
    30    13    14    1
    31    20    21   ar
    32    21    22   ar
    33    22    23   ar
    34    23    24    1
    35    23    25   ar
    36    25    26    1
    37    26    27    1
    38    26    28    1
    39    26    29    1
    40    25    19   ar
    41    10     1   ar
    42     8     3   ar
    43    14     9    1
    44    41    35   ar
    45    15    18    1
    46    33    34    1
