@<TRIPOS>MOLECULE
*****
 47 52 0 0 0
SMALL
GASTEIGER

@<TRIPOS>ATOM
      1 C         -30.3676   47.0944   -5.3790 C.ar    1  UNL1        0.0702
      2 C         -30.3496   48.3357   -4.7242 C.ar    1  UNL1        0.0191
      3 C         -30.3030   48.3923   -3.3305 C.ar    1  UNL1        0.0356
      4 C         -30.2848   47.2003   -2.5871 C.ar    1  UNL1        0.1318
      5 N         -30.3334   46.0089   -3.2453 N.ar    1  UNL1       -0.2279
      6 C         -30.3799   45.9297   -4.6014 C.ar    1  UNL1        0.1149
      7 N         -30.2392   47.2164   -1.1457 N.pl3   1  UNL1       -0.2932
      8 C         -30.5573   46.0104   -0.3674 C.3     1  UNL1        0.0923
      9 C         -31.3159   46.3769    0.9143 C.3     1  UNL1        0.0252
     10 C         -30.6162   47.4933    1.7164 C.3     1  UNL1        0.0472
     11 C         -30.3533   48.7141    0.8135 C.3     1  UNL1        0.0252
     12 C         -29.5858   48.3388   -0.4587 C.3     1  UNL1        0.0923
     13 C         -29.3325   47.0051    2.4140 C.3     1  UNL1        0.2054
     14 O         -28.9537   47.9280    3.4331 O.3     1  UNL1       -0.4755
     15 C         -29.8252   48.8433    4.0413 C.ar    1  UNL1        0.1388
     16 C         -30.3802   48.5052    5.2798 C.ar    1  UNL1        0.0369
     17 C         -31.2523   49.3814    5.9278 C.ar    1  UNL1        0.0033
     18 C         -31.5793   50.6067    5.3434 C.ar    1  UNL1        0.0066
     19 C         -31.0344   50.9688    4.0987 C.ar    1  UNL1        0.0785
     20 C         -30.1563   50.0799    3.4519 C.ar    1  UNL1        0.0433
     21 C         -31.3781   52.2664    3.4752 C.2     1  UNL1        0.3381
     22 O         -31.5750   53.2862    4.1902 O.2     1  UNL1       -0.2451
     23 O         -31.4875   52.3738    2.0911 O.3     1  UNL1       -0.4771
     24 H         -31.7223   53.2573    1.6546 H       1  UNL1        0.2954
     25 C         -29.3163   47.1570   -7.6893 C.2     1  UNL1        0.2839
     26 O         -28.1456   47.1612   -7.2235 O.2     1  UNL1       -0.2665
     27 N         -30.4422   46.9946   -6.8115 N.am    1  UNL1       -0.2766
     28 H         -31.3518   46.6988   -7.2331 H       1  UNL1        0.1553
     29 C         -30.0352   48.8133  -12.3951 C.ar    1  UNL1        0.0374
     30 C         -30.3439   48.0554  -13.5637 C.ar    1  UNL1        0.0029
     31 C         -30.4595   46.6467  -13.4817 C.ar    1  UNL1        0.0032
     32 C         -30.3008   45.9815  -12.2597 C.ar    1  UNL1        0.0375
     33 C         -30.0047   46.7391  -11.1351 C.ar    1  UNL1        0.1453
     34 O         -29.8214   46.2883   -9.9202 O.2     1  UNL1       -0.4492
     35 C         -29.5405   47.3126   -9.1404 C.ar    1  UNL1        0.1946
     36 C         -29.5142   48.4940   -9.8941 C.ar    1  UNL1        0.0203
     37 C         -29.1621   49.8717   -9.4093 C.3     1  UNL1        0.0345
     38 C         -29.8586   48.1047  -11.1874 C.ar    1  UNL1        0.0364
     39 C         -30.5909   48.7025  -14.8726 C.ar    1  UNL1        0.0001
     40 C         -30.0634   48.1507  -16.0525 C.ar    1  UNL1        0.0000
     41 C         -30.2972   48.7687  -17.2846 C.ar    1  UNL1        0.0000
     42 C         -31.0503   49.9444  -17.3468 C.ar    1  UNL1        0.0000
     43 C         -31.5675   50.5062  -16.1763 C.ar    1  UNL1        0.0000
     44 C         -31.3362   49.8912  -14.9419 C.ar    1  UNL1        0.0000
     45 C         -30.9186   51.1656  -11.7751 C.3     1  UNL1        0.0773
     46 C         -29.9147   50.2843  -12.4490 C.2     1  UNL1        0.1736
     47 O         -28.9345   50.8069  -13.0435 O.2     1  UNL1       -0.2913
@<TRIPOS>BOND
     1    45    46    1
     2    46    47    2
     3    46    29    1
     4    29    30   ar
     5    30    39    1
     6    39    40   ar
     7    40    41   ar
     8    41    42   ar
     9    42    43   ar
    10    43    44   ar
    11    30    31   ar
    12    31    32   ar
    13    32    33   ar
    14    33    34   ar
    15    34    35   ar
    16    35    25    1
    17    25    26    2
    18    25    27   am
    19    27     1    1
    20     1     2   ar
    21     2     3   ar
    22     3     4   ar
    23     4     7    1
    24     7     8    1
    25     8     9    1
    26     9    10    1
    27    10    13    1
    28    13    14    1
    29    14    15    1
    30    15    16   ar
    31    16    17   ar
    32    17    18   ar
    33    18    19   ar
    34    19    21    1
    35    21    22    2
    36    21    23    1
    37    19    20   ar
    38    10    11    1
    39    11    12    1
    40     4     5   ar
    41     5     6   ar
    42    35    36   ar
    43    36    37    1
    44    36    38   ar
    45    38    29   ar
    46    44    39   ar
    47    38    33   ar
    48     6     1   ar
    49    12     7    1
    50    20    15   ar
    51    27    28    1
    52    23    24    1
@<TRIPOS>MOLECULE
*****
 47 52 0 0 0
SMALL
GASTEIGER

@<TRIPOS>ATOM
      1 C         -23.8750   52.2974   -9.4182 C.ar    1  UNL1        0.0702
      2 C         -23.6561   51.4205   -8.3444 C.ar    1  UNL1        0.0191
      3 C         -24.4473   50.2800   -8.1984 C.ar    1  UNL1        0.0356
      4 C         -25.4700   50.0207   -9.1261 C.ar    1  UNL1        0.1318
      5 N         -25.6816   50.9030  -10.1419 N.ar    1  UNL1       -0.2279
      6 C         -24.9243   52.0201  -10.3032 C.ar    1  UNL1        0.1149
      7 N         -26.3105   48.8546   -9.0087 N.pl3   1  UNL1       -0.2932
      8 C         -25.9503   47.7531   -8.1041 C.3     1  UNL1        0.0923
      9 C         -26.3234   46.4000   -8.7225 C.3     1  UNL1        0.0252
     10 C         -27.7791   46.3639   -9.2312 C.3     1  UNL1        0.0472
     11 C         -28.0396   47.5444  -10.1868 C.3     1  UNL1        0.0252
     12 C         -27.6736   48.8920   -9.5556 C.3     1  UNL1        0.0923
     13 C         -28.8057   46.3137   -8.0837 C.3     1  UNL1        0.2054
     14 O         -28.2526   45.6179   -6.9686 O.3     1  UNL1       -0.4755
     15 C         -27.9689   46.2039   -5.7262 C.ar    1  UNL1        0.1388
     16 C         -28.6962   47.3372   -5.3482 C.ar    1  UNL1        0.0369
     17 C         -28.4536   47.9576   -4.1217 C.ar    1  UNL1        0.0033
     18 C         -27.4797   47.4507   -3.2589 C.ar    1  UNL1        0.0066
     19 C         -26.7353   46.3128   -3.6169 C.ar    1  UNL1        0.0785
     20 C         -26.9858   45.6933   -4.8551 C.ar    1  UNL1        0.0433
     21 C         -25.7018   45.7719   -2.7057 C.2     1  UNL1        0.3381
     22 O         -24.4861   45.7836   -3.0403 O.2     1  UNL1       -0.2451
     23 O         -26.0625   45.2441   -1.4685 O.3     1  UNL1       -0.4771
     24 H         -25.3629   44.8715   -0.8378 H       1  UNL1        0.2954
     25 C         -21.7284   53.6321   -9.1779 C.2     1  UNL1        0.2839
     26 O         -21.0588   52.6136   -8.8588 O.2     1  UNL1       -0.2665
     27 N         -23.0988   53.4960   -9.5878 N.am    1  UNL1       -0.2766
     28 H         -23.5302   54.2850  -10.1207 H       1  UNL1        0.1553
     29 C         -19.4136   57.9360   -7.9437 C.ar    1  UNL1        0.0374
     30 C         -19.2495   59.1121   -8.7345 C.ar    1  UNL1        0.0029
     31 C         -19.7538   59.1500  -10.0568 C.ar    1  UNL1        0.0032
     32 C         -20.4390   58.0550  -10.5975 C.ar    1  UNL1        0.0375
     33 C         -20.5904   56.9227   -9.8091 C.ar    1  UNL1        0.1453
     34 O         -21.1959   55.8136  -10.1496 O.2     1  UNL1       -0.4492
     35 C         -21.1094   54.9720   -9.1394 C.ar    1  UNL1        0.1946
     36 C         -20.3848   55.5562   -8.0914 C.ar    1  UNL1        0.0203
     37 C         -19.9938   54.9142   -6.7907 C.3     1  UNL1        0.0345
     38 C         -20.0881   56.8448   -8.5322 C.ar    1  UNL1        0.0364
     39 C         -18.5951   60.3283   -8.2002 C.ar    1  UNL1        0.0001
     40 C         -17.1972   60.4653   -8.2459 C.ar    1  UNL1        0.0000
     41 C         -16.5854   61.6146   -7.7363 C.ar    1  UNL1        0.0000
     42 C         -17.3622   62.6294   -7.1707 C.ar    1  UNL1        0.0000
     43 C         -18.7519   62.4948   -7.1101 C.ar    1  UNL1        0.0000
     44 C         -19.3679   61.3471   -7.6188 C.ar    1  UNL1        0.0000
     45 C         -17.6414   57.1339   -6.2368 C.3     1  UNL1        0.0773
     46 C         -18.9037   57.8696   -6.5592 C.2     1  UNL1        0.1736
     47 O         -19.5221   58.4681   -5.6391 O.2     1  UNL1       -0.2913
@<TRIPOS>BOND
     1    45    46    1
     2    46    47    2
     3    46    29    1
     4    29    30   ar
     5    30    39    1
     6    39    40   ar
     7    40    41   ar
     8    41    42   ar
     9    42    43   ar
    10    43    44   ar
    11    30    31   ar
    12    31    32   ar
    13    32    33   ar
    14    33    34   ar
    15    34    35   ar
    16    35    25    1
    17    25    26    2
    18    25    27   am
    19    27     1    1
    20     1     2   ar
    21     2     3   ar
    22     3     4   ar
    23     4     7    1
    24     7     8    1
    25     8     9    1
    26     9    10    1
    27    10    13    1
    28    13    14    1
    29    14    15    1
    30    15    16   ar
    31    16    17   ar
    32    17    18   ar
    33    18    19   ar
    34    19    21    1
    35    21    22    2
    36    21    23    1
    37    19    20   ar
    38    10    11    1
    39    11    12    1
    40     4     5   ar
    41     5     6   ar
    42    35    36   ar
    43    36    37    1
    44    36    38   ar
    45    38    29   ar
    46    44    39   ar
    47    38    33   ar
    48     6     1   ar
    49    12     7    1
    50    20    15   ar
    51    27    28    1
    52    23    24    1
@<TRIPOS>MOLECULE
*****
 47 52 0 0 0
SMALL
GASTEIGER

@<TRIPOS>ATOM
      1 C         -23.8674   52.3376   -9.6987 C.ar    1  UNL1        0.0702
      2 C         -23.9098   51.5909   -8.5110 C.ar    1  UNL1        0.0191
      3 C         -24.7184   50.4567   -8.4246 C.ar    1  UNL1        0.0356
      4 C         -25.4970   50.0730   -9.5293 C.ar    1  UNL1        0.1318
      5 N         -25.4611   50.8316  -10.6600 N.ar    1  UNL1       -0.2279
      6 C         -24.6819   51.9402  -10.7663 C.ar    1  UNL1        0.1149
      7 N         -26.3471   48.9090   -9.4793 N.pl3   1  UNL1       -0.2932
      8 C         -27.7084   48.9447  -10.0332 C.3     1  UNL1        0.0923
      9 C         -28.6682   48.1204   -9.1662 C.3     1  UNL1        0.0252
     10 C         -28.1311   46.7047   -8.8720 C.3     1  UNL1        0.0472
     11 C         -26.7131   46.7858   -8.2740 C.3     1  UNL1        0.0252
     12 C         -25.7598   47.6024   -9.1531 C.3     1  UNL1        0.0923
     13 C         -28.1847   45.7834  -10.1054 C.3     1  UNL1        0.2054
     14 O         -29.5387   45.5961  -10.5119 O.3     1  UNL1       -0.4755
     15 C         -30.1272   46.2114  -11.6265 C.ar    1  UNL1        0.1388
     16 C         -30.9735   47.3034  -11.4089 C.ar    1  UNL1        0.0369
     17 C         -31.5832   47.9520  -12.4840 C.ar    1  UNL1        0.0033
     18 C         -31.3529   47.5149  -13.7900 C.ar    1  UNL1        0.0066
     19 C         -30.5063   46.4190  -14.0341 C.ar    1  UNL1        0.0785
     20 C         -29.8957   45.7705  -12.9449 C.ar    1  UNL1        0.0433
     21 C         -30.2591   45.9518  -15.4167 C.2     1  UNL1        0.3381
     22 O         -30.1099   46.7819  -16.3541 O.2     1  UNL1       -0.2451
     23 O         -30.1887   44.5894  -15.6960 O.3     1  UNL1       -0.4771
     24 H         -30.0200   44.2595  -16.6388 H       1  UNL1        0.2954
     25 C         -21.7384   53.6589   -9.2886 C.2     1  UNL1        0.2839
     26 O         -21.1100   52.6408   -8.8932 O.2     1  UNL1       -0.2665
     27 N         -23.0676   53.5266   -9.8179 N.am    1  UNL1       -0.2766
     28 H         -23.4417   54.3096  -10.4008 H       1  UNL1        0.1553
     29 C         -19.4166   57.9259   -7.9443 C.ar    1  UNL1        0.0374
     30 C         -19.2350   59.1152   -8.7111 C.ar    1  UNL1        0.0029
     31 C         -19.7208   59.1802  -10.0392 C.ar    1  UNL1        0.0032
     32 C         -20.4046   58.0993  -10.6092 C.ar    1  UNL1        0.0375
     33 C         -20.5732   56.9537   -9.8438 C.ar    1  UNL1        0.1453
     34 O         -21.1802   55.8546  -10.2128 O.2     1  UNL1       -0.4492
     35 C         -21.1124   54.9943   -9.2170 C.ar    1  UNL1        0.1946
     36 C         -20.3991   55.5549   -8.1487 C.ar    1  UNL1        0.0203
     37 C         -20.0296   54.8871   -6.8547 C.3     1  UNL1        0.0345
     38 C         -20.0890   56.8496   -8.5617 C.ar    1  UNL1        0.0364
     39 C         -18.5812   60.3176   -8.1457 C.ar    1  UNL1        0.0001
     40 C         -19.3454   61.3199   -7.5241 C.ar    1  UNL1        0.0000
     41 C         -18.7221   62.4545   -6.9957 C.ar    1  UNL1        0.0000
     42 C         -17.3356   62.6006   -7.0915 C.ar    1  UNL1        0.0000
     43 C         -16.5702   61.6142   -7.7195 C.ar    1  UNL1        0.0000
     44 C         -17.1894   60.4778   -8.2491 C.ar    1  UNL1        0.0000
     45 C         -17.6416   57.1335   -6.2356 C.3     1  UNL1        0.0773
     46 C         -18.9262   57.8313   -6.5544 C.2     1  UNL1        0.1736
     47 O         -19.5815   58.3738   -5.6251 O.2     1  UNL1       -0.2913
@<TRIPOS>BOND
     1    45    46    1
     2    46    47    2
     3    46    29    1
     4    29    30   ar
     5    30    39    1
     6    39    40   ar
     7    40    41   ar
     8    41    42   ar
     9    42    43   ar
    10    43    44   ar
    11    30    31   ar
    12    31    32   ar
    13    32    33   ar
    14    33    34   ar
    15    34    35   ar
    16    35    25    1
    17    25    26    2
    18    25    27   am
    19    27     1    1
    20     1     2   ar
    21     2     3   ar
    22     3     4   ar
    23     4     7    1
    24     7     8    1
    25     8     9    1
    26     9    10    1
    27    10    13    1
    28    13    14    1
    29    14    15    1
    30    15    16   ar
    31    16    17   ar
    32    17    18   ar
    33    18    19   ar
    34    19    21    1
    35    21    22    2
    36    21    23    1
    37    19    20   ar
    38    10    11    1
    39    11    12    1
    40     4     5   ar
    41     5     6   ar
    42    35    36   ar
    43    36    37    1
    44    36    38   ar
    45    38    29   ar
    46    44    39   ar
    47    38    33   ar
    48     6     1   ar
    49    12     7    1
    50    20    15   ar
    51    27    28    1
    52    23    24    1
@<TRIPOS>MOLECULE
*****
 47 52 0 0 0
SMALL
GASTEIGER

@<TRIPOS>ATOM
      1 C         -26.5536   51.1986  -10.2438 C.ar    1  UNL1        0.0702
      2 C         -27.6380   51.2648  -11.1323 C.ar    1  UNL1        0.0191
      3 C         -28.5374   50.2012  -11.2211 C.ar    1  UNL1        0.0356
      4 C         -28.3450   49.0605  -10.4238 C.ar    1  UNL1        0.1318
      5 N         -27.2680   49.0085   -9.5916 N.ar    1  UNL1       -0.2279
      6 C         -26.3791   50.0317   -9.4895 C.ar    1  UNL1        0.1149
      7 N         -29.2504   47.9397  -10.4879 N.pl3   1  UNL1       -0.2932
      8 C         -30.7020   48.1345  -10.3604 C.3     1  UNL1        0.0923
      9 C         -31.3369   46.9797   -9.5756 C.3     1  UNL1        0.0252
     10 C         -30.9191   45.5971  -10.1170 C.3     1  UNL1        0.0472
     11 C         -29.3832   45.4932  -10.1860 C.3     1  UNL1        0.0252
     12 C         -28.7599   46.6456  -10.9809 C.3     1  UNL1        0.0923
     13 C         -31.5805   45.2663  -11.4684 C.3     1  UNL1        0.2054
     14 O         -30.6276   45.4026  -12.5206 O.3     1  UNL1       -0.4755
     15 C         -30.8279   46.1635  -13.6817 C.ar    1  UNL1        0.1388
     16 C         -31.3656   47.4475  -13.5463 C.ar    1  UNL1        0.0369
     17 C         -31.5834   48.2460  -14.6702 C.ar    1  UNL1        0.0033
     18 C         -31.2657   47.7683  -15.9432 C.ar    1  UNL1        0.0066
     19 C         -30.7245   46.4806  -16.1049 C.ar    1  UNL1        0.0785
     20 C         -30.5080   45.6819  -14.9670 C.ar    1  UNL1        0.0433
     21 C         -30.3862   45.9698  -17.4523 C.2     1  UNL1        0.3381
     22 O         -30.9054   46.4849  -18.4794 O.2     1  UNL1       -0.2451
     23 O         -29.4899   44.9140  -17.5989 O.3     1  UNL1       -0.4771
     24 H         -29.2519   44.5572  -18.5165 H       1  UNL1        0.2954
     25 C         -24.1996   52.1220  -10.4729 C.2     1  UNL1        0.2839
     26 O         -23.7969   51.1071  -11.1017 O.2     1  UNL1       -0.2665
     27 N         -25.5910   52.2620  -10.1428 N.am    1  UNL1       -0.2766
     28 H         -25.9420   53.2161   -9.8997 H       1  UNL1        0.1553
     29 C         -20.5593   54.9186   -8.3913 C.ar    1  UNL1        0.0374
     30 C         -20.2814   56.3034   -8.5926 C.ar    1  UNL1        0.0029
     31 C         -21.0696   57.0581   -9.4945 C.ar    1  UNL1        0.0032
     32 C         -22.1417   56.4715  -10.1781 C.ar    1  UNL1        0.0375
     33 C         -22.3964   55.1240   -9.9642 C.ar    1  UNL1        0.1453
     34 O         -23.3484   54.4156  -10.5161 O.2     1  UNL1       -0.4492
     35 C         -23.2470   53.1779  -10.0755 C.ar    1  UNL1        0.1946
     36 C         -22.1519   53.0677   -9.2077 C.ar    1  UNL1        0.0203
     37 C         -21.6403   51.8195   -8.5467 C.3     1  UNL1        0.0345
     38 C         -21.6324   54.3579   -9.1166 C.ar    1  UNL1        0.0364
     39 C         -19.2061   57.0008   -7.8507 C.ar    1  UNL1        0.0001
     40 C         -18.3806   56.2949   -6.9589 C.ar    1  UNL1        0.0000
     41 C         -17.3695   56.9602   -6.2588 C.ar    1  UNL1        0.0000
     42 C         -17.1813   58.3335   -6.4368 C.ar    1  UNL1        0.0000
     43 C         -18.0064   59.0447   -7.3123 C.ar    1  UNL1        0.0000
     44 C         -19.0187   58.3833   -8.0147 C.ar    1  UNL1        0.0000
     45 C         -18.5694   53.3314   -7.9239 C.3     1  UNL1        0.0773
     46 C         -19.7582   54.1078   -7.4522 C.2     1  UNL1        0.1736
     47 O         -20.0593   54.0938   -6.2289 O.2     1  UNL1       -0.2913
@<TRIPOS>BOND
     1    45    46    1
     2    46    47    2
     3    46    29    1
     4    29    30   ar
     5    30    39    1
     6    39    40   ar
     7    40    41   ar
     8    41    42   ar
     9    42    43   ar
    10    43    44   ar
    11    30    31   ar
    12    31    32   ar
    13    32    33   ar
    14    33    34   ar
    15    34    35   ar
    16    35    25    1
    17    25    26    2
    18    25    27   am
    19    27     1    1
    20     1     2   ar
    21     2     3   ar
    22     3     4   ar
    23     4     7    1
    24     7     8    1
    25     8     9    1
    26     9    10    1
    27    10    13    1
    28    13    14    1
    29    14    15    1
    30    15    16   ar
    31    16    17   ar
    32    17    18   ar
    33    18    19   ar
    34    19    21    1
    35    21    22    2
    36    21    23    1
    37    19    20   ar
    38    10    11    1
    39    11    12    1
    40     4     5   ar
    41     5     6   ar
    42    35    36   ar
    43    36    37    1
    44    36    38   ar
    45    38    29   ar
    46    44    39   ar
    47    38    33   ar
    48     6     1   ar
    49    12     7    1
    50    20    15   ar
    51    27    28    1
    52    23    24    1
@<TRIPOS>MOLECULE
*****
 47 52 0 0 0
SMALL
GASTEIGER

@<TRIPOS>ATOM
      1 C         -26.4376   50.9684  -10.2050 C.ar    1  UNL1        0.0702
      2 C         -27.6108   51.0497  -10.9712 C.ar    1  UNL1        0.0191
      3 C         -28.4726   49.9548  -11.0517 C.ar    1  UNL1        0.0356
      4 C         -28.1539   48.7684  -10.3700 C.ar    1  UNL1        0.1318
      5 N         -26.9946   48.7051   -9.6579 N.ar    1  UNL1       -0.2279
      6 C         -26.1402   49.7582   -9.5662 C.ar    1  UNL1        0.1149
      7 N         -29.0170   47.6145  -10.4300 N.pl3   1  UNL1       -0.2932
      8 C         -28.7065   46.3996   -9.6625 C.3     1  UNL1        0.0923
      9 C         -29.0799   45.1442  -10.4605 C.3     1  UNL1        0.0252
     10 C         -30.5175   45.2031  -11.0165 C.3     1  UNL1        0.0472
     11 C         -30.7253   46.5008  -11.8213 C.3     1  UNL1        0.0252
     12 C         -30.3595   47.7493  -11.0114 C.3     1  UNL1        0.0923
     13 C         -31.5841   45.0286   -9.9188 C.3     1  UNL1        0.2054
     14 O         -31.0069   44.3957   -8.7785 O.3     1  UNL1       -0.4755
     15 C         -30.9611   44.9583   -7.4945 C.ar    1  UNL1        0.1388
     16 C         -30.6629   44.1198   -6.4155 C.ar    1  UNL1        0.0369
     17 C         -30.6038   44.6299   -5.1176 C.ar    1  UNL1        0.0033
     18 C         -30.8428   45.9858   -4.8845 C.ar    1  UNL1        0.0066
     19 C         -31.1449   46.8486   -5.9530 C.ar    1  UNL1        0.0785
     20 C         -31.2027   46.3265   -7.2583 C.ar    1  UNL1        0.0433
     21 C         -31.3990   48.2865   -5.7109 C.2     1  UNL1        0.3381
     22 O         -31.5675   49.0770   -6.6788 O.2     1  UNL1       -0.2451
     23 O         -31.4546   48.7810   -4.4102 O.3     1  UNL1       -0.4771
     24 H         -31.6278   49.7633   -4.2340 H       1  UNL1        0.2954
     25 C         -24.1291   51.9830  -10.5014 C.2     1  UNL1        0.2839
     26 O         -23.7128   50.9950  -11.1633 O.2     1  UNL1       -0.2665
     27 N         -25.5116   52.0651  -10.1188 N.am    1  UNL1       -0.2766
     28 H         -25.8883   53.0010   -9.8453 H       1  UNL1        0.1553
     29 C         -20.5793   54.9049   -8.4358 C.ar    1  UNL1        0.0374
     30 C         -20.3184   56.2867   -8.6768 C.ar    1  UNL1        0.0029
     31 C         -21.0982   56.9985   -9.6200 C.ar    1  UNL1        0.0032
     32 C         -22.1458   56.3726  -10.3067 C.ar    1  UNL1        0.0375
     33 C         -22.3843   55.0288  -10.0538 C.ar    1  UNL1        0.1453
     34 O         -23.3128   54.2874  -10.6022 O.2     1  UNL1       -0.4492
     35 C         -23.2020   53.0666  -10.1189 C.ar    1  UNL1        0.1946
     36 C         -22.1246   53.0027   -9.2245 C.ar    1  UNL1        0.0203
     37 C         -21.6084   51.7852   -8.5117 C.3     1  UNL1        0.0345
     38 C         -21.6273   54.3034   -9.1650 C.ar    1  UNL1        0.0364
     39 C         -19.2707   57.0253   -7.9355 C.ar    1  UNL1        0.0001
     40 C         -18.4605   56.3646   -6.9964 C.ar    1  UNL1        0.0000
     41 C         -17.4755   57.0688   -6.2972 C.ar    1  UNL1        0.0000
     42 C         -17.2984   58.4364   -6.5235 C.ar    1  UNL1        0.0000
     43 C         -18.1086   59.1031   -7.4465 C.ar    1  UNL1        0.0000
     44 C         -19.0948   58.4027   -8.1482 C.ar    1  UNL1        0.0000
     45 C         -18.5856   53.3526   -7.8763 C.3     1  UNL1        0.0773
     46 C         -19.7865   54.1384   -7.4534 C.2     1  UNL1        0.1736
     47 O         -20.1056   54.1712   -6.2351 O.2     1  UNL1       -0.2913
@<TRIPOS>BOND
     1    45    46    1
     2    46    47    2
     3    46    29    1
     4    29    30   ar
     5    30    39    1
     6    39    40   ar
     7    40    41   ar
     8    41    42   ar
     9    42    43   ar
    10    43    44   ar
    11    30    31   ar
    12    31    32   ar
    13    32    33   ar
    14    33    34   ar
    15    34    35   ar
    16    35    25    1
    17    25    26    2
    18    25    27   am
    19    27     1    1
    20     1     2   ar
    21     2     3   ar
    22     3     4   ar
    23     4     7    1
    24     7     8    1
    25     8     9    1
    26     9    10    1
    27    10    13    1
    28    13    14    1
    29    14    15    1
    30    15    16   ar
    31    16    17   ar
    32    17    18   ar
    33    18    19   ar
    34    19    21    1
    35    21    22    2
    36    21    23    1
    37    19    20   ar
    38    10    11    1
    39    11    12    1
    40     4     5   ar
    41     5     6   ar
    42    35    36   ar
    43    36    37    1
    44    36    38   ar
    45    38    29   ar
    46    44    39   ar
    47    38    33   ar
    48     6     1   ar
    49    12     7    1
    50    20    15   ar
    51    27    28    1
    52    23    24    1
@<TRIPOS>MOLECULE
*****
 47 52 0 0 0
SMALL
GASTEIGER

@<TRIPOS>ATOM
      1 C         -23.8504   52.3028   -9.4131 C.ar    1  UNL1        0.0702
      2 C         -23.6777   51.4612   -8.3032 C.ar    1  UNL1        0.0191
      3 C         -24.4616   50.3149   -8.1640 C.ar    1  UNL1        0.0356
      4 C         -25.4310   50.0143   -9.1354 C.ar    1  UNL1        0.1318
      5 N         -25.5996   50.8630  -10.1873 N.ar    1  UNL1       -0.2279
      6 C         -24.8484   51.9850  -10.3427 C.ar    1  UNL1        0.1149
      7 N         -26.2625   48.8409   -9.0266 N.pl3   1  UNL1       -0.2932
      8 C         -25.9690   47.7979   -8.0329 C.3     1  UNL1        0.0923
      9 C         -26.2668   46.4060   -8.6040 C.3     1  UNL1        0.0252
     10 C         -27.6709   46.3145   -9.2361 C.3     1  UNL1        0.0472
     11 C         -27.8616   47.4353  -10.2763 C.3     1  UNL1        0.0252
     12 C         -27.5719   48.8224   -9.6927 C.3     1  UNL1        0.0923
     13 C         -28.7948   46.3084   -8.1826 C.3     1  UNL1        0.2054
     14 O         -28.3657   47.0013   -7.0123 O.3     1  UNL1       -0.4755
     15 C         -29.1589   47.9004   -6.2844 C.ar    1  UNL1        0.1388
     16 C         -30.2157   47.3859   -5.5263 C.ar    1  UNL1        0.0369
     17 C         -31.0342   48.2378   -4.7830 C.ar    1  UNL1        0.0033
     18 C         -30.8044   49.6151   -4.7899 C.ar    1  UNL1        0.0066
     19 C         -29.7484   50.1561   -5.5445 C.ar    1  UNL1        0.0785
     20 C         -28.9280   49.2906   -6.2912 C.ar    1  UNL1        0.0433
     21 C         -29.5010   51.6153   -5.5550 C.2     1  UNL1        0.3381
     22 O         -30.4360   52.4234   -5.3046 O.2     1  UNL1       -0.2451
     23 O         -28.2314   52.1107   -5.8417 O.3     1  UNL1       -0.4771
     24 H         -28.0518   53.1076   -5.8515 H       1  UNL1        0.2954
     25 C         -21.7021   53.6387   -9.1962 C.2     1  UNL1        0.2839
     26 O         -21.0233   52.6165   -8.9099 O.2     1  UNL1       -0.2665
     27 N         -23.0809   53.5062   -9.5783 N.am    1  UNL1       -0.2766
     28 H         -23.5257   54.3034  -10.0876 H       1  UNL1        0.1553
     29 C         -19.4021   57.9403   -7.9271 C.ar    1  UNL1        0.0374
     30 C         -19.2347   59.1204   -8.7113 C.ar    1  UNL1        0.0029
     31 C         -19.7305   59.1637  -10.0367 C.ar    1  UNL1        0.0032
     32 C         -20.4105   58.0701  -10.5869 C.ar    1  UNL1        0.0375
     33 C         -20.5652   56.9340   -9.8047 C.ar    1  UNL1        0.1453
     34 O         -21.1667   55.8255  -10.1543 O.2     1  UNL1       -0.4492
     35 C         -21.0855   54.9794   -9.1474 C.ar    1  UNL1        0.1946
     36 C         -20.3686   55.5598   -8.0920 C.ar    1  UNL1        0.0203
     37 C         -19.9849   54.9123   -6.7918 C.3     1  UNL1        0.0345
     38 C         -20.0710   56.8508   -8.5249 C.ar    1  UNL1        0.0364
     39 C         -18.5856   60.3351   -8.1672 C.ar    1  UNL1        0.0001
     40 C         -19.3564   61.3579   -7.5887 C.ar    1  UNL1        0.0000
     41 C         -18.7376   62.5039   -7.0802 C.ar    1  UNL1        0.0000
     42 C         -17.3487   62.6409   -7.1531 C.ar    1  UNL1        0.0000
     43 C         -16.5766   61.6337   -7.7384 C.ar    1  UNL1        0.0000
     44 C         -17.1913   60.4858   -8.2480 C.ar    1  UNL1        0.0000
     45 C         -17.6294   57.1496   -6.2153 C.3     1  UNL1        0.0773
     46 C         -18.9010   57.8683   -6.5396 C.2     1  UNL1        0.1736
     47 O         -19.5353   58.4477   -5.6182 O.2     1  UNL1       -0.2913
@<TRIPOS>BOND
     1    45    46    1
     2    46    47    2
     3    46    29    1
     4    29    30   ar
     5    30    39    1
     6    39    40   ar
     7    40    41   ar
     8    41    42   ar
     9    42    43   ar
    10    43    44   ar
    11    30    31   ar
    12    31    32   ar
    13    32    33   ar
    14    33    34   ar
    15    34    35   ar
    16    35    25    1
    17    25    26    2
    18    25    27   am
    19    27     1    1
    20     1     2   ar
    21     2     3   ar
    22     3     4   ar
    23     4     7    1
    24     7     8    1
    25     8     9    1
    26     9    10    1
    27    10    13    1
    28    13    14    1
    29    14    15    1
    30    15    16   ar
    31    16    17   ar
    32    17    18   ar
    33    18    19   ar
    34    19    21    1
    35    21    22    2
    36    21    23    1
    37    19    20   ar
    38    10    11    1
    39    11    12    1
    40     4     5   ar
    41     5     6   ar
    42    35    36   ar
    43    36    37    1
    44    36    38   ar
    45    38    29   ar
    46    44    39   ar
    47    38    33   ar
    48     6     1   ar
    49    12     7    1
    50    20    15   ar
    51    27    28    1
    52    23    24    1
