@<TRIPOS>MOLECULE
*****
 41 45 0 0 0
SMALL
GASTEIGER

@<TRIPOS>ATOM
      1 C         -61.5638  -43.7699  -29.4995 C.3     1  UNL1        0.2392
      2 O         -60.6768  -43.0845  -28.6089 O.3     1  UNL1       -0.4694
      3 C         -60.9170  -43.0323  -27.2334 C.ar    1  UNL1        0.1723
      4 C         -60.2191  -42.1363  -26.4209 C.ar    1  UNL1        0.0398
      5 C         -60.4960  -42.0763  -25.0513 C.ar    1  UNL1        0.0026
      6 C         -61.4663  -42.9234  -24.4825 C.ar    1  UNL1        0.0233
      7 C         -62.1606  -43.8246  -25.3093 C.ar    1  UNL1        0.0393
      8 C         -61.8707  -43.8897  -26.6748 C.ar    1  UNL1        0.1725
      9 O         -62.5270  -44.8063  -27.4998 O.3     1  UNL1       -0.4679
     10 C         -62.0696  -45.0792  -28.8287 C.3     1  UNL1        0.2305
     11 C         -61.7950  -42.8340  -23.0111 C.3     1  UNL1        0.2223
     12 O         -62.5936  -41.6752  -22.7642 O.3     1  UNL1       -0.4715
     13 C         -63.2646  -41.4831  -21.5520 C.ar    1  UNL1        0.1478
     14 C         -63.7495  -40.2137  -21.2347 C.ar    1  UNL1        0.0745
     15 C         -64.4129  -39.9868  -20.0165 C.ar    1  UNL1        0.1500
     16 C         -64.5756  -41.0496  -19.1144 C.ar    1  UNL1        0.0981
     17 I         -65.6070  -40.7168  -17.2884 I       1  UNL1       -0.0362
     18 C         -64.0862  -42.3312  -19.4261 C.ar    1  UNL1        0.1526
     19 C         -63.4534  -42.5599  -20.6682 C.ar    1  UNL1        0.1057
     20 C         -63.0152  -43.9080  -21.1152 C.2     1  UNL1        0.2095
     21 O         -63.1323  -44.9100  -20.3590 O.2     1  UNL1       -0.2884
     22 C         -62.5223  -44.1029  -22.5290 C.3     1  UNL1        0.2169
     23 O         -61.6402  -45.1952  -22.5917 O.3     1  UNL1       -0.3739
     24 H         -62.1984  -46.0138  -22.6579 H       1  UNL1        0.2110
     25 O         -64.9193  -38.7238  -19.6705 O.3     1  UNL1       -0.4708
     26 C         -64.1194  -37.6099  -19.2873 C.3     1  UNL1        0.2525
     27 O         -64.2467  -43.3701  -18.5065 O.3     1  UNL1       -0.4707
     28 C         -65.4726  -44.0851  -18.4059 C.3     1  UNL1        0.2525
     29 C         -63.1906  -45.7268  -29.6092 C.ar    1  UNL1        0.0241
     30 C         -63.9358  -44.9783  -30.5321 C.ar    1  UNL1        0.0026
     31 C         -64.9515  -45.5806  -31.2753 C.ar    1  UNL1        0.0398
     32 C         -65.2411  -46.9477  -31.1094 C.ar    1  UNL1        0.1724
     33 C         -64.5021  -47.7058  -30.1881 C.ar    1  UNL1        0.1722
     34 C         -63.4800  -47.0901  -29.4394 C.ar    1  UNL1        0.0393
     35 O         -66.2531  -47.5888  -31.8415 O.3     1  UNL1       -0.4684
     36 C         -66.1343  -47.9872  -33.2034 C.3     1  UNL1        0.2526
     37 O         -64.8112  -49.0682  -30.0472 O.3     1  UNL1       -0.4684
     38 C         -64.4240  -49.8735  -28.9385 C.3     1  UNL1        0.2526
     39 C         -60.8227  -44.0222  -30.8253 C.3     1  UNL1        0.1897
     40 C         -58.7933  -44.7487  -31.6949 C.3     1  UNL1        0.1743
     41 O         -59.7302  -44.9060  -30.6524 O.3     1  UNL1       -0.3471
@<TRIPOS>BOND
     1    40    41    1
     2    41    39    1
     3    39     1    1
     4     1     2    1
     5     2     3    1
     6     3     4   ar
     7     4     5   ar
     8     5     6   ar
     9     6    11    1
    10    11    12    1
    11    12    13    1
    12    13    14   ar
    13    14    15   ar
    14    15    25    1
    15    25    26    1
    16    15    16   ar
    17    16    17    1
    18    16    18   ar
    19    18    27    1
    20    27    28    1
    21    18    19   ar
    22    19    20    1
    23    20    21    2
    24    20    22    1
    25    22    23    1
    26     6     7   ar
    27     7     8   ar
    28     8     9    1
    29     9    10    1
    30    10    29    1
    31    29    30   ar
    32    30    31   ar
    33    31    32   ar
    34    32    35    1
    35    35    36    1
    36    32    33   ar
    37    33    37    1
    38    37    38    1
    39    33    34   ar
    40    10     1    1
    41    34    29   ar
    42     8     3   ar
    43    22    11    1
    44    19    13   ar
    45    23    24    1
@<TRIPOS>MOLECULE
*****
 41 45 0 0 0
SMALL
GASTEIGER

@<TRIPOS>ATOM
      1 C         -60.9268  -44.9787  -26.9809 C.3     1  UNL1        0.2392
      2 O         -60.2283  -44.9234  -25.7325 O.3     1  UNL1       -0.4694
      3 C         -60.7138  -44.1788  -24.6545 C.ar    1  UNL1        0.1723
      4 C         -59.8986  -43.8993  -23.5557 C.ar    1  UNL1        0.0398
      5 C         -60.3923  -43.1254  -22.5004 C.ar    1  UNL1        0.0026
      6 C         -61.7120  -42.6357  -22.5323 C.ar    1  UNL1        0.0233
      7 C         -62.5256  -42.9261  -23.6421 C.ar    1  UNL1        0.0393
      8 C         -62.0317  -43.7110  -24.6876 C.ar    1  UNL1        0.1725
      9 O         -62.8418  -44.0373  -25.7778 O.3     1  UNL1       -0.4679
     10 C         -62.4591  -45.0448  -26.7202 C.3     1  UNL1        0.2305
     11 C         -62.2352  -41.7674  -21.4127 C.3     1  UNL1        0.2223
     12 O         -62.0189  -40.3907  -21.7278 O.3     1  UNL1       -0.4715
     13 C         -62.6347  -39.3611  -21.0085 C.ar    1  UNL1        0.1478
     14 C         -62.1487  -38.0588  -21.1305 C.ar    1  UNL1        0.0745
     15 C         -62.7365  -37.0067  -20.4072 C.ar    1  UNL1        0.1500
     16 C         -63.8143  -37.2798  -19.5508 C.ar    1  UNL1        0.0981
     17 I         -64.7252  -35.6864  -18.4828 I       1  UNL1       -0.0362
     18 C         -64.3073  -38.5909  -19.4200 C.ar    1  UNL1        0.1526
     19 C         -63.7352  -39.6366  -20.1783 C.ar    1  UNL1        0.1057
     20 C         -64.2754  -41.0213  -20.1807 C.2     1  UNL1        0.2095
     21 O         -65.2437  -41.3392  -19.4386 O.2     1  UNL1       -0.2884
     22 C         -63.7305  -42.0342  -21.1589 C.3     1  UNL1        0.2169
     23 O         -63.8902  -43.3356  -20.6529 O.3     1  UNL1       -0.3739
     24 H         -64.8205  -43.6140  -20.8603 H       1  UNL1        0.2110
     25 O         -62.2765  -35.6844  -20.5134 O.3     1  UNL1       -0.4708
     26 C         -60.9686  -35.3157  -20.9389 C.3     1  UNL1        0.2525
     27 O         -65.3712  -38.8412  -18.5505 O.3     1  UNL1       -0.4707
     28 C         -65.1816  -39.5633  -17.3394 C.3     1  UNL1        0.2525
     29 C         -63.2641  -44.8621  -27.9865 C.ar    1  UNL1        0.0241
     30 C         -63.9976  -45.9319  -28.5203 C.ar    1  UNL1        0.0026
     31 C         -64.7650  -45.7581  -29.6726 C.ar    1  UNL1        0.0398
     32 C         -64.8141  -44.5065  -30.3140 C.ar    1  UNL1        0.1724
     33 C         -64.0835  -43.4295  -29.7887 C.ar    1  UNL1        0.1722
     34 C         -63.3088  -43.6134  -28.6267 C.ar    1  UNL1        0.0393
     35 O         -65.5774  -44.2929  -31.4728 O.3     1  UNL1       -0.4684
     36 C         -65.6345  -45.1896  -32.5775 C.3     1  UNL1        0.2526
     37 O         -64.1552  -42.1919  -30.4481 O.3     1  UNL1       -0.4684
     38 C         -64.8299  -41.0449  -29.9413 C.3     1  UNL1        0.2526
     39 C         -60.4011  -46.1856  -27.7794 C.3     1  UNL1        0.1897
     40 C         -59.7067  -44.7603  -29.4790 C.3     1  UNL1        0.1743
     41 O         -59.3294  -45.8216  -28.6302 O.3     1  UNL1       -0.3471
@<TRIPOS>BOND
     1    40    41    1
     2    41    39    1
     3    39     1    1
     4     1     2    1
     5     2     3    1
     6     3     4   ar
     7     4     5   ar
     8     5     6   ar
     9     6    11    1
    10    11    12    1
    11    12    13    1
    12    13    14   ar
    13    14    15   ar
    14    15    25    1
    15    25    26    1
    16    15    16   ar
    17    16    17    1
    18    16    18   ar
    19    18    27    1
    20    27    28    1
    21    18    19   ar
    22    19    20    1
    23    20    21    2
    24    20    22    1
    25    22    23    1
    26     6     7   ar
    27     7     8   ar
    28     8     9    1
    29     9    10    1
    30    10    29    1
    31    29    30   ar
    32    30    31   ar
    33    31    32   ar
    34    32    35    1
    35    35    36    1
    36    32    33   ar
    37    33    37    1
    38    37    38    1
    39    33    34   ar
    40    10     1    1
    41    34    29   ar
    42     8     3   ar
    43    22    11    1
    44    19    13   ar
    45    23    24    1
@<TRIPOS>MOLECULE
*****
 41 45 0 0 0
SMALL
GASTEIGER

@<TRIPOS>ATOM
      1 C         -68.4282  -56.3004  -23.0054 C.3     1  UNL1        0.2392
      2 O         -67.1735  -56.2463  -22.3180 O.3     1  UNL1       -0.4694
      3 C         -66.2156  -55.2745  -22.6185 C.ar    1  UNL1        0.1723
      4 C         -64.9036  -55.3992  -22.1568 C.ar    1  UNL1        0.0398
      5 C         -63.9510  -54.4325  -22.4946 C.ar    1  UNL1        0.0026
      6 C         -64.3090  -53.3257  -23.2878 C.ar    1  UNL1        0.0233
      7 C         -65.6339  -53.2079  -23.7445 C.ar    1  UNL1        0.0393
      8 C         -66.5850  -54.1697  -23.3930 C.ar    1  UNL1        0.1725
      9 O         -67.9125  -54.0446  -23.8094 O.3     1  UNL1       -0.4679
     10 C         -68.9518  -54.8564  -23.2522 C.3     1  UNL1        0.2305
     11 C         -63.2737  -52.3007  -23.6865 C.3     1  UNL1        0.2223
     12 O         -63.9023  -51.2282  -24.3907 O.3     1  UNL1       -0.4715
     13 C         -63.2419  -50.0212  -24.6438 C.ar    1  UNL1        0.1478
     14 C         -63.7604  -49.1478  -25.6006 C.ar    1  UNL1        0.0745
     15 C         -63.1094  -47.9358  -25.8882 C.ar    1  UNL1        0.1500
     16 C         -61.9238  -47.6147  -25.2091 C.ar    1  UNL1        0.0981
     17 I         -60.9570  -45.7688  -25.6180 I       1  UNL1       -0.0362
     18 C         -61.3933  -48.4921  -24.2459 C.ar    1  UNL1        0.1526
     19 C         -62.0732  -49.6910  -23.9358 C.ar    1  UNL1        0.1057
     20 C         -61.6375  -50.6091  -22.8512 C.2     1  UNL1        0.2095
     21 O         -60.5837  -50.3834  -22.1970 O.2     1  UNL1       -0.2884
     22 C         -62.5198  -51.7682  -22.4539 C.3     1  UNL1        0.2169
     23 O         -61.7461  -52.8027  -21.9006 O.3     1  UNL1       -0.3739
     24 H         -61.5948  -52.5719  -20.9467 H       1  UNL1        0.2110
     25 O         -63.6090  -47.0318  -26.8393 O.3     1  UNL1       -0.4708
     26 C         -63.5485  -47.2262  -28.2485 C.3     1  UNL1        0.2525
     27 O         -60.2044  -48.1583  -23.5935 O.3     1  UNL1       -0.4707
     28 C         -60.1916  -47.2472  -22.5009 C.3     1  UNL1        0.2525
     29 C         -70.1445  -54.8304  -24.1806 C.ar    1  UNL1        0.0241
     30 C         -70.0335  -54.2689  -25.4611 C.ar    1  UNL1        0.0026
     31 C         -71.1245  -54.2701  -26.3309 C.ar    1  UNL1        0.0398
     32 C         -72.3508  -54.8357  -25.9351 C.ar    1  UNL1        0.1724
     33 C         -72.4731  -55.3995  -24.6557 C.ar    1  UNL1        0.1722
     34 C         -71.3680  -55.3922  -23.7822 C.ar    1  UNL1        0.0393
     35 O         -73.4691  -54.8581  -26.7838 O.3     1  UNL1       -0.4684
     36 C         -74.3831  -53.7779  -26.9420 C.3     1  UNL1        0.2526
     37 O         -73.7076  -55.9598  -24.2905 O.3     1  UNL1       -0.4684
     38 C         -73.9612  -56.6179  -23.0534 C.3     1  UNL1        0.2526
     39 C         -69.4009  -57.1582  -22.1755 C.3     1  UNL1        0.1897
     40 C         -70.6505  -56.7774  -20.2531 C.3     1  UNL1        0.1743
     41 O         -69.3517  -56.8210  -20.8013 O.3     1  UNL1       -0.3471
@<TRIPOS>BOND
     1    40    41    1
     2    41    39    1
     3    39     1    1
     4     1     2    1
     5     2     3    1
     6     3     4   ar
     7     4     5   ar
     8     5     6   ar
     9     6    11    1
    10    11    12    1
    11    12    13    1
    12    13    14   ar
    13    14    15   ar
    14    15    25    1
    15    25    26    1
    16    15    16   ar
    17    16    17    1
    18    16    18   ar
    19    18    27    1
    20    27    28    1
    21    18    19   ar
    22    19    20    1
    23    20    21    2
    24    20    22    1
    25    22    23    1
    26     6     7   ar
    27     7     8   ar
    28     8     9    1
    29     9    10    1
    30    10    29    1
    31    29    30   ar
    32    30    31   ar
    33    31    32   ar
    34    32    35    1
    35    35    36    1
    36    32    33   ar
    37    33    37    1
    38    37    38    1
    39    33    34   ar
    40    10     1    1
    41    34    29   ar
    42     8     3   ar
    43    22    11    1
    44    19    13   ar
    45    23    24    1
@<TRIPOS>MOLECULE
*****
 41 45 0 0 0
SMALL
GASTEIGER

@<TRIPOS>ATOM
      1 C         -63.2915  -41.8998  -19.7041 C.3     1  UNL1        0.2392
      2 O         -62.9692  -43.2423  -20.0829 O.3     1  UNL1       -0.4694
      3 C         -62.7814  -43.6002  -21.4204 C.ar    1  UNL1        0.1723
      4 C         -62.7527  -44.9431  -21.8023 C.ar    1  UNL1        0.0398
      5 C         -62.5955  -45.2813  -23.1503 C.ar    1  UNL1        0.0026
      6 C         -62.4530  -44.2757  -24.1255 C.ar    1  UNL1        0.0233
      7 C         -62.4797  -42.9265  -23.7295 C.ar    1  UNL1        0.0393
      8 C         -62.6237  -42.5944  -22.3797 C.ar    1  UNL1        0.1725
      9 O         -62.6145  -41.2591  -21.9695 O.3     1  UNL1       -0.4679
     10 C         -62.4921  -40.9006  -20.5888 C.3     1  UNL1        0.2305
     11 C         -62.3222  -44.6367  -25.5862 C.3     1  UNL1        0.2223
     12 O         -62.8415  -43.5785  -26.3935 O.3     1  UNL1       -0.4715
     13 C         -62.6109  -43.5174  -27.7719 C.ar    1  UNL1        0.1478
     14 C         -63.3948  -42.6717  -28.5576 C.ar    1  UNL1        0.0745
     15 C         -63.1973  -42.6020  -29.9475 C.ar    1  UNL1        0.1500
     16 C         -62.2077  -43.4002  -30.5417 C.ar    1  UNL1        0.0981
     17 I         -61.8851  -43.2715  -32.6366 I       1  UNL1       -0.0362
     18 C         -61.4161  -44.2579  -29.7563 C.ar    1  UNL1        0.1526
     19 C         -61.5955  -44.2950  -28.3556 C.ar    1  UNL1        0.1057
     20 C         -60.7223  -45.0868  -27.4502 C.2     1  UNL1        0.2095
     21 O         -59.8110  -45.8250  -27.9128 O.2     1  UNL1       -0.2884
     22 C         -60.8553  -44.9262  -25.9548 C.3     1  UNL1        0.2169
     23 O         -60.4346  -46.0961  -25.2994 O.3     1  UNL1       -0.3739
     24 H         -59.4450  -46.0491  -25.2312 H       1  UNL1        0.2110
     25 O         -63.9635  -41.7558  -30.7650 O.3     1  UNL1       -0.4708
     26 C         -64.9135  -40.8106  -30.2839 C.3     1  UNL1        0.2525
     27 O         -60.4474  -45.0539  -30.3716 O.3     1  UNL1       -0.4707
     28 C         -59.2393  -44.4934  -30.8722 C.3     1  UNL1        0.2525
     29 C         -62.9610  -39.4748  -20.4095 C.ar    1  UNL1        0.0241
     30 C         -64.0884  -39.1932  -19.6240 C.ar    1  UNL1        0.0026
     31 C         -64.5060  -37.8756  -19.4328 C.ar    1  UNL1        0.0398
     32 C         -63.8008  -36.8115  -20.0249 C.ar    1  UNL1        0.1724
     33 C         -62.6718  -37.0821  -20.8134 C.ar    1  UNL1        0.1722
     34 C         -62.2579  -38.4150  -21.0042 C.ar    1  UNL1        0.0393
     35 O         -64.1889  -35.4733  -19.8524 O.3     1  UNL1       -0.4684
     36 C         -65.2571  -35.0452  -19.0138 C.3     1  UNL1        0.2526
     37 O         -61.9862  -35.9997  -21.3880 O.3     1  UNL1       -0.4684
     38 C         -60.8648  -35.3497  -20.7985 C.3     1  UNL1        0.2526
     39 C         -63.0014  -41.7357  -18.2009 C.3     1  UNL1        0.1897
     40 C         -65.2084  -42.3938  -17.8872 C.3     1  UNL1        0.1743
     41 O         -64.1887  -41.5174  -17.4611 O.3     1  UNL1       -0.3471
@<TRIPOS>BOND
     1    40    41    1
     2    41    39    1
     3    39     1    1
     4     1     2    1
     5     2     3    1
     6     3     4   ar
     7     4     5   ar
     8     5     6   ar
     9     6    11    1
    10    11    12    1
    11    12    13    1
    12    13    14   ar
    13    14    15   ar
    14    15    25    1
    15    25    26    1
    16    15    16   ar
    17    16    17    1
    18    16    18   ar
    19    18    27    1
    20    27    28    1
    21    18    19   ar
    22    19    20    1
    23    20    21    2
    24    20    22    1
    25    22    23    1
    26     6     7   ar
    27     7     8   ar
    28     8     9    1
    29     9    10    1
    30    10    29    1
    31    29    30   ar
    32    30    31   ar
    33    31    32   ar
    34    32    35    1
    35    35    36    1
    36    32    33   ar
    37    33    37    1
    38    37    38    1
    39    33    34   ar
    40    10     1    1
    41    34    29   ar
    42     8     3   ar
    43    22    11    1
    44    19    13   ar
    45    23    24    1
@<TRIPOS>MOLECULE
*****
 41 45 0 0 0
SMALL
GASTEIGER

@<TRIPOS>ATOM
      1 C         -64.8111  -54.6024  -22.8603 C.3     1  UNL1        0.2392
      2 O         -63.6128  -53.8956  -22.5225 O.3     1  UNL1       -0.4694
      3 C         -63.2847  -52.6800  -23.1281 C.ar    1  UNL1        0.1723
      4 C         -61.9990  -52.1479  -23.0095 C.ar    1  UNL1        0.0398
      5 C         -61.6804  -50.9457  -23.6493 C.ar    1  UNL1        0.0026
      6 C         -62.6521  -50.2602  -24.4032 C.ar    1  UNL1        0.0233
      7 C         -63.9448  -50.8031  -24.5131 C.ar    1  UNL1        0.0393
      8 C         -64.2616  -51.9978  -23.8609 C.ar    1  UNL1        0.1725
      9 O         -65.5520  -52.5279  -23.9319 O.3     1  UNL1       -0.4679
     10 C         -65.9738  -53.5902  -23.0697 C.3     1  UNL1        0.2305
     11 C         -62.3003  -48.9822  -25.1272 C.3     1  UNL1        0.2223
     12 O         -63.0790  -48.8729  -26.3201 O.3     1  UNL1       -0.4715
     13 C         -63.1607  -47.6788  -27.0440 C.ar    1  UNL1        0.1478
     14 C         -63.6493  -47.7056  -28.3508 C.ar    1  UNL1        0.0745
     15 C         -63.7271  -46.5241  -29.1082 C.ar    1  UNL1        0.1500
     16 C         -63.2987  -45.3144  -28.5403 C.ar    1  UNL1        0.0981
     17 I         -63.4468  -43.5231  -29.6712 I       1  UNL1       -0.0362
     18 C         -62.8015  -45.2804  -27.2247 C.ar    1  UNL1        0.1526
     19 C         -62.7610  -46.4655  -26.4570 C.ar    1  UNL1        0.1057
     20 C         -62.3587  -46.4876  -25.0263 C.2     1  UNL1        0.2095
     21 O         -61.9647  -45.4384  -24.4489 O.2     1  UNL1       -0.2884
     22 C         -62.5233  -47.7556  -24.2232 C.3     1  UNL1        0.2169
     23 O         -61.5996  -47.7856  -23.1645 O.3     1  UNL1       -0.3739
     24 H         -61.9899  -47.2494  -22.4254 H       1  UNL1        0.2110
     25 O         -64.2211  -46.5157  -30.4226 O.3     1  UNL1       -0.4708
     26 C         -65.1159  -47.4865  -30.9556 C.3     1  UNL1        0.2525
     27 O         -62.3671  -44.0674  -26.6858 O.3     1  UNL1       -0.4707
     28 C         -61.0618  -43.5668  -26.9496 C.3     1  UNL1        0.2525
     29 C         -67.2021  -54.2430  -23.6615 C.ar    1  UNL1        0.0241
     30 C         -68.4504  -54.1000  -23.0381 C.ar    1  UNL1        0.0026
     31 C         -69.5908  -54.6768  -23.5980 C.ar    1  UNL1        0.0398
     32 C         -69.5038  -55.4090  -24.7966 C.ar    1  UNL1        0.1724
     33 C         -68.2596  -55.5589  -25.4283 C.ar    1  UNL1        0.1722
     34 C         -67.1122  -54.9760  -24.8556 C.ar    1  UNL1        0.0393
     35 O         -70.6296  -56.0006  -25.3913 O.3     1  UNL1       -0.4684
     36 C         -71.9366  -55.4357  -25.3829 C.3     1  UNL1        0.2526
     37 O         -68.2046  -56.2914  -26.6250 O.3     1  UNL1       -0.4684
     38 C         -68.1843  -55.7125  -27.9258 C.3     1  UNL1        0.2526
     39 C         -65.1007  -55.6279  -21.7489 C.3     1  UNL1        0.1897
     40 C         -66.7803  -57.2339  -21.7032 C.3     1  UNL1        0.1743
     41 O         -65.5486  -56.8613  -22.2807 O.3     1  UNL1       -0.3471
@<TRIPOS>BOND
     1    40    41    1
     2    41    39    1
     3    39     1    1
     4     1     2    1
     5     2     3    1
     6     3     4   ar
     7     4     5   ar
     8     5     6   ar
     9     6    11    1
    10    11    12    1
    11    12    13    1
    12    13    14   ar
    13    14    15   ar
    14    15    25    1
    15    25    26    1
    16    15    16   ar
    17    16    17    1
    18    16    18   ar
    19    18    27    1
    20    27    28    1
    21    18    19   ar
    22    19    20    1
    23    20    21    2
    24    20    22    1
    25    22    23    1
    26     6     7   ar
    27     7     8   ar
    28     8     9    1
    29     9    10    1
    30    10    29    1
    31    29    30   ar
    32    30    31   ar
    33    31    32   ar
    34    32    35    1
    35    35    36    1
    36    32    33   ar
    37    33    37    1
    38    37    38    1
    39    33    34   ar
    40    10     1    1
    41    34    29   ar
    42     8     3   ar
    43    22    11    1
    44    19    13   ar
    45    23    24    1
@<TRIPOS>MOLECULE
*****
 41 45 0 0 0
SMALL
GASTEIGER

@<TRIPOS>ATOM
      1 C         -65.4196  -55.1585  -22.8986 C.3     1  UNL1        0.2392
      2 O         -64.2583  -54.5654  -22.3075 O.3     1  UNL1       -0.4694
      3 C         -63.6983  -53.3899  -22.8146 C.ar    1  UNL1        0.1723
      4 C         -62.4223  -52.9804  -22.4219 C.ar    1  UNL1        0.0398
      5 C         -61.8656  -51.8178  -22.9645 C.ar    1  UNL1        0.0026
      6 C         -62.5890  -51.0488  -23.8962 C.ar    1  UNL1        0.0233
      7 C         -63.8748  -51.4684  -24.2819 C.ar    1  UNL1        0.0393
      8 C         -64.4315  -52.6237  -23.7267 C.ar    1  UNL1        0.1725
      9 O         -65.7220  -53.0305  -24.0737 O.3     1  UNL1       -0.4679
     10 C         -66.4127  -54.0428  -23.3334 C.3     1  UNL1        0.2305
     11 C         -61.9754  -49.8143  -24.5131 C.3     1  UNL1        0.2223
     12 O         -62.9573  -49.1217  -25.2861 O.3     1  UNL1       -0.4715
     13 C         -62.7509  -47.8175  -25.7478 C.ar    1  UNL1        0.1478
     14 C         -63.5738  -47.3127  -26.7555 C.ar    1  UNL1        0.0745
     15 C         -63.3795  -46.0118  -27.2510 C.ar    1  UNL1        0.1500
     16 C         -62.3410  -45.2255  -26.7286 C.ar    1  UNL1        0.0981
     17 I         -62.0670  -43.2480  -27.4523 I       1  UNL1       -0.0362
     18 C         -61.5052  -45.7292  -25.7152 C.ar    1  UNL1        0.1526
     19 C         -61.7301  -47.0238  -25.1964 C.ar    1  UNL1        0.1057
     20 C         -60.9646  -47.5782  -24.0494 C.2     1  UNL1        0.2095
     21 O         -60.0192  -46.9275  -23.5275 O.2     1  UNL1       -0.2884
     22 C         -61.3894  -48.8885  -23.4309 C.3     1  UNL1        0.2169
     23 O         -60.2903  -49.5209  -22.8250 O.3     1  UNL1       -0.3739
     24 H         -60.1829  -49.1143  -21.9255 H       1  UNL1        0.2110
     25 O         -64.1945  -45.4714  -28.2586 O.3     1  UNL1       -0.4708
     26 C         -64.2391  -45.9430  -29.6013 C.3     1  UNL1        0.2525
     27 O         -60.4690  -44.9339  -25.2210 O.3     1  UNL1       -0.4707
     28 C         -60.7152  -43.9094  -24.2650 C.3     1  UNL1        0.2525
     29 C         -67.5448  -54.5809  -24.1783 C.ar    1  UNL1        0.0241
     30 C         -67.2858  -55.1330  -25.4414 C.ar    1  UNL1        0.0026
     31 C         -68.3251  -55.6572  -26.2107 C.ar    1  UNL1        0.0398
     32 C         -69.6472  -55.6399  -25.7290 C.ar    1  UNL1        0.1724
     33 C         -69.9176  -55.0893  -24.4667 C.ar    1  UNL1        0.1722
     34 C         -68.8635  -54.5594  -23.6969 C.ar    1  UNL1        0.0393
     35 O         -70.7178  -56.1608  -26.4729 O.3     1  UNL1       -0.4684
     36 C         -71.3938  -55.4606  -27.5123 C.3     1  UNL1        0.2526
     37 O         -71.2457  -55.0896  -24.0110 O.3     1  UNL1       -0.4684
     38 C         -71.7682  -55.9981  -23.0470 C.3     1  UNL1        0.2526
     39 C         -66.0305  -56.1449  -21.8864 C.3     1  UNL1        0.1897
     40 C         -67.1141  -55.6353  -19.8943 C.3     1  UNL1        0.1743
     41 O         -65.8690  -55.6927  -20.5545 O.3     1  UNL1       -0.3471
@<TRIPOS>BOND
     1    40    41    1
     2    41    39    1
     3    39     1    1
     4     1     2    1
     5     2     3    1
     6     3     4   ar
     7     4     5   ar
     8     5     6   ar
     9     6    11    1
    10    11    12    1
    11    12    13    1
    12    13    14   ar
    13    14    15   ar
    14    15    25    1
    15    25    26    1
    16    15    16   ar
    17    16    17    1
    18    16    18   ar
    19    18    27    1
    20    27    28    1
    21    18    19   ar
    22    19    20    1
    23    20    21    2
    24    20    22    1
    25    22    23    1
    26     6     7   ar
    27     7     8   ar
    28     8     9    1
    29     9    10    1
    30    10    29    1
    31    29    30   ar
    32    30    31   ar
    33    31    32   ar
    34    32    35    1
    35    35    36    1
    36    32    33   ar
    37    33    37    1
    38    37    38    1
    39    33    34   ar
    40    10     1    1
    41    34    29   ar
    42     8     3   ar
    43    22    11    1
    44    19    13   ar
    45    23    24    1
@<TRIPOS>MOLECULE
*****
 41 45 0 0 0
SMALL
GASTEIGER

@<TRIPOS>ATOM
      1 C         -61.6949  -41.9341  -20.9172 C.3     1  UNL1        0.2392
      2 O         -60.9992  -42.9138  -21.6956 O.3     1  UNL1       -0.4694
      3 C         -61.3110  -43.1372  -23.0392 C.ar    1  UNL1        0.1723
      4 C         -60.8371  -44.2711  -23.7025 C.ar    1  UNL1        0.0398
      5 C         -61.1861  -44.4938  -25.0384 C.ar    1  UNL1        0.0026
      6 C         -62.0029  -43.5748  -25.7245 C.ar    1  UNL1        0.0233
      7 C         -62.4716  -42.4344  -25.0480 C.ar    1  UNL1        0.0393
      8 C         -62.1091  -42.2099  -23.7172 C.ar    1  UNL1        0.1725
      9 O         -62.5377  -41.0624  -23.0458 O.3     1  UNL1       -0.4679
     10 C         -61.9731  -40.6755  -21.7883 C.3     1  UNL1        0.2305
     11 C         -62.4133  -43.8323  -27.1551 C.3     1  UNL1        0.2223
     12 O         -62.8815  -45.1755  -27.2889 O.3     1  UNL1       -0.4715
     13 C         -63.5707  -45.6093  -28.4262 C.ar    1  UNL1        0.1478
     14 C         -63.7139  -46.9782  -28.6560 C.ar    1  UNL1        0.0745
     15 C         -64.3867  -47.4437  -29.7989 C.ar    1  UNL1        0.1500
     16 C         -64.9070  -46.5167  -30.7152 C.ar    1  UNL1        0.0981
     17 I         -65.9530  -47.2175  -32.4251 I       1  UNL1       -0.0362
     18 C         -64.7633  -45.1351  -30.4919 C.ar    1  UNL1        0.1526
     19 C         -64.1183  -44.6748  -29.3224 C.ar    1  UNL1        0.1057
     20 C         -64.0310  -43.2355  -28.9617 C.2     1  UNL1        0.2095
     21 O         -64.4789  -42.3464  -29.7352 O.2     1  UNL1       -0.2884
     22 C         -63.4968  -42.8357  -27.6072 C.3     1  UNL1        0.2169
     23 O         -62.9453  -41.5442  -27.6623 O.3     1  UNL1       -0.3739
     24 H         -63.6988  -40.9042  -27.5703 H       1  UNL1        0.2110
     25 O         -64.5546  -48.8139  -30.0554 O.3     1  UNL1       -0.4708
     26 C         -64.4582  -49.8379  -29.0707 C.3     1  UNL1        0.2525
     27 O         -65.2763  -44.2315  -31.4251 O.3     1  UNL1       -0.4707
     28 C         -66.5960  -43.7140  -31.3044 C.3     1  UNL1        0.2525
     29 C         -62.9107  -39.7041  -21.1084 C.ar    1  UNL1        0.0241
     30 C         -64.2399  -40.0675  -20.8470 C.ar    1  UNL1        0.0026
     31 C         -65.0992  -39.1838  -20.1932 C.ar    1  UNL1        0.0398
     32 C         -64.6432  -37.9161  -19.7864 C.ar    1  UNL1        0.1724
     33 C         -63.3152  -37.5421  -20.0436 C.ar    1  UNL1        0.1722
     34 C         -62.4543  -38.4386  -20.7066 C.ar    1  UNL1        0.0393
     35 O         -65.4774  -37.0020  -19.1235 O.3     1  UNL1       -0.4684
     36 C         -65.9194  -35.7662  -19.6759 C.3     1  UNL1        0.2526
     37 O         -62.8878  -36.2727  -19.6224 O.3     1  UNL1       -0.4684
     38 C         -62.1061  -35.3812  -20.4110 C.3     1  UNL1        0.2526
     39 C         -60.8562  -41.6235  -19.6640 C.3     1  UNL1        0.1897
     40 C         -62.9058  -42.0286  -18.6456 C.3     1  UNL1        0.1743
     41 O         -61.6757  -41.3463  -18.5431 O.3     1  UNL1       -0.3471
@<TRIPOS>BOND
     1    40    41    1
     2    41    39    1
     3    39     1    1
     4     1     2    1
     5     2     3    1
     6     3     4   ar
     7     4     5   ar
     8     5     6   ar
     9     6    11    1
    10    11    12    1
    11    12    13    1
    12    13    14   ar
    13    14    15   ar
    14    15    25    1
    15    25    26    1
    16    15    16   ar
    17    16    17    1
    18    16    18   ar
    19    18    27    1
    20    27    28    1
    21    18    19   ar
    22    19    20    1
    23    20    21    2
    24    20    22    1
    25    22    23    1
    26     6     7   ar
    27     7     8   ar
    28     8     9    1
    29     9    10    1
    30    10    29    1
    31    29    30   ar
    32    30    31   ar
    33    31    32   ar
    34    32    35    1
    35    35    36    1
    36    32    33   ar
    37    33    37    1
    38    37    38    1
    39    33    34   ar
    40    10     1    1
    41    34    29   ar
    42     8     3   ar
    43    22    11    1
    44    19    13   ar
    45    23    24    1
@<TRIPOS>MOLECULE
*****
 41 45 0 0 0
SMALL
GASTEIGER

@<TRIPOS>ATOM
      1 C         -72.3039  -57.0327  -24.6793 C.3     1  UNL1        0.2392
      2 O         -73.4964  -57.2304  -23.9122 O.3     1  UNL1       -0.4694
      3 C         -73.5973  -56.7906  -22.5898 C.ar    1  UNL1        0.1723
      4 C         -74.6364  -57.2327  -21.7683 C.ar    1  UNL1        0.0398
      5 C         -74.7027  -56.8063  -20.4379 C.ar    1  UNL1        0.0026
      6 C         -73.7346  -55.9229  -19.9235 C.ar    1  UNL1        0.0233
      7 C         -72.6944  -55.4809  -20.7606 C.ar    1  UNL1        0.0393
      8 C         -72.6404  -55.8996  -22.0928 C.ar    1  UNL1        0.1725
      9 O         -71.6335  -55.4386  -22.9443 O.3     1  UNL1       -0.4679
     10 C         -71.7034  -55.6333  -24.3609 C.3     1  UNL1        0.2305
     11 C         -73.7813  -55.4914  -18.4768 C.3     1  UNL1        0.2223
     12 O         -72.5733  -55.8770  -17.8186 O.3     1  UNL1       -0.4715
     13 C         -72.2255  -55.3792  -16.5584 C.ar    1  UNL1        0.1478
     14 C         -71.2278  -56.0207  -15.8234 C.ar    1  UNL1        0.0745
     15 C         -70.8689  -55.5533  -14.5474 C.ar    1  UNL1        0.1500
     16 C         -71.5316  -54.4376  -14.0128 C.ar    1  UNL1        0.0981
     17 I         -70.9677  -53.7097  -12.0994 I       1  UNL1       -0.0362
     18 C         -72.5410  -53.7881  -14.7466 C.ar    1  UNL1        0.1526
     19 C         -72.8704  -54.2411  -16.0435 C.ar    1  UNL1        0.1057
     20 C         -73.8412  -53.5379  -16.9222 C.2     1  UNL1        0.2095
     21 O         -74.4722  -52.5272  -16.5103 O.2     1  UNL1       -0.2884
     22 C         -73.9976  -53.9712  -18.3601 C.3     1  UNL1        0.2169
     23 O         -75.2822  -53.6480  -18.8298 O.3     1  UNL1       -0.3739
     24 H         -75.2578  -52.6941  -19.1046 H       1  UNL1        0.2110
     25 O         -69.8642  -56.1711  -13.7856 O.3     1  UNL1       -0.4708
     26 C         -68.4867  -56.2091  -14.1440 C.3     1  UNL1        0.2525
     27 O         -73.1968  -52.6888  -14.1881 O.3     1  UNL1       -0.4707
     28 C         -74.2892  -52.8568  -13.2922 C.3     1  UNL1        0.2525
     29 C         -70.3220  -55.4555  -24.9485 C.ar    1  UNL1        0.0241
     30 C         -70.1600  -54.8727  -26.2140 C.ar    1  UNL1        0.0026
     31 C         -68.8846  -54.6805  -26.7461 C.ar    1  UNL1        0.0398
     32 C         -67.7434  -55.0680  -26.0194 C.ar    1  UNL1        0.1724
     33 C         -67.8942  -55.6527  -24.7525 C.ar    1  UNL1        0.1722
     34 C         -69.1852  -55.8461  -24.2231 C.ar    1  UNL1        0.0393
     35 O         -66.4444  -54.8875  -26.5207 O.3     1  UNL1       -0.4684
     36 C         -66.1400  -54.5602  -27.8726 C.3     1  UNL1        0.2526
     37 O         -66.7373  -56.0254  -24.0495 O.3     1  UNL1       -0.4684
     38 C         -66.6944  -57.0276  -23.0388 C.3     1  UNL1        0.2526
     39 C         -72.6484  -57.2134  -26.1691 C.3     1  UNL1        0.1897
     40 C         -74.0410  -56.4422  -27.8627 C.3     1  UNL1        0.1743
     41 O         -73.3528  -56.0969  -26.6809 O.3     1  UNL1       -0.3471
@<TRIPOS>BOND
     1    40    41    1
     2    41    39    1
     3    39     1    1
     4     1     2    1
     5     2     3    1
     6     3     4   ar
     7     4     5   ar
     8     5     6   ar
     9     6    11    1
    10    11    12    1
    11    12    13    1
    12    13    14   ar
    13    14    15   ar
    14    15    25    1
    15    25    26    1
    16    15    16   ar
    17    16    17    1
    18    16    18   ar
    19    18    27    1
    20    27    28    1
    21    18    19   ar
    22    19    20    1
    23    20    21    2
    24    20    22    1
    25    22    23    1
    26     6     7   ar
    27     7     8   ar
    28     8     9    1
    29     9    10    1
    30    10    29    1
    31    29    30   ar
    32    30    31   ar
    33    31    32   ar
    34    32    35    1
    35    35    36    1
    36    32    33   ar
    37    33    37    1
    38    37    38    1
    39    33    34   ar
    40    10     1    1
    41    34    29   ar
    42     8     3   ar
    43    22    11    1
    44    19    13   ar
    45    23    24    1
@<TRIPOS>MOLECULE
*****
 41 45 0 0 0
SMALL
GASTEIGER

@<TRIPOS>ATOM
      1 C         -61.4311  -41.7817  -22.2790 C.3     1  UNL1        0.2392
      2 O         -60.5809  -41.8054  -23.4307 O.3     1  UNL1       -0.4694
      3 C         -61.0461  -42.2384  -24.6750 C.ar    1  UNL1        0.1723
      4 C         -60.1533  -42.5278  -25.7091 C.ar    1  UNL1        0.0398
      5 C         -60.6359  -42.9905  -26.9376 C.ar    1  UNL1        0.0026
      6 C         -62.0190  -43.1549  -27.1437 C.ar    1  UNL1        0.0233
      7 C         -62.9096  -42.8571  -26.0968 C.ar    1  UNL1        0.0393
      8 C         -62.4229  -42.3824  -24.8757 C.ar    1  UNL1        0.1725
      9 O         -63.2995  -42.0479  -23.8409 O.3     1  UNL1       -0.4679
     10 C         -62.8574  -41.3174  -22.6916 C.3     1  UNL1        0.2305
     11 C         -62.5406  -43.6913  -28.4558 C.3     1  UNL1        0.2223
     12 O         -62.9880  -45.0372  -28.2837 O.3     1  UNL1       -0.4715
     13 C         -63.7591  -45.6904  -29.2509 C.ar    1  UNL1        0.1478
     14 C         -63.8899  -47.0786  -29.1953 C.ar    1  UNL1        0.0745
     15 C         -64.6445  -47.7638  -30.1631 C.ar    1  UNL1        0.1500
     16 C         -65.2597  -47.0383  -31.1950 C.ar    1  UNL1        0.0981
     17 I         -66.4277  -48.0681  -32.6388 I       1  UNL1       -0.0362
     18 C         -65.1291  -45.6390  -31.2594 C.ar    1  UNL1        0.1526
     19 C         -64.4000  -44.9537  -30.2622 C.ar    1  UNL1        0.1057
     20 C         -64.3155  -43.4712  -30.1988 C.2     1  UNL1        0.2095
     21 O         -64.8459  -42.7543  -31.0900 O.2     1  UNL1       -0.2884
     22 C         -63.6801  -42.8095  -28.9996 C.3     1  UNL1        0.2169
     23 O         -63.1642  -41.5510  -29.3533 O.3     1  UNL1       -0.3739
     24 H         -63.9218  -40.9097  -29.3241 H       1  UNL1        0.2110
     25 O         -64.8021  -49.1587  -30.1313 O.3     1  UNL1       -0.4708
     26 C         -64.4709  -49.9839  -29.0192 C.3     1  UNL1        0.2525
     27 O         -65.7379  -44.9397  -32.3039 O.3     1  UNL1       -0.4707
     28 C         -65.0606  -44.7114  -33.5340 C.3     1  UNL1        0.2525
     29 C         -63.8637  -41.4998  -21.5784 C.ar    1  UNL1        0.0241
     30 C         -64.3981  -40.3845  -20.9167 C.ar    1  UNL1        0.0026
     31 C         -65.3490  -40.5487  -19.9089 C.ar    1  UNL1        0.0398
     32 C         -65.7854  -41.8357  -19.5437 C.ar    1  UNL1        0.1724
     33 C         -65.2567  -42.9586  -20.1988 C.ar    1  UNL1        0.1722
     34 C         -64.2950  -42.7851  -21.2134 C.ar    1  UNL1        0.0393
     35 O         -66.7427  -42.0398  -18.5371 O.3     1  UNL1       -0.4684
     36 C         -66.5038  -41.8491  -17.1464 C.3     1  UNL1        0.2526
     37 O         -65.7142  -44.2296  -19.8156 O.3     1  UNL1       -0.4684
     38 C         -65.0411  -45.0877  -18.9000 C.3     1  UNL1        0.2526
     39 C         -60.7869  -40.8712  -21.2175 C.3     1  UNL1        0.1897
     40 C         -61.4941  -41.5507  -19.1103 C.3     1  UNL1        0.1743
     41 O         -60.4429  -41.5939  -20.0496 O.3     1  UNL1       -0.3471
@<TRIPOS>BOND
     1    40    41    1
     2    41    39    1
     3    39     1    1
     4     1     2    1
     5     2     3    1
     6     3     4   ar
     7     4     5   ar
     8     5     6   ar
     9     6    11    1
    10    11    12    1
    11    12    13    1
    12    13    14   ar
    13    14    15   ar
    14    15    25    1
    15    25    26    1
    16    15    16   ar
    17    16    17    1
    18    16    18   ar
    19    18    27    1
    20    27    28    1
    21    18    19   ar
    22    19    20    1
    23    20    21    2
    24    20    22    1
    25    22    23    1
    26     6     7   ar
    27     7     8   ar
    28     8     9    1
    29     9    10    1
    30    10    29    1
    31    29    30   ar
    32    30    31   ar
    33    31    32   ar
    34    32    35    1
    35    35    36    1
    36    32    33   ar
    37    33    37    1
    38    37    38    1
    39    33    34   ar
    40    10     1    1
    41    34    29   ar
    42     8     3   ar
    43    22    11    1
    44    19    13   ar
    45    23    24    1
