@<TRIPOS>MOLECULE
*****
 41 45 0 0 0
SMALL
GASTEIGER

@<TRIPOS>ATOM
      1 C         -30.9822   50.1857   -8.6776 C.3     1  UNL1        0.1333
      2 N         -29.8175   50.3870   -9.5409 N.ar    1  UNL1       -0.2950
      3 C         -29.7556   50.3619  -10.9027 C.ar    1  UNL1        0.2019
      4 N         -28.4983   50.5027  -11.3938 N.ar    1  UNL1       -0.2134
      5 C         -27.7570   50.6574  -10.2829 C.ar    1  UNL1        0.1033
      6 C         -26.3794   50.8500  -10.2130 C.ar    1  UNL1        0.0284
      7 C         -25.7851   50.9978   -8.9394 C.ar    1  UNL1        0.0922
      8 C         -26.6093   50.9941   -7.7806 C.ar    1  UNL1        0.1793
      9 C         -27.9978   50.7662   -7.8889 C.ar    1  UNL1        0.1898
     10 C         -28.5417   50.6027   -9.1665 C.ar    1  UNL1        0.1173
     11 O         -28.7786   50.7351   -6.7294 O.3     1  UNL1       -0.4660
     12 C         -28.1745   50.6465   -5.4379 C.3     1  UNL1        0.2600
     13 C         -26.9151   51.5243   -5.3883 C.3     1  UNL1        0.2534
     14 S         -25.9872   51.2420   -3.8488 S.3     1  UNL1       -0.1227
     15 O         -26.0755   51.2465   -6.5109 O.3     1  UNL1       -0.4614
     16 H         -25.6231   49.9295   -4.2074 H       1  UNL1        0.1057
     17 C         -24.3239   51.1998   -8.8420 C.2     1  UNL1        0.2526
     18 O         -23.7267   50.8398   -7.7915 O.2     1  UNL1       -0.2697
     19 N         -23.5917   51.7985   -9.9268 N.am    1  UNL1       -0.2803
     20 H         -24.1105   52.0727  -10.7909 H       1  UNL1        0.1552
     21 C         -22.1633   51.9530   -9.9433 C.ar    1  UNL1        0.0506
     22 C         -21.4655   51.7241  -11.1361 C.ar    1  UNL1        0.0170
     23 C         -20.0815   51.8951  -11.1886 C.ar    1  UNL1        0.0309
     24 C         -19.3793   52.3073  -10.0535 C.ar    1  UNL1        0.1441
     25 F         -18.0356   52.4812  -10.1362 F       1  UNL1       -0.2042
     26 C         -20.0612   52.5542   -8.8471 C.ar    1  UNL1        0.1000
     27 C         -21.4600   52.3939   -8.8079 C.ar    1  UNL1        0.0208
     28 C         -19.2970   53.0412   -7.6389 C.3     1  UNL1        0.4207
     29 F         -20.1758   53.3033   -6.6029 F       1  UNL1       -0.1658
     30 F         -18.4046   52.0641   -7.2379 F       1  UNL1       -0.1658
     31 F         -18.5924   54.2010   -7.9127 F       1  UNL1       -0.1658
     32 N         -30.8895   50.2149  -11.7700 N.pl3   1  UNL1       -0.2814
     33 H         -31.7811   50.6771  -11.4824 H       1  UNL1        0.1551
     34 C         -30.8912   49.4388  -12.9789 C.ar    1  UNL1        0.0889
     35 C         -31.2537   50.0626  -14.1846 C.ar    1  UNL1        0.1543
     36 F         -31.5799   51.3796  -14.2010 F       1  UNL1       -0.2028
     37 C         -31.2554   49.3415  -15.3816 C.ar    1  UNL1        0.0310
     38 C         -30.9121   47.9889  -15.3849 C.ar    1  UNL1        0.0033
     39 C         -30.5788   47.3494  -14.1894 C.ar    1  UNL1        0.0128
     40 C         -30.5738   48.0604  -12.9830 C.ar    1  UNL1        0.0733
     41 CL        -30.2392   47.1712  -11.5013 Cl      1  UNL1       -0.0809
@<TRIPOS>BOND
     1     1     2    1
     2     2     3   ar
     3     3    32    1
     4    32    34    1
     5    34    35   ar
     6    35    36    1
     7    35    37   ar
     8    37    38   ar
     9    38    39   ar
    10    39    40   ar
    11    40    41    1
    12     3     4   ar
    13     4     5   ar
    14     5     6   ar
    15     6     7   ar
    16     7    17    1
    17    17    18    2
    18    17    19   am
    19    19    21    1
    20    21    22   ar
    21    22    23   ar
    22    23    24   ar
    23    24    25    1
    24    24    26   ar
    25    26    28    1
    26    28    29    1
    27    28    30    1
    28    28    31    1
    29    26    27   ar
    30     7     8   ar
    31     8     9   ar
    32     9    10   ar
    33     9    11    1
    34    11    12    1
    35    12    13    1
    36    13    14    1
    37    13    15    1
    38    10     2   ar
    39    40    34   ar
    40    10     5   ar
    41    27    21   ar
    42    15     8    1
    43    32    33    1
    44    19    20    1
    45    14    16    1
@<TRIPOS>MOLECULE
*****
 41 45 0 0 0
SMALL
GASTEIGER

@<TRIPOS>ATOM
      1 C         -23.5789   52.9714  -11.4667 C.3     1  UNL1        0.1333
      2 N         -23.3960   52.3322  -10.1628 N.ar    1  UNL1       -0.2950
      3 C         -22.2858   52.3202   -9.3714 C.ar    1  UNL1        0.2019
      4 N         -22.4202   51.5596   -8.2554 N.ar    1  UNL1       -0.2134
      5 C         -23.6846   51.1118   -8.3471 C.ar    1  UNL1        0.1033
      6 C         -24.3493   50.2838   -7.4458 C.ar    1  UNL1        0.0284
      7 C         -25.6888   49.9279   -7.7220 C.ar    1  UNL1        0.0922
      8 C         -26.3279   50.4596   -8.8757 C.ar    1  UNL1        0.1793
      9 C         -25.6126   51.2713   -9.7817 C.ar    1  UNL1        0.1898
     10 C         -24.2826   51.5809   -9.4817 C.ar    1  UNL1        0.1173
     11 O         -26.2576   51.7530  -10.9251 O.3     1  UNL1       -0.4660
     12 C         -27.5172   51.2209  -11.3384 C.3     1  UNL1        0.2600
     13 C         -28.4051   50.9656  -10.1114 C.3     1  UNL1        0.2534
     14 S         -29.9125   50.0598  -10.5781 S.3     1  UNL1       -0.1227
     15 O         -27.6846   50.2208   -9.1273 O.3     1  UNL1       -0.4614
     16 H         -29.2098   48.8809  -10.8945 H       1  UNL1        0.1057
     17 C         -26.4122   49.0473   -6.7804 C.2     1  UNL1        0.2526
     18 O         -27.0172   48.0373   -7.2316 O.2     1  UNL1       -0.2697
     19 N         -26.4283   49.3359   -5.3704 N.am    1  UNL1       -0.2803
     20 H         -25.9054   50.1708   -5.0235 H       1  UNL1        0.1552
     21 C         -27.0366   48.4869   -4.3836 C.ar    1  UNL1        0.0506
     22 C         -28.3008   48.8212   -3.8813 C.ar    1  UNL1        0.0170
     23 C         -28.9281   47.9995   -2.9440 C.ar    1  UNL1        0.0309
     24 C         -28.3053   46.8285   -2.5052 C.ar    1  UNL1        0.1441
     25 F         -28.9445   46.0391   -1.6048 F       1  UNL1       -0.2042
     26 C         -27.0401   46.4669   -3.0049 C.ar    1  UNL1        0.1000
     27 C         -26.4215   47.2944   -3.9622 C.ar    1  UNL1        0.0208
     28 C         -26.3962   45.1766   -2.5557 C.3     1  UNL1        0.4207
     29 F         -26.9022   44.1196   -3.2911 F       1  UNL1       -0.1658
     30 F         -25.0303   45.2532   -2.7558 F       1  UNL1       -0.1658
     31 F         -26.6355   44.9253   -1.2155 F       1  UNL1       -0.1658
     32 N         -21.0755   53.0392   -9.6499 N.pl3   1  UNL1       -0.2814
     33 H         -21.1557   53.9301  -10.1895 H       1  UNL1        0.1551
     34 C         -19.7620   52.5921   -9.2772 C.ar    1  UNL1        0.0889
     35 C         -19.3394   52.7628   -7.9482 C.ar    1  UNL1        0.1543
     36 F         -20.1694   53.3267   -7.0347 F       1  UNL1       -0.2028
     37 C         -18.0728   52.3295   -7.5473 C.ar    1  UNL1        0.0310
     38 C         -17.2103   51.7377   -8.4710 C.ar    1  UNL1        0.0033
     39 C         -17.6062   51.5891   -9.8016 C.ar    1  UNL1        0.0128
     40 C         -18.8726   52.0196  -10.2163 C.ar    1  UNL1        0.0733
     41 CL        -19.2700   51.8911  -11.9262 Cl      1  UNL1       -0.0809
@<TRIPOS>BOND
     1     1     2    1
     2     2     3   ar
     3     3    32    1
     4    32    34    1
     5    34    35   ar
     6    35    36    1
     7    35    37   ar
     8    37    38   ar
     9    38    39   ar
    10    39    40   ar
    11    40    41    1
    12     3     4   ar
    13     4     5   ar
    14     5     6   ar
    15     6     7   ar
    16     7    17    1
    17    17    18    2
    18    17    19   am
    19    19    21    1
    20    21    22   ar
    21    22    23   ar
    22    23    24   ar
    23    24    25    1
    24    24    26   ar
    25    26    28    1
    26    28    29    1
    27    28    30    1
    28    28    31    1
    29    26    27   ar
    30     7     8   ar
    31     8     9   ar
    32     9    10   ar
    33     9    11    1
    34    11    12    1
    35    12    13    1
    36    13    14    1
    37    13    15    1
    38    10     2   ar
    39    40    34   ar
    40    10     5   ar
    41    27    21   ar
    42    15     8    1
    43    32    33    1
    44    19    20    1
    45    14    16    1
@<TRIPOS>MOLECULE
*****
 41 45 0 0 0
SMALL
GASTEIGER

@<TRIPOS>ATOM
      1 C         -23.6492   52.9764  -11.5259 C.3     1  UNL1        0.1333
      2 N         -23.4423   52.3423  -10.2231 N.ar    1  UNL1       -0.2950
      3 C         -22.3220   52.3451   -9.4458 C.ar    1  UNL1        0.2019
      4 N         -22.4333   51.5855   -8.3267 N.ar    1  UNL1       -0.2134
      5 C         -23.6934   51.1227   -8.4013 C.ar    1  UNL1        0.1033
      6 C         -24.3369   50.2890   -7.4899 C.ar    1  UNL1        0.0284
      7 C         -25.6755   49.9168   -7.7483 C.ar    1  UNL1        0.0922
      8 C         -26.3353   50.4383   -8.8948 C.ar    1  UNL1        0.1793
      9 C         -25.6413   51.2563   -9.8116 C.ar    1  UNL1        0.1898
     10 C         -24.3113   51.5822   -9.5292 C.ar    1  UNL1        0.1173
     11 O         -26.3063   51.7278  -10.9477 O.3     1  UNL1       -0.4660
     12 C         -27.5647   51.1800  -11.3438 C.3     1  UNL1        0.2600
     13 C         -28.4339   50.9171  -10.1051 C.3     1  UNL1        0.2534
     14 S         -29.9364   49.9926  -10.5507 S.3     1  UNL1       -0.1227
     15 O         -27.6923   50.1830   -9.1286 O.3     1  UNL1       -0.4614
     16 H         -29.2239   48.8213  -10.8735 H       1  UNL1        0.1057
     17 C         -26.3764   49.0299   -6.7957 C.2     1  UNL1        0.2526
     18 O         -26.9655   48.0056   -7.2357 O.2     1  UNL1       -0.2697
     19 N         -26.3889   49.3284   -5.3877 N.am    1  UNL1       -0.2803
     20 H         -25.8794   50.1754   -5.0502 H       1  UNL1        0.1552
     21 C         -26.9751   48.4756   -4.3909 C.ar    1  UNL1        0.0506
     22 C         -28.2342   48.8000   -3.8698 C.ar    1  UNL1        0.0170
     23 C         -28.8404   47.9741   -2.9222 C.ar    1  UNL1        0.0309
     24 C         -28.2013   46.8089   -2.4918 C.ar    1  UNL1        0.1441
     25 F         -28.8202   46.0153   -1.5809 F       1  UNL1       -0.2042
     26 C         -26.9409   46.4572   -3.0102 C.ar    1  UNL1        0.1000
     27 C         -26.3438   47.2887   -3.9776 C.ar    1  UNL1        0.0208
     28 C         -26.2796   45.1728   -2.5694 C.3     1  UNL1        0.4207
     29 F         -26.7463   44.1189   -3.3346 F       1  UNL1       -0.1658
     30 F         -24.9115   45.2818   -2.7373 F       1  UNL1       -0.1658
     31 F         -26.5430   44.8923   -1.2396 F       1  UNL1       -0.1658
     32 N         -21.1239   53.0776   -9.7413 N.pl3   1  UNL1       -0.2814
     33 H         -21.2276   54.0043  -10.2123 H       1  UNL1        0.1551
     34 C         -19.7950   52.6012   -9.4749 C.ar    1  UNL1        0.0889
     35 C         -19.1071   51.9101  -10.4864 C.ar    1  UNL1        0.1543
     36 F         -19.6887   51.7139  -11.6966 F       1  UNL1       -0.2028
     37 C         -17.8087   51.4425  -10.2666 C.ar    1  UNL1        0.0310
     38 C         -17.1911   51.6448   -9.0317 C.ar    1  UNL1        0.0033
     39 C         -17.8746   52.3038   -8.0079 C.ar    1  UNL1        0.0128
     40 C         -19.1763   52.7768   -8.2151 C.ar    1  UNL1        0.0733
     41 CL        -20.0150   53.5114   -6.8531 Cl      1  UNL1       -0.0809
@<TRIPOS>BOND
     1     1     2    1
     2     2     3   ar
     3     3    32    1
     4    32    34    1
     5    34    35   ar
     6    35    36    1
     7    35    37   ar
     8    37    38   ar
     9    38    39   ar
    10    39    40   ar
    11    40    41    1
    12     3     4   ar
    13     4     5   ar
    14     5     6   ar
    15     6     7   ar
    16     7    17    1
    17    17    18    2
    18    17    19   am
    19    19    21    1
    20    21    22   ar
    21    22    23   ar
    22    23    24   ar
    23    24    25    1
    24    24    26   ar
    25    26    28    1
    26    28    29    1
    27    28    30    1
    28    28    31    1
    29    26    27   ar
    30     7     8   ar
    31     8     9   ar
    32     9    10   ar
    33     9    11    1
    34    11    12    1
    35    12    13    1
    36    13    14    1
    37    13    15    1
    38    10     2   ar
    39    40    34   ar
    40    10     5   ar
    41    27    21   ar
    42    15     8    1
    43    32    33    1
    44    19    20    1
    45    14    16    1
@<TRIPOS>MOLECULE
*****
 41 45 0 0 0
SMALL
GASTEIGER

@<TRIPOS>ATOM
      1 C         -23.0337   52.8807  -11.8908 C.3     1  UNL1        0.1333
      2 N         -22.9236   52.4036  -10.5115 N.ar    1  UNL1       -0.2950
      3 C         -21.8521   52.4751   -9.6713 C.ar    1  UNL1        0.2019
      4 N         -22.0523   51.8584   -8.4791 N.ar    1  UNL1       -0.2134
      5 C         -23.3188   51.4179   -8.5772 C.ar    1  UNL1        0.1033
      6 C         -24.0397   50.7143   -7.6154 C.ar    1  UNL1        0.0284
      7 C         -25.3709   50.3434   -7.9112 C.ar    1  UNL1        0.0922
      8 C         -25.9456   50.7376   -9.1507 C.ar    1  UNL1        0.1793
      9 C         -25.1742   51.4238  -10.1128 C.ar    1  UNL1        0.1898
     10 C         -23.8544   51.7518   -9.7882 C.ar    1  UNL1        0.1173
     11 O         -25.7561   51.7698  -11.3363 O.3     1  UNL1       -0.4660
     12 C         -27.0042   51.2062  -11.7427 C.3     1  UNL1        0.2600
     13 C         -27.9531   51.1135  -10.5386 C.3     1  UNL1        0.2534
     14 S         -29.4529   50.1755  -10.9646 S.3     1  UNL1       -0.1227
     15 O         -27.2930   50.4861   -9.4373 O.3     1  UNL1       -0.4614
     16 H         -28.7573   48.9585  -11.1008 H       1  UNL1        0.1057
     17 C         -26.1532   49.5933   -6.9059 C.2     1  UNL1        0.2526
     18 O         -26.4859   48.4030   -7.1555 O.2     1  UNL1       -0.2697
     19 N         -26.5316   50.2092   -5.6613 N.am    1  UNL1       -0.2803
     20 H         -26.2289   51.1914   -5.4755 H       1  UNL1        0.1552
     21 C         -27.2181   49.5234   -4.6016 C.ar    1  UNL1        0.0506
     22 C         -26.4721   48.9492   -3.5644 C.ar    1  UNL1        0.0170
     23 C         -27.1138   48.3025   -2.5072 C.ar    1  UNL1        0.0309
     24 C         -28.5083   48.2311   -2.4677 C.ar    1  UNL1        0.1441
     25 F         -29.1075   47.6101   -1.4199 F       1  UNL1       -0.2042
     26 C         -29.2786   48.8109   -3.4933 C.ar    1  UNL1        0.1000
     27 C         -28.6227   49.4749   -4.5482 C.ar    1  UNL1        0.0208
     28 C         -30.7863   48.7650   -3.4173 C.3     1  UNL1        0.4207
     29 F         -31.2139   47.4496   -3.3828 F       1  UNL1       -0.1658
     30 F         -31.2059   49.4066   -2.2666 F       1  UNL1       -0.1658
     31 F         -31.3724   49.3823   -4.5090 F       1  UNL1       -0.1658
     32 N         -20.6174   53.1401   -9.9758 N.pl3   1  UNL1       -0.2814
     33 H         -20.6673   54.0166  -10.5420 H       1  UNL1        0.1551
     34 C         -19.3196   52.6563   -9.5944 C.ar    1  UNL1        0.0889
     35 C         -18.5317   51.9995  -10.5546 C.ar    1  UNL1        0.1543
     36 F         -18.9894   51.8428  -11.8223 F       1  UNL1       -0.2028
     37 C         -17.2597   51.5260  -10.2221 C.ar    1  UNL1        0.0310
     38 C         -16.7687   51.6881   -8.9260 C.ar    1  UNL1        0.0033
     39 C         -17.5532   52.3123   -7.9543 C.ar    1  UNL1        0.0128
     40 C         -18.8298   52.7908   -8.2743 C.ar    1  UNL1        0.0733
     41 CL        -19.8027   53.4793   -6.9791 Cl      1  UNL1       -0.0809
@<TRIPOS>BOND
     1     1     2    1
     2     2     3   ar
     3     3    32    1
     4    32    34    1
     5    34    35   ar
     6    35    36    1
     7    35    37   ar
     8    37    38   ar
     9    38    39   ar
    10    39    40   ar
    11    40    41    1
    12     3     4   ar
    13     4     5   ar
    14     5     6   ar
    15     6     7   ar
    16     7    17    1
    17    17    18    2
    18    17    19   am
    19    19    21    1
    20    21    22   ar
    21    22    23   ar
    22    23    24   ar
    23    24    25    1
    24    24    26   ar
    25    26    28    1
    26    28    29    1
    27    28    30    1
    28    28    31    1
    29    26    27   ar
    30     7     8   ar
    31     8     9   ar
    32     9    10   ar
    33     9    11    1
    34    11    12    1
    35    12    13    1
    36    13    14    1
    37    13    15    1
    38    10     2   ar
    39    40    34   ar
    40    10     5   ar
    41    27    21   ar
    42    15     8    1
    43    32    33    1
    44    19    20    1
    45    14    16    1
@<TRIPOS>MOLECULE
*****
 41 45 0 0 0
SMALL
GASTEIGER

@<TRIPOS>ATOM
      1 C         -22.9433   52.9210  -11.8593 C.3     1  UNL1        0.1333
      2 N         -22.8704   52.3932  -10.4961 N.ar    1  UNL1       -0.2950
      3 C         -21.8198   52.4269   -9.6276 C.ar    1  UNL1        0.2019
      4 N         -22.0532   51.7684   -8.4641 N.ar    1  UNL1       -0.2134
      5 C         -23.3194   51.3402   -8.6095 C.ar    1  UNL1        0.1033
      6 C         -24.0681   50.6069   -7.6923 C.ar    1  UNL1        0.0284
      7 C         -25.3936   50.2559   -8.0343 C.ar    1  UNL1        0.0922
      8 C         -25.9349   50.6989   -9.2723 C.ar    1  UNL1        0.1793
      9 C         -25.1359   51.4146  -10.1893 C.ar    1  UNL1        0.1898
     10 C         -23.8228   51.7217   -9.8203 C.ar    1  UNL1        0.1173
     11 O         -25.6851   51.8088  -11.4132 O.3     1  UNL1       -0.4660
     12 C         -26.9259   51.2688  -11.8708 C.3     1  UNL1        0.2600
     13 C         -27.9051   51.1386  -10.6947 C.3     1  UNL1        0.2534
     14 S         -29.3992   50.2267  -11.1917 S.3     1  UNL1       -0.1227
     15 O         -27.2763   50.4670   -9.6011 O.3     1  UNL1       -0.4614
     16 H         -28.7073   49.0108  -11.3551 H       1  UNL1        0.1057
     17 C         -26.2051   49.4748   -7.0768 C.2     1  UNL1        0.2526
     18 O         -27.1166   50.0591   -6.4304 O.2     1  UNL1       -0.2697
     19 N         -25.9607   48.0699   -6.8824 N.am    1  UNL1       -0.2803
     20 H         -25.2093   47.6094   -7.4429 H       1  UNL1        0.1552
     21 C         -26.7567   47.2257   -6.0347 C.ar    1  UNL1        0.0506
     22 C         -28.0161   46.8042   -6.4799 C.ar    1  UNL1        0.0170
     23 C         -28.7982   45.9603   -5.6902 C.ar    1  UNL1        0.0309
     24 C         -28.3274   45.5186   -4.4514 C.ar    1  UNL1        0.1441
     25 F         -29.1017   44.6856   -3.7104 F       1  UNL1       -0.2042
     26 C         -27.0600   45.9202   -3.9890 C.ar    1  UNL1        0.1000
     27 C         -26.2713   46.7595   -4.7997 C.ar    1  UNL1        0.0208
     28 C         -26.5438   45.4013   -2.6678 C.3     1  UNL1        0.4207
     29 F         -26.0212   44.1313   -2.8351 F       1  UNL1       -0.1658
     30 F         -25.5487   46.2417   -2.2037 F       1  UNL1       -0.1658
     31 F         -27.5480   45.3345   -1.7171 F       1  UNL1       -0.1658
     32 N         -20.5742   53.0943   -9.8770 N.pl3   1  UNL1       -0.2814
     33 H         -19.9858   52.7412  -10.6647 H       1  UNL1        0.1551
     34 C         -20.0641   54.1815   -9.0886 C.ar    1  UNL1        0.0889
     35 C         -20.4837   55.4893   -9.3850 C.ar    1  UNL1        0.1543
     36 F         -21.3679   55.7115  -10.3900 F       1  UNL1       -0.2028
     37 C         -20.0171   56.5698   -8.6317 C.ar    1  UNL1        0.0310
     38 C         -19.1158   56.3585   -7.5876 C.ar    1  UNL1        0.0033
     39 C         -18.6676   55.0675   -7.3015 C.ar    1  UNL1        0.0128
     40 C         -19.1270   53.9761   -8.0492 C.ar    1  UNL1        0.0733
     41 CL        -18.4479   52.3904   -7.6992 Cl      1  UNL1       -0.0809
@<TRIPOS>BOND
     1     1     2    1
     2     2     3   ar
     3     3    32    1
     4    32    34    1
     5    34    35   ar
     6    35    36    1
     7    35    37   ar
     8    37    38   ar
     9    38    39   ar
    10    39    40   ar
    11    40    41    1
    12     3     4   ar
    13     4     5   ar
    14     5     6   ar
    15     6     7   ar
    16     7    17    1
    17    17    18    2
    18    17    19   am
    19    19    21    1
    20    21    22   ar
    21    22    23   ar
    22    23    24   ar
    23    24    25    1
    24    24    26   ar
    25    26    28    1
    26    28    29    1
    27    28    30    1
    28    28    31    1
    29    26    27   ar
    30     7     8   ar
    31     8     9   ar
    32     9    10   ar
    33     9    11    1
    34    11    12    1
    35    12    13    1
    36    13    14    1
    37    13    15    1
    38    10     2   ar
    39    40    34   ar
    40    10     5   ar
    41    27    21   ar
    42    15     8    1
    43    32    33    1
    44    19    20    1
    45    14    16    1
@<TRIPOS>MOLECULE
*****
 41 45 0 0 0
SMALL
GASTEIGER

@<TRIPOS>ATOM
      1 C         -23.5474   52.3378  -11.5630 C.3     1  UNL1        0.1333
      2 N         -23.4512   51.8929  -10.1719 N.ar    1  UNL1       -0.2950
      3 C         -22.3495   51.8457   -9.3699 C.ar    1  UNL1        0.2019
      4 N         -22.5860   51.2984   -8.1507 N.ar    1  UNL1       -0.2134
      5 C         -23.9026   51.0292   -8.1921 C.ar    1  UNL1        0.1033
      6 C         -24.6750   50.4588   -7.1832 C.ar    1  UNL1        0.0284
      7 C         -26.0536   50.2611   -7.4225 C.ar    1  UNL1        0.0922
      8 C         -26.6159   50.6906   -8.6559 C.ar    1  UNL1        0.1793
      9 C         -25.7960   51.2370   -9.6661 C.ar    1  UNL1        0.1898
     10 C         -24.4333   51.3946   -9.3962 C.ar    1  UNL1        0.1173
     11 O         -26.3713   51.6202  -10.8816 O.3     1  UNL1       -0.4660
     12 C         -27.6975   51.2171  -11.2273 C.3     1  UNL1        0.2600
     13 C         -28.6053   51.2898   -9.9906 C.3     1  UNL1        0.2534
     14 S         -30.2313   50.5491  -10.3343 S.3     1  UNL1       -0.1227
     15 O         -27.9945   50.6136   -8.8896 O.3     1  UNL1       -0.4614
     16 H         -29.7094   49.2460  -10.4497 H       1  UNL1        0.1057
     17 C         -26.8914   49.6541   -6.3664 C.2     1  UNL1        0.2526
     18 O         -26.7550   50.0493   -5.1768 O.2     1  UNL1       -0.2697
     19 N         -27.8477   48.6276   -6.6874 N.am    1  UNL1       -0.2803
     20 H         -27.9497   48.3312   -7.6837 H       1  UNL1        0.1552
     21 C         -28.7544   48.0482   -5.7352 C.ar    1  UNL1        0.0506
     22 C         -30.0474   48.5737   -5.6164 C.ar    1  UNL1        0.0170
     23 C         -30.9584   48.0121   -4.7208 C.ar    1  UNL1        0.0309
     24 C         -30.5927   46.9122   -3.9411 C.ar    1  UNL1        0.1441
     25 F         -31.5033   46.3754   -3.0895 F       1  UNL1       -0.2042
     26 C         -29.3025   46.3604   -4.0522 C.ar    1  UNL1        0.1000
     27 C         -28.3949   46.9242   -4.9699 C.ar    1  UNL1        0.0208
     28 C         -28.9332   45.1446   -3.2357 C.3     1  UNL1        0.4207
     29 F         -28.8817   45.4790   -1.8942 F       1  UNL1       -0.1658
     30 F         -29.8888   44.1624   -3.4200 F       1  UNL1       -0.1658
     31 F         -27.6985   44.6376   -3.6032 F       1  UNL1       -0.1658
     32 N         -21.0494   52.3291   -9.7376 N.pl3   1  UNL1       -0.2814
     33 H         -20.5130   51.7816  -10.4475 H       1  UNL1        0.1551
     34 C         -20.4209   53.4855   -9.1617 C.ar    1  UNL1        0.0889
     35 C         -20.7167   54.7526   -9.6919 C.ar    1  UNL1        0.1543
     36 F         -21.5940   54.8750  -10.7198 F       1  UNL1       -0.2028
     37 C         -20.1328   55.9004   -9.1493 C.ar    1  UNL1        0.0310
     38 C         -19.2366   55.7940   -8.0849 C.ar    1  UNL1        0.0033
     39 C         -18.9110   54.5386   -7.5680 C.ar    1  UNL1        0.0128
     40 C         -19.4886   53.3805   -8.1031 C.ar    1  UNL1        0.0733
     41 CL        -18.9608   51.8255   -7.4697 Cl      1  UNL1       -0.0809
@<TRIPOS>BOND
     1     1     2    1
     2     2     3   ar
     3     3    32    1
     4    32    34    1
     5    34    35   ar
     6    35    36    1
     7    35    37   ar
     8    37    38   ar
     9    38    39   ar
    10    39    40   ar
    11    40    41    1
    12     3     4   ar
    13     4     5   ar
    14     5     6   ar
    15     6     7   ar
    16     7    17    1
    17    17    18    2
    18    17    19   am
    19    19    21    1
    20    21    22   ar
    21    22    23   ar
    22    23    24   ar
    23    24    25    1
    24    24    26   ar
    25    26    28    1
    26    28    29    1
    27    28    30    1
    28    28    31    1
    29    26    27   ar
    30     7     8   ar
    31     8     9   ar
    32     9    10   ar
    33     9    11    1
    34    11    12    1
    35    12    13    1
    36    13    14    1
    37    13    15    1
    38    10     2   ar
    39    40    34   ar
    40    10     5   ar
    41    27    21   ar
    42    15     8    1
    43    32    33    1
    44    19    20    1
    45    14    16    1
@<TRIPOS>MOLECULE
*****
 41 45 0 0 0
SMALL
GASTEIGER

@<TRIPOS>ATOM
      1 C         -22.4370   52.9309  -11.9001 C.3     1  UNL1        0.1333
      2 N         -22.5044   52.4521  -10.5187 N.ar    1  UNL1       -0.2950
      3 C         -21.5466   52.5157   -9.5503 C.ar    1  UNL1        0.2019
      4 N         -21.8992   51.8995   -8.3937 N.ar    1  UNL1       -0.2134
      5 C         -23.1462   51.4676   -8.6510 C.ar    1  UNL1        0.1033
      6 C         -23.9870   50.7683   -7.7886 C.ar    1  UNL1        0.0284
      7 C         -25.2729   50.4067   -8.2500 C.ar    1  UNL1        0.0922
      8 C         -25.6845   50.8057   -9.5513 C.ar    1  UNL1        0.1793
      9 C         -24.7938   51.4873  -10.4077 C.ar    1  UNL1        0.1898
     10 C         -23.5231   51.8061   -9.9192 C.ar    1  UNL1        0.1173
     11 O         -25.2149   51.8381  -11.6940 O.3     1  UNL1       -0.4660
     12 C         -26.4057   51.2833  -12.2551 C.3     1  UNL1        0.2600
     13 C         -27.4991   51.1962  -11.1800 C.3     1  UNL1        0.2534
     14 S         -28.9396   50.2687  -11.7927 S.3     1  UNL1       -0.1227
     15 O         -26.9869   50.5635  -10.0054 O.3     1  UNL1       -0.4614
     16 H         -28.2405   49.0470  -11.8422 H       1  UNL1        0.1057
     17 C         -26.1804   49.6611   -7.3522 C.2     1  UNL1        0.2526
     18 O         -26.1421   48.4008   -7.3552 O.2     1  UNL1       -0.2697
     19 N         -27.0949   50.3597   -6.4878 N.am    1  UNL1       -0.2803
     20 H         -27.0936   51.4041   -6.4956 H       1  UNL1        0.1552
     21 C         -27.9479   49.7124   -5.5296 C.ar    1  UNL1        0.0506
     22 C         -29.2853   49.4643   -5.8641 C.ar    1  UNL1        0.0170
     23 C         -30.1288   48.8111   -4.9644 C.ar    1  UNL1        0.0309
     24 C         -29.6438   48.3883   -3.7245 C.ar    1  UNL1        0.1441
     25 F         -30.4814   47.7412   -2.8746 F       1  UNL1       -0.2042
     26 C         -28.3004   48.6167   -3.3717 C.ar    1  UNL1        0.1000
     27 C         -27.4527   49.2629   -4.2924 C.ar    1  UNL1        0.0208
     28 C         -27.7768   48.1164   -2.0463 C.3     1  UNL1        0.4207
     29 F         -28.6286   48.5068   -1.0284 F       1  UNL1       -0.1658
     30 F         -27.7083   46.7357   -2.0734 F       1  UNL1       -0.1658
     31 F         -26.5160   48.6184   -1.7722 F       1  UNL1       -0.1658
     32 N         -20.2791   53.1725   -9.6962 N.pl3   1  UNL1       -0.2814
     33 H         -19.6004   52.7672  -10.3792 H       1  UNL1        0.1551
     34 C         -19.8665   54.3183   -8.9341 C.ar    1  UNL1        0.0889
     35 C         -18.9399   54.1421   -7.8927 C.ar    1  UNL1        0.1543
     36 F         -18.4362   52.9103   -7.6279 F       1  UNL1       -0.2028
     37 C         -18.5072   55.2358   -7.1382 C.ar    1  UNL1        0.0310
     38 C         -19.0066   56.5115   -7.4038 C.ar    1  UNL1        0.0033
     39 C         -19.9502   56.6960   -8.4162 C.ar    1  UNL1        0.0128
     40 C         -20.3925   55.6083   -9.1792 C.ar    1  UNL1        0.0733
     41 CL        -21.6538   55.8949  -10.3730 Cl      1  UNL1       -0.0809
@<TRIPOS>BOND
     1     1     2    1
     2     2     3   ar
     3     3    32    1
     4    32    34    1
     5    34    35   ar
     6    35    36    1
     7    35    37   ar
     8    37    38   ar
     9    38    39   ar
    10    39    40   ar
    11    40    41    1
    12     3     4   ar
    13     4     5   ar
    14     5     6   ar
    15     6     7   ar
    16     7    17    1
    17    17    18    2
    18    17    19   am
    19    19    21    1
    20    21    22   ar
    21    22    23   ar
    22    23    24   ar
    23    24    25    1
    24    24    26   ar
    25    26    28    1
    26    28    29    1
    27    28    30    1
    28    28    31    1
    29    26    27   ar
    30     7     8   ar
    31     8     9   ar
    32     9    10   ar
    33     9    11    1
    34    11    12    1
    35    12    13    1
    36    13    14    1
    37    13    15    1
    38    10     2   ar
    39    40    34   ar
    40    10     5   ar
    41    27    21   ar
    42    15     8    1
    43    32    33    1
    44    19    20    1
    45    14    16    1
@<TRIPOS>MOLECULE
*****
 41 45 0 0 0
SMALL
GASTEIGER

@<TRIPOS>ATOM
      1 C         -30.7568   49.3220   -8.2521 C.3     1  UNL1        0.1333
      2 N         -29.5922   49.5423   -9.1107 N.ar    1  UNL1       -0.2950
      3 C         -29.4983   49.4103  -10.4646 C.ar    1  UNL1        0.2019
      4 N         -28.2450   49.6084  -10.9459 N.ar    1  UNL1       -0.2134
      5 C         -27.5426   49.9114   -9.8403 C.ar    1  UNL1        0.1033
      6 C         -26.1857   50.2163   -9.7651 C.ar    1  UNL1        0.0284
      7 C         -25.6329   50.5143   -8.4991 C.ar    1  UNL1        0.0922
      8 C         -26.4798   50.5412   -7.3572 C.ar    1  UNL1        0.1793
      9 C         -27.8440   50.1972   -7.4679 C.ar    1  UNL1        0.1898
     10 C         -28.3453   49.8873   -8.7357 C.ar    1  UNL1        0.1173
     11 O         -28.6456   50.2004   -6.3222 O.3     1  UNL1       -0.4660
     12 C         -28.0653   50.2658   -5.0185 C.3     1  UNL1        0.2600
     13 C         -26.8784   51.2406   -5.0227 C.3     1  UNL1        0.2534
     14 S         -25.9659   51.1592   -3.4506 S.3     1  UNL1       -0.1227
     15 O         -25.9952   50.9381   -6.1047 O.3     1  UNL1       -0.4614
     16 H         -25.4943   49.8542   -3.6924 H       1  UNL1        0.1057
     17 C         -24.1940   50.8375   -8.3960 C.2     1  UNL1        0.2526
     18 O         -23.5177   50.3212   -7.4654 O.2     1  UNL1       -0.2697
     19 N         -23.5720   51.7276   -9.3406 N.am    1  UNL1       -0.2803
     20 H         -24.1537   52.1281  -10.1101 H       1  UNL1        0.1552
     21 C         -22.1666   52.0259   -9.3581 C.ar    1  UNL1        0.0506
     22 C         -21.5115   52.2986   -8.1503 C.ar    1  UNL1        0.0170
     23 C         -20.1413   52.5627   -8.1341 C.ar    1  UNL1        0.0309
     24 C         -19.4070   52.5469   -9.3224 C.ar    1  UNL1        0.1441
     25 F         -18.0726   52.7916   -9.2764 F       1  UNL1       -0.2042
     26 C         -20.0422   52.2641  -10.5462 C.ar    1  UNL1        0.1000
     27 C         -21.4225   51.9835  -10.5508 C.ar    1  UNL1        0.0208
     28 C         -19.2298   52.2072  -11.8182 C.3     1  UNL1        0.4207
     29 F         -19.6351   53.2121  -12.6784 F       1  UNL1       -0.1658
     30 F         -17.8924   52.3843  -11.5150 F       1  UNL1       -0.1658
     31 F         -19.3811   50.9941  -12.4678 F       1  UNL1       -0.1658
     32 N         -30.5981   49.1043  -11.3343 N.pl3   1  UNL1       -0.2814
     33 H         -31.5325   49.5026  -11.0904 H       1  UNL1        0.1551
     34 C         -30.5080   48.2520  -12.4872 C.ar    1  UNL1        0.0889
     35 C         -30.0526   46.9332  -12.3215 C.ar    1  UNL1        0.1543
     36 F         -29.7206   46.4752  -11.0882 F       1  UNL1       -0.2028
     37 C         -29.9632   46.0725  -13.4188 C.ar    1  UNL1        0.0310
     38 C         -30.3109   46.5235  -14.6928 C.ar    1  UNL1        0.0033
     39 C         -30.7365   47.8405  -14.8762 C.ar    1  UNL1        0.0128
     40 C         -30.8299   48.7133  -13.7850 C.ar    1  UNL1        0.0733
     41 CL        -31.2794   50.3855  -14.1007 Cl      1  UNL1       -0.0809
@<TRIPOS>BOND
     1     1     2    1
     2     2     3   ar
     3     3    32    1
     4    32    34    1
     5    34    35   ar
     6    35    36    1
     7    35    37   ar
     8    37    38   ar
     9    38    39   ar
    10    39    40   ar
    11    40    41    1
    12     3     4   ar
    13     4     5   ar
    14     5     6   ar
    15     6     7   ar
    16     7    17    1
    17    17    18    2
    18    17    19   am
    19    19    21    1
    20    21    22   ar
    21    22    23   ar
    22    23    24   ar
    23    24    25    1
    24    24    26   ar
    25    26    28    1
    26    28    29    1
    27    28    30    1
    28    28    31    1
    29    26    27   ar
    30     7     8   ar
    31     8     9   ar
    32     9    10   ar
    33     9    11    1
    34    11    12    1
    35    12    13    1
    36    13    14    1
    37    13    15    1
    38    10     2   ar
    39    40    34   ar
    40    10     5   ar
    41    27    21   ar
    42    15     8    1
    43    32    33    1
    44    19    20    1
    45    14    16    1
@<TRIPOS>MOLECULE
*****
 41 45 0 0 0
SMALL
GASTEIGER

@<TRIPOS>ATOM
      1 C         -22.2786   53.0682  -12.0453 C.3     1  UNL1        0.1333
      2 N         -22.3490   52.5176  -10.6910 N.ar    1  UNL1       -0.2950
      3 C         -21.3972   52.5400   -9.7149 C.ar    1  UNL1        0.2019
      4 N         -21.7502   51.8611   -8.5940 N.ar    1  UNL1       -0.2134
      5 C         -22.9914   51.4313   -8.8809 C.ar    1  UNL1        0.1033
      6 C         -23.8300   50.6801   -8.0611 C.ar    1  UNL1        0.0284
      7 C         -25.1097   50.3306   -8.5484 C.ar    1  UNL1        0.0922
      8 C         -25.5179   50.7928   -9.8297 C.ar    1  UNL1        0.1793
      9 C         -24.6292   51.5265  -10.6441 C.ar    1  UNL1        0.1898
     10 C         -23.3646   51.8317  -10.1320 C.ar    1  UNL1        0.1173
     11 O         -25.0467   51.9396  -11.9131 O.3     1  UNL1       -0.4660
     12 C         -26.2288   51.4034  -12.5094 C.3     1  UNL1        0.2600
     13 C         -27.3272   51.2500  -11.4469 C.3     1  UNL1        0.2534
     14 S         -28.7551   50.3419  -12.1157 S.3     1  UNL1       -0.1227
     15 O         -26.8153   50.5621  -10.3037 O.3     1  UNL1       -0.4614
     16 H         -28.0436   49.1312  -12.2243 H       1  UNL1        0.1057
     17 C         -26.0147   49.5308   -7.6961 C.2     1  UNL1        0.2526
     18 O         -26.5248   48.4782   -8.1670 O.2     1  UNL1       -0.2697
     19 N         -26.3117   49.9445   -6.3500 N.am    1  UNL1       -0.2803
     20 H         -25.8625   50.8125   -5.9816 H       1  UNL1        0.1552
     21 C         -27.1129   49.1814   -5.4332 C.ar    1  UNL1        0.0506
     22 C         -26.6304   47.9528   -4.9642 C.ar    1  UNL1        0.0170
     23 C         -27.3740   47.2044   -4.0508 C.ar    1  UNL1        0.0309
     24 C         -28.6030   47.6791   -3.5864 C.ar    1  UNL1        0.1441
     25 F         -29.2984   46.9386   -2.6861 F       1  UNL1       -0.2042
     26 C         -29.1021   48.9163   -4.0353 C.ar    1  UNL1        0.1000
     27 C         -28.3374   49.6719   -4.9454 C.ar    1  UNL1        0.0208
     28 C         -30.4113   49.4390   -3.4931 C.3     1  UNL1        0.4207
     29 F         -31.4068   48.4975   -3.6840 F       1  UNL1       -0.1658
     30 F         -30.2788   49.6882   -2.1395 F       1  UNL1       -0.1658
     31 F         -30.7955   50.6095   -4.1247 F       1  UNL1       -0.1658
     32 N         -20.1355   53.2156   -9.8187 N.pl3   1  UNL1       -0.2814
     33 H         -19.4233   52.8125  -10.4681 H       1  UNL1        0.1551
     34 C         -19.7723   54.3781   -9.0568 C.ar    1  UNL1        0.0889
     35 C         -20.4106   55.5983   -9.3359 C.ar    1  UNL1        0.1543
     36 F         -21.3637   55.6658  -10.2993 F       1  UNL1       -0.2028
     37 C         -20.0909   56.7469   -8.6069 C.ar    1  UNL1        0.0310
     38 C         -19.1208   56.6933   -7.6052 C.ar    1  UNL1        0.0033
     39 C         -18.4576   55.4941   -7.3378 C.ar    1  UNL1        0.0128
     40 C         -18.7682   54.3361   -8.0614 C.ar    1  UNL1        0.0733
     41 CL        -17.8269   52.8839   -7.7403 Cl      1  UNL1       -0.0809
@<TRIPOS>BOND
     1     1     2    1
     2     2     3   ar
     3     3    32    1
     4    32    34    1
     5    34    35   ar
     6    35    36    1
     7    35    37   ar
     8    37    38   ar
     9    38    39   ar
    10    39    40   ar
    11    40    41    1
    12     3     4   ar
    13     4     5   ar
    14     5     6   ar
    15     6     7   ar
    16     7    17    1
    17    17    18    2
    18    17    19   am
    19    19    21    1
    20    21    22   ar
    21    22    23   ar
    22    23    24   ar
    23    24    25    1
    24    24    26   ar
    25    26    28    1
    26    28    29    1
    27    28    30    1
    28    28    31    1
    29    26    27   ar
    30     7     8   ar
    31     8     9   ar
    32     9    10   ar
    33     9    11    1
    34    11    12    1
    35    12    13    1
    36    13    14    1
    37    13    15    1
    38    10     2   ar
    39    40    34   ar
    40    10     5   ar
    41    27    21   ar
    42    15     8    1
    43    32    33    1
    44    19    20    1
    45    14    16    1
