@<TRIPOS>MOLECULE
*****
 47 52 0 0 0
SMALL
GASTEIGER

@<TRIPOS>ATOM
      1 O         -24.0684   51.3875  -11.4395 O.2     1  UNL1       -0.2701
      2 C         -24.0361   51.7938  -10.2455 C.2     1  UNL1        0.2483
      3 N         -22.9320   52.5955   -9.7954 N.am    1  UNL1       -0.2945
      4 H         -22.7987   52.7355   -8.7681 H       1  UNL1        0.1501
      5 C         -25.1252   51.4099   -9.3195 C.ar    1  UNL1        0.0808
      6 C         -26.4565   51.7043   -9.6551 C.ar    1  UNL1        0.0080
      7 C         -27.5012   51.3491   -8.7983 C.ar    1  UNL1        0.0148
      8 C         -27.2374   50.6991   -7.5805 C.ar    1  UNL1        0.0502
      9 C         -25.9032   50.4248   -7.2344 C.ar    1  UNL1        0.0443
     10 C         -24.8554   50.7772   -8.0910 C.ar    1  UNL1        0.1457
     11 F         -23.5801   50.5401   -7.6917 F       1  UNL1       -0.2040
     12 N         -28.3158   50.3374   -6.6905 N.pl3   1  UNL1       -0.3040
     13 C         -28.5293   51.1207   -5.4609 C.3     1  UNL1        0.1122
     14 C         -29.8895   50.8139   -4.8334 C.3     1  UNL1        0.1122
     15 N         -30.0586   49.3607   -4.7246 N.pl3   1  UNL1       -0.3040
     16 C         -29.7750   48.5040   -5.8857 C.3     1  UNL1        0.1122
     17 C         -29.2995   49.3198   -7.0965 C.3     1  UNL1        0.1122
     18 C         -30.4120   48.7564   -3.4667 C.ar    1  UNL1        0.0496
     19 C         -30.3660   47.3608   -3.3096 C.ar    1  UNL1        0.0260
     20 C         -30.6991   46.7764   -2.0827 C.ar    1  UNL1        0.0597
     21 CL        -30.6469   45.0326   -1.8993 Cl      1  UNL1       -0.0822
     22 C         -31.0758   47.5814   -1.0032 C.ar    1  UNL1        0.0229
     23 C         -31.1191   48.9713   -1.1484 C.ar    1  UNL1        0.0597
     24 CL        -31.5830   49.9808    0.2091 Cl      1  UNL1       -0.0822
     25 C         -30.7871   49.5577   -2.3745 C.ar    1  UNL1        0.0260
     26 C         -21.9505   53.1568  -10.7297 C.3     1  UNL1        0.1535
     27 C         -21.4957   54.5112  -10.2474 C.2     1  UNL1        0.2443
     28 O         -22.3102   55.4744  -10.2313 O.2     1  UNL1       -0.2730
     29 N         -20.1469   54.6889   -9.7868 N.am    1  UNL1       -0.2825
     30 H         -19.4297   53.9940  -10.0960 H       1  UNL1        0.1549
     31 C         -19.7111   55.7825   -8.9615 C.ar    1  UNL1        0.0535
     32 C         -19.9580   57.1196   -9.3180 C.ar    1  UNL1        0.0353
     33 C         -19.5458   58.1471   -8.4660 C.ar    1  UNL1        0.1002
     34 N         -18.9223   57.8539   -7.2944 N.ar    1  UNL1       -0.2422
     35 C         -18.6865   56.5700   -6.9157 C.ar    1  UNL1        0.1002
     36 C         -19.0842   55.5128   -7.7374 C.ar    1  UNL1        0.0353
     37 C         -20.7476   52.2063  -10.8815 C.3     1  UNL1        0.0569
     38 C         -19.9948   52.0517   -9.5897 C.ar    1  UNL1       -0.0017
     39 C         -20.5204   52.1721   -8.3065 C.ar    1  UNL1        0.0681
     40 N         -19.5368   52.0821   -7.3827 N.ar    1  UNL1       -0.3523
     41 C         -18.3944   51.9155   -8.0716 C.ar    1  UNL1        0.0563
     42 C         -17.1051   51.7993   -7.5542 C.ar    1  UNL1        0.0170
     43 C         -16.0417   51.6573   -8.4644 C.ar    1  UNL1        0.0015
     44 C         -16.2877   51.6387   -9.8555 C.ar    1  UNL1        0.0001
     45 C         -17.5993   51.7612  -10.3492 C.ar    1  UNL1        0.0012
     46 C         -18.6330   51.8952   -9.4221 C.ar    1  UNL1        0.0131
     47 H         -19.6449   52.1496   -6.3463 H       1  UNL1        0.1660
@<TRIPOS>BOND
     1     1     2    2
     2     2     3   am
     3     3    26    1
     4    26    37    1
     5    37    38    1
     6    38    39   ar
     7    39    40   ar
     8    40    41   ar
     9    41    42   ar
    10    42    43   ar
    11    43    44   ar
    12    44    45   ar
    13    45    46   ar
    14    26    27    1
    15    27    28    2
    16    27    29   am
    17    29    31    1
    18    31    32   ar
    19    32    33   ar
    20    33    34   ar
    21    34    35   ar
    22    35    36   ar
    23     2     5    1
    24     5     6   ar
    25     6     7   ar
    26     7     8   ar
    27     8    12    1
    28    12    13    1
    29    13    14    1
    30    14    15    1
    31    15    18    1
    32    18    19   ar
    33    19    20   ar
    34    20    21    1
    35    20    22   ar
    36    22    23   ar
    37    23    24    1
    38    23    25   ar
    39    15    16    1
    40    16    17    1
    41     8     9   ar
    42     9    10   ar
    43    10    11    1
    44    46    38   ar
    45    36    31   ar
    46    10     5   ar
    47    46    41   ar
    48    17    12    1
    49    25    18   ar
    50     3     4    1
    51    40    47    1
    52    29    30    1
@<TRIPOS>MOLECULE
*****
 47 52 0 0 0
SMALL
GASTEIGER

@<TRIPOS>ATOM
      1 O         -22.8572   50.7447  -11.3471 O.2     1  UNL1       -0.2701
      2 C         -23.1010   51.5718  -10.4261 C.2     1  UNL1        0.2483
      3 N         -22.1827   52.6473  -10.1727 N.am    1  UNL1       -0.2945
      4 H         -22.2716   53.1842   -9.2803 H       1  UNL1        0.1501
      5 C         -24.3179   51.3999   -9.6010 C.ar    1  UNL1        0.0808
      6 C         -24.1928   51.0828   -8.2389 C.ar    1  UNL1        0.0080
      7 C         -25.3269   50.9187   -7.4398 C.ar    1  UNL1        0.0148
      8 C         -26.6136   51.0590   -7.9873 C.ar    1  UNL1        0.0502
      9 C         -26.7389   51.3541   -9.3556 C.ar    1  UNL1        0.0443
     10 C         -25.6054   51.5211  -10.1577 C.ar    1  UNL1        0.1457
     11 F         -25.7748   51.7532  -11.4841 F       1  UNL1       -0.2040
     12 N         -27.7871   50.8829   -7.1640 N.pl3   1  UNL1       -0.3040
     13 C         -27.7917   51.4185   -5.7913 C.3     1  UNL1        0.1122
     14 C         -29.2038   51.4380   -5.2051 C.3     1  UNL1        0.1122
     15 N         -29.8300   50.1258   -5.4007 N.pl3   1  UNL1       -0.3040
     16 C         -29.7852   49.4857   -6.7238 C.3     1  UNL1        0.1122
     17 C         -29.0253   50.3409   -7.7480 C.3     1  UNL1        0.1122
     18 C         -30.4091   49.4174   -4.2893 C.ar    1  UNL1        0.0496
     19 C         -30.6829   48.0426   -4.3863 C.ar    1  UNL1        0.0260
     20 C         -31.2353   47.3537   -3.3009 C.ar    1  UNL1        0.0597
     21 CL        -31.5815   45.6392   -3.4349 Cl      1  UNL1       -0.0822
     22 C         -31.5137   48.0315   -2.1100 C.ar    1  UNL1        0.0229
     23 C         -31.2395   49.3983   -2.0022 C.ar    1  UNL1        0.0597
     24 CL        -31.5806   50.2457   -0.5047 Cl      1  UNL1       -0.0822
     25 C         -30.6878   50.0891   -3.0865 C.ar    1  UNL1        0.0260
     26 C         -21.0842   52.9609  -11.0927 C.3     1  UNL1        0.1535
     27 C         -20.1980   54.0239  -10.4940 C.2     1  UNL1        0.2443
     28 O         -19.5382   54.7866  -11.2518 O.2     1  UNL1       -0.2730
     29 N         -20.1308   54.1768   -9.0674 N.am    1  UNL1       -0.2825
     30 H         -20.4197   53.3653   -8.4752 H       1  UNL1        0.1549
     31 C         -19.6538   55.3585   -8.4019 C.ar    1  UNL1        0.0535
     32 C         -18.7711   55.2850   -7.3104 C.ar    1  UNL1        0.0353
     33 C         -18.3077   56.4626   -6.7187 C.ar    1  UNL1        0.1002
     34 N         -18.6981   57.6705   -7.2045 N.ar    1  UNL1       -0.2422
     35 C         -19.5363   57.7719   -8.2696 C.ar    1  UNL1        0.1002
     36 C         -20.0214   56.6192   -8.8918 C.ar    1  UNL1        0.0353
     37 C         -20.2680   51.6928  -11.4080 C.3     1  UNL1        0.0569
     38 C         -18.8065   51.8849  -11.1138 C.ar    1  UNL1       -0.0017
     39 C         -17.7904   52.0582  -12.0492 C.ar    1  UNL1        0.0681
     40 N         -16.5849   52.0889  -11.4368 N.ar    1  UNL1       -0.3523
     41 C         -16.8305   51.9272  -10.1250 C.ar    1  UNL1        0.0563
     42 C         -15.8963   51.8643   -9.0921 C.ar    1  UNL1        0.0170
     43 C         -16.3746   51.6617   -7.7845 C.ar    1  UNL1        0.0015
     44 C         -17.7596   51.5243   -7.5421 C.ar    1  UNL1        0.0001
     45 C         -18.6791   51.5889   -8.6048 C.ar    1  UNL1        0.0012
     46 C         -18.1751   51.7959   -9.8889 C.ar    1  UNL1        0.0131
     47 H         -15.6533   52.1960  -11.8962 H       1  UNL1        0.1660
@<TRIPOS>BOND
     1     1     2    2
     2     2     3   am
     3     3    26    1
     4    26    37    1
     5    37    38    1
     6    38    39   ar
     7    39    40   ar
     8    40    41   ar
     9    41    42   ar
    10    42    43   ar
    11    43    44   ar
    12    44    45   ar
    13    45    46   ar
    14    26    27    1
    15    27    28    2
    16    27    29   am
    17    29    31    1
    18    31    32   ar
    19    32    33   ar
    20    33    34   ar
    21    34    35   ar
    22    35    36   ar
    23     2     5    1
    24     5     6   ar
    25     6     7   ar
    26     7     8   ar
    27     8    12    1
    28    12    13    1
    29    13    14    1
    30    14    15    1
    31    15    18    1
    32    18    19   ar
    33    19    20   ar
    34    20    21    1
    35    20    22   ar
    36    22    23   ar
    37    23    24    1
    38    23    25   ar
    39    15    16    1
    40    16    17    1
    41     8     9   ar
    42     9    10   ar
    43    10    11    1
    44    46    38   ar
    45    36    31   ar
    46    10     5   ar
    47    46    41   ar
    48    17    12    1
    49    25    18   ar
    50     3     4    1
    51    40    47    1
    52    29    30    1
@<TRIPOS>MOLECULE
*****
 47 52 0 0 0
SMALL
GASTEIGER

@<TRIPOS>ATOM
      1 O         -24.2446   51.7552  -11.7945 O.2     1  UNL1       -0.2701
      2 C         -23.9881   51.8470  -10.5626 C.2     1  UNL1        0.2483
      3 N         -22.8068   52.5413  -10.1306 N.am    1  UNL1       -0.2945
      4 H         -22.4859   52.4208   -9.1431 H       1  UNL1        0.1501
      5 C         -24.8966   51.2090   -9.5835 C.ar    1  UNL1        0.0808
      6 C         -24.4077   50.8461   -8.3183 C.ar    1  UNL1        0.0080
      7 C         -25.2471   50.2453   -7.3769 C.ar    1  UNL1        0.0148
      8 C         -26.5938   49.9851   -7.6830 C.ar    1  UNL1        0.0502
      9 C         -27.0772   50.3278   -8.9573 C.ar    1  UNL1        0.0443
     10 C         -26.2399   50.9312   -9.9011 C.ar    1  UNL1        0.1457
     11 F         -26.7358   51.1966  -11.1363 F       1  UNL1       -0.2040
     12 N         -27.4611   49.3579   -6.7133 N.pl3   1  UNL1       -0.3040
     13 C         -27.4889   49.8712   -5.3324 C.3     1  UNL1        0.1122
     14 C         -28.6851   49.3193   -4.5563 C.3     1  UNL1        0.1122
     15 N         -28.7391   47.8620   -4.7170 N.pl3   1  UNL1       -0.3040
     16 C         -28.6252   47.2711   -6.0587 C.3     1  UNL1        0.1122
     17 C         -28.4376   48.3428   -7.1421 C.3     1  UNL1        0.1122
     18 C         -28.8115   47.0002   -3.5661 C.ar    1  UNL1        0.0496
     19 C         -27.6782   46.2887   -3.1373 C.ar    1  UNL1        0.0260
     20 C         -27.7479   45.4604   -2.0118 C.ar    1  UNL1        0.0597
     21 CL        -26.3298   44.5696   -1.4896 Cl      1  UNL1       -0.0822
     22 C         -28.9479   45.3405   -1.3041 C.ar    1  UNL1        0.0229
     23 C         -30.0793   46.0489   -1.7200 C.ar    1  UNL1        0.0597
     24 CL        -31.5818   45.9048   -0.8262 Cl      1  UNL1       -0.0822
     25 C         -30.0120   46.8772   -2.8455 C.ar    1  UNL1        0.0260
     26 C         -22.0024   53.3498  -11.0531 C.3     1  UNL1        0.1535
     27 C         -21.6114   54.6482  -10.3936 C.2     1  UNL1        0.2443
     28 O         -22.4978   55.5053  -10.1273 O.2     1  UNL1       -0.2730
     29 N         -20.2374   54.8892  -10.0510 N.am    1  UNL1       -0.2825
     30 H         -19.5053   54.3327  -10.5480 H       1  UNL1        0.1549
     31 C         -19.8018   55.8743   -9.0986 C.ar    1  UNL1        0.0535
     32 C         -19.9566   57.2507   -9.3379 C.ar    1  UNL1        0.0353
     33 C         -19.5495   58.1688   -8.3668 C.ar    1  UNL1        0.1002
     34 N         -19.0199   57.7322   -7.1936 N.ar    1  UNL1       -0.2422
     35 C         -18.8750   56.4072   -6.9278 C.ar    1  UNL1        0.1002
     36 C         -19.2710   55.4559   -7.8708 C.ar    1  UNL1        0.0353
     37 C         -20.7493   52.5717  -11.4977 C.3     1  UNL1        0.0569
     38 C         -19.8986   52.1710  -10.3251 C.ar    1  UNL1       -0.0017
     39 C         -20.3233   52.0205   -9.0081 C.ar    1  UNL1        0.0681
     40 N         -19.2710   51.7613   -8.1991 N.ar    1  UNL1       -0.3523
     41 C         -18.1854   51.7561   -8.9920 C.ar    1  UNL1        0.0563
     42 C         -16.8598   51.5585   -8.6082 C.ar    1  UNL1        0.0170
     43 C         -15.8700   51.6210   -9.6062 C.ar    1  UNL1        0.0015
     44 C         -16.2231   51.8804  -10.9493 C.ar    1  UNL1        0.0001
     45 C         -17.5690   52.0791  -11.3070 C.ar    1  UNL1        0.0012
     46 C         -18.5278   52.0058  -10.2964 C.ar    1  UNL1        0.0131
     47 H         -19.2985   51.6158   -7.1655 H       1  UNL1        0.1660
@<TRIPOS>BOND
     1     1     2    2
     2     2     3   am
     3     3    26    1
     4    26    37    1
     5    37    38    1
     6    38    39   ar
     7    39    40   ar
     8    40    41   ar
     9    41    42   ar
    10    42    43   ar
    11    43    44   ar
    12    44    45   ar
    13    45    46   ar
    14    26    27    1
    15    27    28    2
    16    27    29   am
    17    29    31    1
    18    31    32   ar
    19    32    33   ar
    20    33    34   ar
    21    34    35   ar
    22    35    36   ar
    23     2     5    1
    24     5     6   ar
    25     6     7   ar
    26     7     8   ar
    27     8    12    1
    28    12    13    1
    29    13    14    1
    30    14    15    1
    31    15    18    1
    32    18    19   ar
    33    19    20   ar
    34    20    21    1
    35    20    22   ar
    36    22    23   ar
    37    23    24    1
    38    23    25   ar
    39    15    16    1
    40    16    17    1
    41     8     9   ar
    42     9    10   ar
    43    10    11    1
    44    46    38   ar
    45    36    31   ar
    46    10     5   ar
    47    46    41   ar
    48    17    12    1
    49    25    18   ar
    50     3     4    1
    51    40    47    1
    52    29    30    1
@<TRIPOS>MOLECULE
*****
 47 52 0 0 0
SMALL
GASTEIGER

@<TRIPOS>ATOM
      1 O         -28.2866   49.5650  -10.9045 O.2     1  UNL1       -0.2701
      2 C         -28.0093   50.6312  -10.2896 C.2     1  UNL1        0.2483
      3 N         -29.0637   51.4068   -9.6972 N.am    1  UNL1       -0.2945
      4 H         -28.8573   52.3852   -9.3925 H       1  UNL1        0.1501
      5 C         -26.6007   51.0801  -10.2160 C.ar    1  UNL1        0.0808
      6 C         -25.6531   50.5375  -11.0987 C.ar    1  UNL1        0.0080
      7 C         -24.3187   50.9479  -11.0499 C.ar    1  UNL1        0.0148
      8 C         -23.8990   51.9047  -10.1099 C.ar    1  UNL1        0.0502
      9 C         -24.8430   52.4310   -9.2116 C.ar    1  UNL1        0.0443
     10 C         -26.1800   52.0237   -9.2594 C.ar    1  UNL1        0.1457
     11 F         -27.0451   52.5195   -8.3386 F       1  UNL1       -0.2040
     12 N         -22.5184   52.3251  -10.0537 N.pl3   1  UNL1       -0.3040
     13 C         -21.6625   52.1495  -11.2402 C.3     1  UNL1        0.1122
     14 C         -20.3621   52.9437  -11.1120 C.3     1  UNL1        0.1122
     15 N         -19.7467   52.6630   -9.8102 N.pl3   1  UNL1       -0.3040
     16 C         -20.5619   52.7287   -8.5882 C.3     1  UNL1        0.1122
     17 C         -22.0238   53.0853   -8.8938 C.3     1  UNL1        0.1122
     18 C         -18.3746   52.2355   -9.7254 C.ar    1  UNL1        0.0496
     19 C         -17.7490   52.0944   -8.4751 C.ar    1  UNL1        0.0260
     20 C         -16.4188   51.6679   -8.3946 C.ar    1  UNL1        0.0597
     21 CL        -15.6441   51.5033   -6.8294 Cl      1  UNL1       -0.0822
     22 C         -15.7058   51.3750   -9.5612 C.ar    1  UNL1        0.0229
     23 C         -16.3217   51.5070  -10.8095 C.ar    1  UNL1        0.0597
     24 CL        -15.4291   51.1305  -12.2719 Cl      1  UNL1       -0.0822
     25 C         -17.6514   51.9339  -10.8923 C.ar    1  UNL1        0.0260
     26 C         -30.4317   50.8913   -9.5783 C.3     1  UNL1        0.1535
     27 C         -30.7991   50.1141  -10.8171 C.2     1  UNL1        0.2443
     28 O         -31.0488   50.7296  -11.8895 O.2     1  UNL1       -0.2730
     29 N         -30.8378   48.6789  -10.7739 N.am    1  UNL1       -0.2825
     30 H         -30.9395   48.2210   -9.8397 H       1  UNL1        0.1549
     31 C         -30.7867   47.8328  -11.9351 C.ar    1  UNL1        0.0535
     32 C         -31.5839   48.0826  -13.0655 C.ar    1  UNL1        0.0353
     33 C         -31.4733   47.2523  -14.1836 C.ar    1  UNL1        0.1002
     34 N         -30.5909   46.2185  -14.1819 N.ar    1  UNL1       -0.2422
     35 C         -29.7948   45.9643  -13.1101 C.ar    1  UNL1        0.1002
     36 C         -29.8723   46.7712  -11.9725 C.ar    1  UNL1        0.0353
     37 C         -30.5653   50.0045   -8.3256 C.3     1  UNL1        0.0569
     38 C         -29.9165   50.6359   -7.1257 C.ar    1  UNL1       -0.0017
     39 C         -30.4468   51.6541   -6.3386 C.ar    1  UNL1        0.0681
     40 N         -29.5452   52.0542   -5.4133 N.ar    1  UNL1       -0.3523
     41 C         -28.4478   51.3044   -5.6156 C.ar    1  UNL1        0.0563
     42 C         -27.2402   51.3701   -4.9222 C.ar    1  UNL1        0.0170
     43 C         -26.2057   50.5032   -5.3198 C.ar    1  UNL1        0.0015
     44 C         -26.3982   49.6034   -6.3917 C.ar    1  UNL1        0.0001
     45 C         -27.6269   49.5614   -7.0755 C.ar    1  UNL1        0.0012
     46 C         -28.6349   50.4291   -6.6548 C.ar    1  UNL1        0.0131
     47 H         -29.6728   52.8075   -4.7016 H       1  UNL1        0.1660
@<TRIPOS>BOND
     1     1     2    2
     2     2     3   am
     3     3    26    1
     4    26    37    1
     5    37    38    1
     6    38    39   ar
     7    39    40   ar
     8    40    41   ar
     9    41    42   ar
    10    42    43   ar
    11    43    44   ar
    12    44    45   ar
    13    45    46   ar
    14    26    27    1
    15    27    28    2
    16    27    29   am
    17    29    31    1
    18    31    32   ar
    19    32    33   ar
    20    33    34   ar
    21    34    35   ar
    22    35    36   ar
    23     2     5    1
    24     5     6   ar
    25     6     7   ar
    26     7     8   ar
    27     8    12    1
    28    12    13    1
    29    13    14    1
    30    14    15    1
    31    15    18    1
    32    18    19   ar
    33    19    20   ar
    34    20    21    1
    35    20    22   ar
    36    22    23   ar
    37    23    24    1
    38    23    25   ar
    39    15    16    1
    40    16    17    1
    41     8     9   ar
    42     9    10   ar
    43    10    11    1
    44    46    38   ar
    45    36    31   ar
    46    10     5   ar
    47    46    41   ar
    48    17    12    1
    49    25    18   ar
    50     3     4    1
    51    40    47    1
    52    29    30    1
@<TRIPOS>MOLECULE
*****
 47 52 0 0 0
SMALL
GASTEIGER

@<TRIPOS>ATOM
      1 O         -28.2567   49.4351  -10.7154 O.2     1  UNL1       -0.2701
      2 C         -27.9961   50.5601  -10.2073 C.2     1  UNL1        0.2483
      3 N         -29.0668   51.3946   -9.7368 N.am    1  UNL1       -0.2945
      4 H         -28.8669   52.3996   -9.5301 H       1  UNL1        0.1501
      5 C         -26.5889   51.0135  -10.1330 C.ar    1  UNL1        0.0808
      6 C         -25.6392   50.4736  -11.0151 C.ar    1  UNL1        0.0080
      7 C         -24.3061   50.8882  -10.9657 C.ar    1  UNL1        0.0148
      8 C         -23.8899   51.8465  -10.0257 C.ar    1  UNL1        0.0502
      9 C         -24.8360   52.3700   -9.1280 C.ar    1  UNL1        0.0443
     10 C         -26.1717   51.9585   -9.1764 C.ar    1  UNL1        0.1457
     11 F         -27.0388   52.4518   -8.2562 F       1  UNL1       -0.2040
     12 N         -22.5106   52.2711   -9.9688 N.pl3   1  UNL1       -0.3040
     13 C         -21.6619   52.1268  -11.1646 C.3     1  UNL1        0.1122
     14 C         -20.3639   52.9232  -11.0266 C.3     1  UNL1        0.1122
     15 N         -19.7387   52.6148   -9.7357 N.pl3   1  UNL1       -0.3040
     16 C         -20.5460   52.6487   -8.5072 C.3     1  UNL1        0.1122
     17 C         -22.0113   53.0062   -8.7948 C.3     1  UNL1        0.1122
     18 C         -18.3644   52.1911   -9.6700 C.ar    1  UNL1        0.0496
     19 C         -17.6440   51.9266  -10.8471 C.ar    1  UNL1        0.0260
     20 C         -16.3051   51.5259  -10.7813 C.ar    1  UNL1        0.0597
     21 CL        -15.4170   51.1896  -12.2562 Cl      1  UNL1       -0.0822
     22 C         -15.6750   51.3910   -9.5403 C.ar    1  UNL1        0.0229
     23 C         -16.3820   51.6574   -8.3639 C.ar    1  UNL1        0.0597
     24 CL        -15.5880   51.4968   -6.8080 Cl      1  UNL1       -0.0822
     25 C         -17.7211   52.0576   -8.4275 C.ar    1  UNL1        0.0260
     26 C         -30.4403   50.8954   -9.6113 C.3     1  UNL1        0.1535
     27 C         -30.8301   50.1405  -10.8571 C.2     1  UNL1        0.2443
     28 O         -31.1170   50.7758  -11.9084 O.2     1  UNL1       -0.2730
     29 N         -30.8479   48.7042  -10.8451 N.am    1  UNL1       -0.2825
     30 H         -30.9180   48.2245   -9.9190 H       1  UNL1        0.1549
     31 C         -30.8163   47.8848  -12.0259 C.ar    1  UNL1        0.0535
     32 C         -31.5839   48.1971  -13.1613 C.ar    1  UNL1        0.0353
     33 C         -31.4929   47.3898  -14.2978 C.ar    1  UNL1        0.1002
     34 N         -30.6574   46.3178  -14.3088 N.ar    1  UNL1       -0.2422
     35 C         -29.8902   46.0025  -13.2321 C.ar    1  UNL1        0.1002
     36 C         -29.9495   46.7846  -12.0763 C.ar    1  UNL1        0.0353
     37 C         -30.5732   49.9929   -8.3698 C.3     1  UNL1        0.0569
     38 C         -29.9526   50.6238   -7.1549 C.ar    1  UNL1       -0.0017
     39 C         -30.4880   51.6611   -6.3967 C.ar    1  UNL1        0.0681
     40 N         -29.6102   52.0526   -5.4452 N.ar    1  UNL1       -0.3523
     41 C         -28.5225   51.2784   -5.6023 C.ar    1  UNL1        0.0563
     42 C         -27.3380   51.3268   -4.8686 C.ar    1  UNL1        0.0170
     43 C         -26.3089   50.4347   -5.2219 C.ar    1  UNL1        0.0015
     44 C         -26.4835   49.5275   -6.2906 C.ar    1  UNL1        0.0001
     45 C         -27.6889   49.5033   -7.0155 C.ar    1  UNL1        0.0012
     46 C         -28.6923   50.3959   -6.6383 C.ar    1  UNL1        0.0131
     47 H         -29.7462   52.8160   -4.7458 H       1  UNL1        0.1660
@<TRIPOS>BOND
     1     1     2    2
     2     2     3   am
     3     3    26    1
     4    26    37    1
     5    37    38    1
     6    38    39   ar
     7    39    40   ar
     8    40    41   ar
     9    41    42   ar
    10    42    43   ar
    11    43    44   ar
    12    44    45   ar
    13    45    46   ar
    14    26    27    1
    15    27    28    2
    16    27    29   am
    17    29    31    1
    18    31    32   ar
    19    32    33   ar
    20    33    34   ar
    21    34    35   ar
    22    35    36   ar
    23     2     5    1
    24     5     6   ar
    25     6     7   ar
    26     7     8   ar
    27     8    12    1
    28    12    13    1
    29    13    14    1
    30    14    15    1
    31    15    18    1
    32    18    19   ar
    33    19    20   ar
    34    20    21    1
    35    20    22   ar
    36    22    23   ar
    37    23    24    1
    38    23    25   ar
    39    15    16    1
    40    16    17    1
    41     8     9   ar
    42     9    10   ar
    43    10    11    1
    44    46    38   ar
    45    36    31   ar
    46    10     5   ar
    47    46    41   ar
    48    17    12    1
    49    25    18   ar
    50     3     4    1
    51    40    47    1
    52    29    30    1
@<TRIPOS>MOLECULE
*****
 47 52 0 0 0
SMALL
GASTEIGER

@<TRIPOS>ATOM
      1 O         -27.1749   47.6055   -9.8306 O.2     1  UNL1       -0.2701
      2 C         -27.1607   48.6503   -9.1236 C.2     1  UNL1        0.2483
      3 N         -28.2627   48.9315   -8.2457 N.am    1  UNL1       -0.2945
      4 H         -28.3503   49.8913   -7.8409 H       1  UNL1        0.1501
      5 C         -26.0186   49.5855   -9.2349 C.ar    1  UNL1        0.0808
      6 C         -25.6580   50.0925  -10.4937 C.ar    1  UNL1        0.0080
      7 C         -24.5858   50.9786  -10.6229 C.ar    1  UNL1        0.0148
      8 C         -23.8429   51.3710   -9.4963 C.ar    1  UNL1        0.0502
      9 C         -24.1898   50.8458   -8.2398 C.ar    1  UNL1        0.0443
     10 C         -25.2641   49.9603   -8.1069 C.ar    1  UNL1        0.1457
     11 F         -25.5297   49.4378   -6.8827 F       1  UNL1       -0.2040
     12 N         -22.7298   52.2817   -9.6293 N.pl3   1  UNL1       -0.3040
     13 C         -21.7024   52.3233   -8.5740 C.3     1  UNL1        0.1122
     14 C         -20.4566   53.0788   -9.0381 C.3     1  UNL1        0.1122
     15 N         -20.8559   54.3660   -9.6178 N.pl3   1  UNL1       -0.3040
     16 C         -21.9389   54.4144  -10.6113 C.3     1  UNL1        0.1122
     17 C         -22.5269   53.0228  -10.8853 C.3     1  UNL1        0.1122
     18 C         -20.2602   55.5931   -9.1574 C.ar    1  UNL1        0.0496
     19 C         -20.5158   56.8027   -9.8252 C.ar    1  UNL1        0.0260
     20 C         -19.9448   57.9960   -9.3693 C.ar    1  UNL1        0.0597
     21 CL        -20.2631   59.4995  -10.2151 Cl      1  UNL1       -0.0822
     22 C         -19.1187   57.9905   -8.2412 C.ar    1  UNL1        0.0229
     23 C         -18.8631   56.7926   -7.5669 C.ar    1  UNL1        0.0597
     24 CL        -17.8340   56.7882   -6.1464 Cl      1  UNL1       -0.0822
     25 C         -19.4326   55.5982   -8.0215 C.ar    1  UNL1        0.0260
     26 C         -29.3024   47.9359   -7.9641 C.3     1  UNL1        0.1535
     27 C         -29.3585   47.6539   -6.4838 C.2     1  UNL1        0.2443
     28 O         -29.6156   46.4870   -6.0796 O.2     1  UNL1       -0.2730
     29 N         -29.0944   48.7091   -5.5457 N.am    1  UNL1       -0.2825
     30 H         -29.1970   49.6949   -5.8780 H       1  UNL1        0.1549
     31 C         -28.7378   48.4974   -4.1691 C.ar    1  UNL1        0.0535
     32 C         -27.3957   48.4334   -3.7562 C.ar    1  UNL1        0.0353
     33 C         -27.0991   48.2611   -2.4020 C.ar    1  UNL1        0.1002
     34 N         -28.1023   48.1695   -1.4894 N.ar    1  UNL1       -0.2422
     35 C         -29.4083   48.2461   -1.8577 C.ar    1  UNL1        0.1002
     36 C         -29.7485   48.4199   -3.2012 C.ar    1  UNL1        0.0353
     37 C         -30.6709   48.4291   -8.4715 C.3     1  UNL1        0.0569
     38 C         -30.6172   48.8233   -9.9210 C.ar    1  UNL1       -0.0017
     39 C         -30.8861   50.0842  -10.4458 C.ar    1  UNL1        0.0681
     40 N         -30.8507   50.0507  -11.7973 N.ar    1  UNL1       -0.3523
     41 C         -30.5714   48.7784  -12.1301 C.ar    1  UNL1        0.0563
     42 C         -30.4573   48.2465  -13.4137 C.ar    1  UNL1        0.0170
     43 C         -30.1833   46.8717  -13.5337 C.ar    1  UNL1        0.0015
     44 C         -30.0350   46.0680  -12.3813 C.ar    1  UNL1        0.0001
     45 C         -30.1586   46.6317  -11.0984 C.ar    1  UNL1        0.0012
     46 C         -30.4252   47.9982  -11.0117 C.ar    1  UNL1        0.0131
     47 H         -31.0259   50.8493  -12.4469 H       1  UNL1        0.1660
@<TRIPOS>BOND
     1     1     2    2
     2     2     3   am
     3     3    26    1
     4    26    37    1
     5    37    38    1
     6    38    39   ar
     7    39    40   ar
     8    40    41   ar
     9    41    42   ar
    10    42    43   ar
    11    43    44   ar
    12    44    45   ar
    13    45    46   ar
    14    26    27    1
    15    27    28    2
    16    27    29   am
    17    29    31    1
    18    31    32   ar
    19    32    33   ar
    20    33    34   ar
    21    34    35   ar
    22    35    36   ar
    23     2     5    1
    24     5     6   ar
    25     6     7   ar
    26     7     8   ar
    27     8    12    1
    28    12    13    1
    29    13    14    1
    30    14    15    1
    31    15    18    1
    32    18    19   ar
    33    19    20   ar
    34    20    21    1
    35    20    22   ar
    36    22    23   ar
    37    23    24    1
    38    23    25   ar
    39    15    16    1
    40    16    17    1
    41     8     9   ar
    42     9    10   ar
    43    10    11    1
    44    46    38   ar
    45    36    31   ar
    46    10     5   ar
    47    46    41   ar
    48    17    12    1
    49    25    18   ar
    50     3     4    1
    51    40    47    1
    52    29    30    1
@<TRIPOS>MOLECULE
*****
 47 52 0 0 0
SMALL
GASTEIGER

@<TRIPOS>ATOM
      1 O         -27.2183   47.6326   -9.8418 O.2     1  UNL1       -0.2701
      2 C         -27.1506   48.6260   -9.0670 C.2     1  UNL1        0.2483
      3 N         -28.1952   48.8535   -8.1072 N.am    1  UNL1       -0.2945
      4 H         -28.2480   49.7835   -7.6331 H       1  UNL1        0.1501
      5 C         -26.0071   49.5588   -9.1827 C.ar    1  UNL1        0.0808
      6 C         -25.6618   50.0796  -10.4401 C.ar    1  UNL1        0.0080
      7 C         -24.5884   50.9638  -10.5733 C.ar    1  UNL1        0.0148
      8 C         -23.8293   51.3406   -9.4523 C.ar    1  UNL1        0.0502
      9 C         -24.1610   50.8016   -8.1975 C.ar    1  UNL1        0.0443
     10 C         -25.2362   49.9179   -8.0606 C.ar    1  UNL1        0.1457
     11 F         -25.4871   49.3819   -6.8392 F       1  UNL1       -0.2040
     12 N         -22.7151   52.2493   -9.5895 N.pl3   1  UNL1       -0.3040
     13 C         -21.6947   52.3043   -8.5279 C.3     1  UNL1        0.1122
     14 C         -20.4457   53.0536   -8.9933 C.3     1  UNL1        0.1122
     15 N         -20.8408   54.3333   -9.5922 N.pl3   1  UNL1       -0.3040
     16 C         -21.9170   54.3691  -10.5936 C.3     1  UNL1        0.1122
     17 C         -22.5036   52.9741  -10.8536 C.3     1  UNL1        0.1122
     18 C         -20.2479   55.5661   -9.1437 C.ar    1  UNL1        0.0496
     19 C         -20.5041   56.7682   -9.8248 C.ar    1  UNL1        0.0260
     20 C         -19.9358   57.9671   -9.3804 C.ar    1  UNL1        0.0597
     21 CL        -20.2548   59.4611  -10.2426 Cl      1  UNL1       -0.0822
     22 C         -19.1119   57.9748   -8.2507 C.ar    1  UNL1        0.0229
     23 C         -18.8558   56.7846   -7.5633 C.ar    1  UNL1        0.0597
     24 CL        -17.8294   56.7968   -6.1408 Cl      1  UNL1       -0.0822
     25 C         -19.4225   55.5846   -8.0063 C.ar    1  UNL1        0.0260
     26 C         -29.2270   47.8479   -7.8322 C.3     1  UNL1        0.1535
     27 C         -29.2568   47.5297   -6.3585 C.2     1  UNL1        0.2443
     28 O         -29.2974   46.3271   -5.9799 O.2     1  UNL1       -0.2730
     29 N         -29.2137   48.5960   -5.3971 N.am    1  UNL1       -0.2825
     30 H         -29.4937   49.5517   -5.7149 H       1  UNL1        0.1549
     31 C         -28.8497   48.4265   -4.0167 C.ar    1  UNL1        0.0535
     32 C         -27.5053   48.3745   -3.6093 C.ar    1  UNL1        0.0353
     33 C         -27.2013   48.2437   -2.2521 C.ar    1  UNL1        0.1002
     34 N         -28.1995   48.1807   -1.3317 N.ar    1  UNL1       -0.2422
     35 C         -29.5075   48.2465   -1.6949 C.ar    1  UNL1        0.1002
     36 C         -29.8551   48.3792   -3.0413 C.ar    1  UNL1        0.0353
     37 C         -30.6054   48.3487   -8.3040 C.3     1  UNL1        0.0569
     38 C         -30.6427   48.5540   -9.7925 C.ar    1  UNL1       -0.0017
     39 C         -30.9390   47.5912  -10.7531 C.ar    1  UNL1        0.0681
     40 N         -30.7698   48.0964  -11.9962 N.ar    1  UNL1       -0.3523
     41 C         -30.3606   49.3659  -11.8286 C.ar    1  UNL1        0.0563
     42 C         -30.0314   50.2857  -12.8231 C.ar    1  UNL1        0.0170
     43 C         -29.5976   51.5622  -12.4207 C.ar    1  UNL1        0.0015
     44 C         -29.5000   51.8855  -11.0489 C.ar    1  UNL1        0.0001
     45 C         -29.8360   50.9359  -10.0669 C.ar    1  UNL1        0.0012
     46 C         -30.2678   49.6811  -10.4970 C.ar    1  UNL1        0.0131
     47 H         -30.9100   47.5923  -12.8998 H       1  UNL1        0.1660
@<TRIPOS>BOND
     1     1     2    2
     2     2     3   am
     3     3    26    1
     4    26    37    1
     5    37    38    1
     6    38    39   ar
     7    39    40   ar
     8    40    41   ar
     9    41    42   ar
    10    42    43   ar
    11    43    44   ar
    12    44    45   ar
    13    45    46   ar
    14    26    27    1
    15    27    28    2
    16    27    29   am
    17    29    31    1
    18    31    32   ar
    19    32    33   ar
    20    33    34   ar
    21    34    35   ar
    22    35    36   ar
    23     2     5    1
    24     5     6   ar
    25     6     7   ar
    26     7     8   ar
    27     8    12    1
    28    12    13    1
    29    13    14    1
    30    14    15    1
    31    15    18    1
    32    18    19   ar
    33    19    20   ar
    34    20    21    1
    35    20    22   ar
    36    22    23   ar
    37    23    24    1
    38    23    25   ar
    39    15    16    1
    40    16    17    1
    41     8     9   ar
    42     9    10   ar
    43    10    11    1
    44    46    38   ar
    45    36    31   ar
    46    10     5   ar
    47    46    41   ar
    48    17    12    1
    49    25    18   ar
    50     3     4    1
    51    40    47    1
    52    29    30    1
@<TRIPOS>MOLECULE
*****
 47 52 0 0 0
SMALL
GASTEIGER

@<TRIPOS>ATOM
      1 O         -27.2017   47.4759   -9.5370 O.2     1  UNL1       -0.2701
      2 C         -27.2218   48.5735   -8.9154 C.2     1  UNL1        0.2483
      3 N         -28.3614   48.9154   -8.1099 N.am    1  UNL1       -0.2945
      4 H         -28.4700   49.9036   -7.7868 H       1  UNL1        0.1501
      5 C         -26.0798   49.5053   -9.0524 C.ar    1  UNL1        0.0808
      6 C         -25.7716   50.0435  -10.3121 C.ar    1  UNL1        0.0080
      7 C         -24.7003   50.9270  -10.4653 C.ar    1  UNL1        0.0148
      8 C         -23.9062   51.2856   -9.3627 C.ar    1  UNL1        0.0502
      9 C         -24.2009   50.7292   -8.1062 C.ar    1  UNL1        0.0443
     10 C         -25.2740   49.8461   -7.9493 C.ar    1  UNL1        0.1457
     11 F         -25.4889   49.2929   -6.7288 F       1  UNL1       -0.2040
     12 N         -22.7942   52.1936   -9.5207 N.pl3   1  UNL1       -0.3040
     13 C         -21.7569   52.2518   -8.4758 C.3     1  UNL1        0.1122
     14 C         -20.5153   52.9992   -8.9637 C.3     1  UNL1        0.1122
     15 N         -20.9197   54.2771   -9.5603 N.pl3   1  UNL1       -0.3040
     16 C         -22.0119   54.3099  -10.5443 C.3     1  UNL1        0.1122
     17 C         -22.6029   52.9142  -10.7904 C.3     1  UNL1        0.1122
     18 C         -20.3195   55.5112   -9.1254 C.ar    1  UNL1        0.0496
     19 C         -19.4747   55.5349   -8.0027 C.ar    1  UNL1        0.0260
     20 C         -18.8834   56.7335   -7.5886 C.ar    1  UNL1        0.0597
     21 CL        -17.8373   56.7543   -6.1806 Cl      1  UNL1       -0.0822
     22 C         -19.1276   57.9153   -8.2949 C.ar    1  UNL1        0.0229
     23 C         -19.9622   57.9003   -9.4165 C.ar    1  UNL1        0.0597
     24 CL        -20.2606   59.3817  -10.3073 Cl      1  UNL1       -0.0822
     25 C         -20.5550   56.7031   -9.8320 C.ar    1  UNL1        0.0260
     26 C         -29.4082   47.9377   -7.7941 C.3     1  UNL1        0.1535
     27 C         -29.4396   47.6778   -6.3091 C.2     1  UNL1        0.2443
     28 O         -29.7276   46.5262   -5.8825 O.2     1  UNL1       -0.2730
     29 N         -29.1175   48.7357   -5.3924 N.am    1  UNL1       -0.2825
     30 H         -29.1934   49.7199   -5.7363 H       1  UNL1        0.1549
     31 C         -28.7366   48.5303   -4.0214 C.ar    1  UNL1        0.0535
     32 C         -27.3875   48.4913   -3.6285 C.ar    1  UNL1        0.0353
     33 C         -27.0677   48.3241   -2.2789 C.ar    1  UNL1        0.1002
     34 N         -28.0553   48.2135   -1.3517 N.ar    1  UNL1       -0.2422
     35 C         -29.3679   48.2656   -1.7004 C.ar    1  UNL1        0.1002
     36 C         -29.7312   48.4336   -3.0387 C.ar    1  UNL1        0.0353
     37 C         -30.7797   48.4414   -8.2828 C.3     1  UNL1        0.0569
     38 C         -30.7998   48.6420   -9.7723 C.ar    1  UNL1       -0.0017
     39 C         -31.1690   47.7005  -10.7288 C.ar    1  UNL1        0.0681
     40 N         -30.9602   48.1853  -11.9740 N.ar    1  UNL1       -0.3523
     41 C         -30.4540   49.4201  -11.8117 C.ar    1  UNL1        0.0563
     42 C         -30.0537   50.3069  -12.8101 C.ar    1  UNL1        0.0170
     43 C         -29.5227   51.5479  -12.4131 C.ar    1  UNL1        0.0015
     44 C         -29.4014   51.8691  -11.0427 C.ar    1  UNL1        0.0001
     45 C         -29.8108   50.9529  -10.0568 C.ar    1  UNL1        0.0012
     46 C         -30.3381   49.7333  -10.4815 C.ar    1  UNL1        0.0131
     47 H         -31.1382   47.6893  -12.8755 H       1  UNL1        0.1660
@<TRIPOS>BOND
     1     1     2    2
     2     2     3   am
     3     3    26    1
     4    26    37    1
     5    37    38    1
     6    38    39   ar
     7    39    40   ar
     8    40    41   ar
     9    41    42   ar
    10    42    43   ar
    11    43    44   ar
    12    44    45   ar
    13    45    46   ar
    14    26    27    1
    15    27    28    2
    16    27    29   am
    17    29    31    1
    18    31    32   ar
    19    32    33   ar
    20    33    34   ar
    21    34    35   ar
    22    35    36   ar
    23     2     5    1
    24     5     6   ar
    25     6     7   ar
    26     7     8   ar
    27     8    12    1
    28    12    13    1
    29    13    14    1
    30    14    15    1
    31    15    18    1
    32    18    19   ar
    33    19    20   ar
    34    20    21    1
    35    20    22   ar
    36    22    23   ar
    37    23    24    1
    38    23    25   ar
    39    15    16    1
    40    16    17    1
    41     8     9   ar
    42     9    10   ar
    43    10    11    1
    44    46    38   ar
    45    36    31   ar
    46    10     5   ar
    47    46    41   ar
    48    17    12    1
    49    25    18   ar
    50     3     4    1
    51    40    47    1
    52    29    30    1
@<TRIPOS>MOLECULE
*****
 47 52 0 0 0
SMALL
GASTEIGER

@<TRIPOS>ATOM
      1 O         -28.8452   50.8726   -9.5543 O.2     1  UNL1       -0.2701
      2 C         -27.8967   50.0835   -9.2908 C.2     1  UNL1        0.2483
      3 N         -28.1837   48.7407   -8.8678 N.am    1  UNL1       -0.2945
      4 H         -27.4164   48.1737   -8.4407 H       1  UNL1        0.1501
      5 C         -26.5015   50.5672   -9.3936 C.ar    1  UNL1        0.0808
      6 C         -25.9605   50.8597  -10.6558 C.ar    1  UNL1        0.0080
      7 C         -24.6472   51.3203  -10.7773 C.ar    1  UNL1        0.0148
      8 C         -23.8410   51.4902   -9.6388 C.ar    1  UNL1        0.0502
      9 C         -24.3754   51.1758   -8.3775 C.ar    1  UNL1        0.0443
     10 C         -25.6904   50.7166   -8.2525 C.ar    1  UNL1        0.1457
     11 F         -26.1467   50.3757   -7.0206 F       1  UNL1       -0.2040
     12 N         -22.4809   51.9597   -9.7633 N.pl3   1  UNL1       -0.3040
     13 C         -21.6914   51.5763  -10.9468 C.3     1  UNL1        0.1122
     14 C         -20.4245   52.4235  -11.0704 C.3     1  UNL1        0.1122
     15 N         -19.7185   52.4337   -9.7844 N.pl3   1  UNL1       -0.3040
     16 C         -20.4601   52.7183   -8.5469 C.3     1  UNL1        0.1122
     17 C         -21.9530   52.9558   -8.8161 C.3     1  UNL1        0.1122
     18 C         -18.3252   52.0790   -9.7107 C.ar    1  UNL1        0.0496
     19 C         -17.5844   51.8564  -10.8838 C.ar    1  UNL1        0.0260
     20 C         -16.2276   51.5229  -10.8102 C.ar    1  UNL1        0.0597
     21 CL        -15.3137   51.2383  -12.2803 Cl      1  UNL1       -0.0822
     22 C         -15.6001   51.4139   -9.5655 C.ar    1  UNL1        0.0229
     23 C         -16.3276   51.6391   -8.3929 C.ar    1  UNL1        0.0597
     24 CL        -15.5372   51.5111   -6.8322 Cl      1  UNL1       -0.0822
     25 C         -17.6846   51.9721   -8.4643 C.ar    1  UNL1        0.0260
     26 C         -29.5342   48.1744   -8.9503 C.3     1  UNL1        0.1535
     27 C         -30.3849   48.7042   -7.8236 C.2     1  UNL1        0.2443
     28 O         -31.3518   48.0169   -7.3946 O.2     1  UNL1       -0.2730
     29 N         -30.0735   49.9749   -7.2307 N.am    1  UNL1       -0.2825
     30 H         -29.4950   50.6446   -7.7869 H       1  UNL1        0.1549
     31 C         -30.5394   50.4010   -5.9391 C.ar    1  UNL1        0.0535
     32 C         -30.5896   49.5196   -4.8453 C.ar    1  UNL1        0.0353
     33 C         -31.0168   49.9894   -3.6010 C.ar    1  UNL1        0.1002
     34 N         -31.3686   51.2933   -3.4474 N.ar    1  UNL1       -0.2422
     35 C         -31.3129   52.1720   -4.4828 C.ar    1  UNL1        0.1002
     36 C         -30.8895   51.7439   -5.7432 C.ar    1  UNL1        0.0353
     37 C         -30.1744   48.5064  -10.3118 C.3     1  UNL1        0.0569
     38 C         -29.9609   47.4033  -11.3102 C.ar    1  UNL1       -0.0017
     39 C         -29.1895   46.2593  -11.1265 C.ar    1  UNL1        0.0681
     40 N         -29.1307   45.5406  -12.2707 N.ar    1  UNL1       -0.3523
     41 C         -29.8499   46.2253  -13.1768 C.ar    1  UNL1        0.0563
     42 C         -30.0598   45.8933  -14.5144 C.ar    1  UNL1        0.0170
     43 C         -30.8299   46.7730  -15.2972 C.ar    1  UNL1        0.0015
     44 C         -31.3634   47.9531  -14.7328 C.ar    1  UNL1        0.0001
     45 C         -31.1325   48.2641  -13.3804 C.ar    1  UNL1        0.0012
     46 C         -30.3699   47.3700  -12.6288 C.ar    1  UNL1        0.0131
     47 H         -28.6131   44.6461  -12.4207 H       1  UNL1        0.1660
@<TRIPOS>BOND
     1     1     2    2
     2     2     3   am
     3     3    26    1
     4    26    37    1
     5    37    38    1
     6    38    39   ar
     7    39    40   ar
     8    40    41   ar
     9    41    42   ar
    10    42    43   ar
    11    43    44   ar
    12    44    45   ar
    13    45    46   ar
    14    26    27    1
    15    27    28    2
    16    27    29   am
    17    29    31    1
    18    31    32   ar
    19    32    33   ar
    20    33    34   ar
    21    34    35   ar
    22    35    36   ar
    23     2     5    1
    24     5     6   ar
    25     6     7   ar
    26     7     8   ar
    27     8    12    1
    28    12    13    1
    29    13    14    1
    30    14    15    1
    31    15    18    1
    32    18    19   ar
    33    19    20   ar
    34    20    21    1
    35    20    22   ar
    36    22    23   ar
    37    23    24    1
    38    23    25   ar
    39    15    16    1
    40    16    17    1
    41     8     9   ar
    42     9    10   ar
    43    10    11    1
    44    46    38   ar
    45    36    31   ar
    46    10     5   ar
    47    46    41   ar
    48    17    12    1
    49    25    18   ar
    50     3     4    1
    51    40    47    1
    52    29    30    1
