@<TRIPOS>MOLECULE
*****
 37 41 0 0 0
SMALL
GASTEIGER

@<TRIPOS>ATOM
      1 C          46.4398   13.5819  -25.7937 C.2     1  UNL1        0.2494
      2 O          45.7581   14.4400  -25.1700 O.2     1  UNL1       -0.2699
      3 N          47.3583   12.7515  -25.0611 N.am    1  UNL1       -0.2675
      4 C          46.7987   11.8338  -24.0621 C.3     1  UNL1        0.1413
      5 C          47.6872   11.7574  -22.8258 C.3     1  UNL1        0.2268
      6 O          48.8150   10.8998  -23.0115 O.3     1  UNL1       -0.4739
      7 C          49.4513   10.5664  -24.2207 C.ar    1  UNL1        0.1362
      8 C          50.1629    9.3616  -24.2355 C.ar    1  UNL1        0.0366
      9 C          50.7704    8.8973  -25.4006 C.ar    1  UNL1        0.0031
     10 C          50.6896    9.6393  -26.5857 C.ar    1  UNL1       -0.0000
     11 C          50.0145   10.8699  -26.5719 C.ar    1  UNL1        0.0004
     12 C          49.3972   11.3566  -25.4015 C.ar    1  UNL1        0.0322
     13 C          48.7864   12.7475  -25.4438 C.3     1  UNL1        0.1304
     14 C          51.3081    9.1349  -27.8376 C.ar    1  UNL1        0.0015
     15 C          52.6717    9.4132  -28.1346 C.ar    1  UNL1        0.0016
     16 C          53.2632    8.9369  -29.3201 C.ar    1  UNL1        0.0206
     17 C          52.4709    8.1885  -30.1844 C.ar    1  UNL1        0.0985
     18 N          52.8254    7.6380  -31.3594 N.ar    1  UNL1       -0.2241
     19 C          51.6794    7.0303  -31.7661 C.ar    1  UNL1        0.1750
     20 N          50.6493    7.1833  -30.8995 N.ar    1  UNL1       -0.3349
     21 C          51.1670    7.9174  -29.9081 C.ar    1  UNL1        0.0757
     22 C          50.5428    8.3680  -28.7493 C.ar    1  UNL1        0.0185
     23 H          49.6769    6.8129  -30.9879 H       1  UNL1        0.1675
     24 C          46.5383   10.6714  -29.8727 C.3     1  UNL1        0.0324
     25 C          46.3013   12.0296  -29.2664 C.ar    1  UNL1       -0.0046
     26 C          46.4572   12.1828  -27.8774 C.ar    1  UNL1        0.0015
     27 C          46.2692   13.4301  -27.2593 C.ar    1  UNL1        0.0534
     28 C          45.9005   14.5295  -28.0458 C.ar    1  UNL1        0.0058
     29 C          45.7529   14.3941  -29.4261 C.ar    1  UNL1        0.0182
     30 C          45.9660   13.1584  -30.0551 C.ar    1  UNL1        0.1018
     31 S          45.7620   13.0696  -31.8142 S.O2    1  UNL1        0.0101
     32 C          44.1665   12.3818  -32.1983 C.3     1  UNL1        0.1816
     33 O          46.8431   12.2305  -32.4349 O.2     1  UNL1       -0.1686
     34 O          45.8460   14.4505  -32.4024 O.2     1  UNL1       -0.1686
     35 C          49.6241   13.7487  -24.6251 C.3     1  UNL1        0.1615
     36 O          50.8449   14.0169  -25.2610 O.3     1  UNL1       -0.3799
     37 H          50.6764   14.7570  -25.9004 H       1  UNL1        0.2105
@<TRIPOS>BOND
     1    24    25    1
     2    25    26   ar
     3    26    27   ar
     4    27     1    1
     5     1     2    2
     6     1     3   am
     7     3     4    1
     8     4     5    1
     9     5     6    1
    10     6     7    1
    11     7     8   ar
    12     8     9   ar
    13     9    10   ar
    14    10    14    1
    15    14    15   ar
    16    15    16   ar
    17    16    17   ar
    18    17    18   ar
    19    18    19   ar
    20    19    20   ar
    21    20    21   ar
    22    21    22   ar
    23    10    11   ar
    24    11    12   ar
    25    12    13    1
    26    13    35    1
    27    35    36    1
    28    27    28   ar
    29    28    29   ar
    30    29    30   ar
    31    30    31    1
    32    31    32    1
    33    31    33    2
    34    31    34    2
    35    30    25   ar
    36    13     3    1
    37    12     7   ar
    38    22    14   ar
    39    21    17   ar
    40    20    23    1
    41    36    37    1
@<TRIPOS>MOLECULE
*****
 37 41 0 0 0
SMALL
GASTEIGER

@<TRIPOS>ATOM
      1 C          46.2044   13.7073  -25.7664 C.2     1  UNL1        0.2494
      2 O          45.4806   14.5638  -25.1897 O.2     1  UNL1       -0.2699
      3 N          47.1020   12.9055  -24.9781 N.am    1  UNL1       -0.2675
      4 C          46.5123   11.9950  -23.9899 C.3     1  UNL1        0.1413
      5 C          47.3441   11.9548  -22.7130 C.3     1  UNL1        0.2268
      6 O          48.4933   11.1140  -22.8319 O.3     1  UNL1       -0.4739
      7 C          49.1901   10.7716  -24.0047 C.ar    1  UNL1        0.1362
      8 C          49.9216    9.5793  -23.9658 C.ar    1  UNL1        0.0366
      9 C          50.5896    9.1061  -25.0936 C.ar    1  UNL1        0.0031
     10 C          50.5511    9.8266  -26.2940 C.ar    1  UNL1       -0.0000
     11 C          49.8557   11.0454  -26.3327 C.ar    1  UNL1        0.0004
     12 C          49.1773   11.5408  -25.2004 C.ar    1  UNL1        0.0322
     13 C          48.5460   12.9200  -25.2950 C.3     1  UNL1        0.1304
     14 C          51.2349    9.3122  -27.5073 C.ar    1  UNL1        0.0015
     15 C          50.5531    8.4517  -28.4126 C.ar    1  UNL1        0.0016
     16 C          51.1967    7.9616  -29.5649 C.ar    1  UNL1        0.0206
     17 C          52.5149    8.3477  -29.7847 C.ar    1  UNL1        0.0985
     18 N          53.3142    8.0045  -30.8107 N.ar    1  UNL1       -0.2241
     19 C          54.4715    8.6574  -30.5234 C.ar    1  UNL1        0.1750
     20 N          54.4155    9.3782  -29.3776 N.ar    1  UNL1       -0.3349
     21 C          53.1739    9.1701  -28.9249 C.ar    1  UNL1        0.0757
     22 C          52.5766    9.6771  -27.7752 C.ar    1  UNL1        0.0185
     23 H          55.1691    9.9605  -28.9491 H       1  UNL1        0.1675
     24 C          46.5335   10.7298  -29.7845 C.3     1  UNL1        0.0324
     25 C          46.2491   12.0943  -29.2139 C.ar    1  UNL1       -0.0046
     26 C          46.3384   12.2735  -27.8220 C.ar    1  UNL1        0.0015
     27 C          46.1040   13.5281  -27.2354 C.ar    1  UNL1        0.0534
     28 C          45.7563   14.6083  -28.0573 C.ar    1  UNL1        0.0058
     29 C          45.6746   14.4472  -29.4404 C.ar    1  UNL1        0.0182
     30 C          45.9344   13.2044  -30.0369 C.ar    1  UNL1        0.1018
     31 S          45.8133   13.0826  -31.8017 S.O2    1  UNL1        0.0101
     32 C          44.2291   12.4062  -32.2482 C.3     1  UNL1        0.1816
     33 O          46.9118   12.2184  -32.3535 O.2     1  UNL1       -0.1686
     34 O          45.9429   14.4503  -32.4121 O.2     1  UNL1       -0.1686
     35 C          49.3284   13.9492  -24.4565 C.3     1  UNL1        0.1615
     36 O          50.7031   13.8688  -24.7217 O.3     1  UNL1       -0.3799
     37 H          50.8763   14.4509  -25.5067 H       1  UNL1        0.2105
@<TRIPOS>BOND
     1    24    25    1
     2    25    26   ar
     3    26    27   ar
     4    27     1    1
     5     1     2    2
     6     1     3   am
     7     3     4    1
     8     4     5    1
     9     5     6    1
    10     6     7    1
    11     7     8   ar
    12     8     9   ar
    13     9    10   ar
    14    10    14    1
    15    14    15   ar
    16    15    16   ar
    17    16    17   ar
    18    17    18   ar
    19    18    19   ar
    20    19    20   ar
    21    20    21   ar
    22    21    22   ar
    23    10    11   ar
    24    11    12   ar
    25    12    13    1
    26    13    35    1
    27    35    36    1
    28    27    28   ar
    29    28    29   ar
    30    29    30   ar
    31    30    31    1
    32    31    32    1
    33    31    33    2
    34    31    34    2
    35    30    25   ar
    36    13     3    1
    37    12     7   ar
    38    22    14   ar
    39    21    17   ar
    40    20    23    1
    41    36    37    1
@<TRIPOS>MOLECULE
*****
 37 41 0 0 0
SMALL
GASTEIGER

@<TRIPOS>ATOM
      1 C          47.9830   14.9039  -25.0874 C.2     1  UNL1        0.2494
      2 O          47.7056   15.8263  -24.2736 O.2     1  UNL1       -0.2699
      3 N          47.0828   14.6394  -26.1781 N.am    1  UNL1       -0.2675
      4 C          46.8927   15.6981  -27.1763 C.3     1  UNL1        0.1413
      5 C          45.4397   15.7711  -27.6317 C.3     1  UNL1        0.2268
      6 O          45.1164   14.7717  -28.6004 O.3     1  UNL1       -0.4739
      7 C          45.7333   13.5211  -28.7839 C.ar    1  UNL1        0.1362
      8 C          45.6181   12.9535  -30.0577 C.ar    1  UNL1        0.0366
      9 C          46.2518   11.7529  -30.3721 C.ar    1  UNL1        0.0031
     10 C          47.0127   11.0798  -29.4080 C.ar    1  UNL1       -0.0000
     11 C          47.1002   11.6181  -28.1146 C.ar    1  UNL1        0.0004
     12 C          46.4627   12.8298  -27.7780 C.ar    1  UNL1        0.0322
     13 C          46.5139   13.2830  -26.3284 C.3     1  UNL1        0.1304
     14 C          47.7156    9.8165  -29.7458 C.ar    1  UNL1        0.0015
     15 C          48.7405    9.3095  -28.8988 C.ar    1  UNL1        0.0016
     16 C          49.4098    8.1117  -29.2142 C.ar    1  UNL1        0.0206
     17 C          49.0341    7.4460  -30.3764 C.ar    1  UNL1        0.0985
     18 N          49.5323    6.2963  -30.8656 N.ar    1  UNL1       -0.2241
     19 C          48.8085    6.1127  -32.0016 C.ar    1  UNL1        0.1750
     20 N          47.8979    7.0903  -32.2264 N.ar    1  UNL1       -0.3349
     21 C          48.0553    7.9232  -31.1913 C.ar    1  UNL1        0.0757
     22 C          47.3686    9.1019  -30.9180 C.ar    1  UNL1        0.0185
     23 H          47.2292    7.1723  -33.0244 H       1  UNL1        0.1675
     24 C          50.7587   10.8914  -26.2337 C.3     1  UNL1        0.0324
     25 C          50.6147   12.1803  -25.4681 C.ar    1  UNL1       -0.0046
     26 C          49.4331   12.9267  -25.6233 C.ar    1  UNL1        0.0015
     27 C          49.2346   14.1258  -24.9193 C.ar    1  UNL1        0.0534
     28 C          50.2452   14.5881  -24.0659 C.ar    1  UNL1        0.0058
     29 C          51.4176   13.8524  -23.8942 C.ar    1  UNL1        0.0182
     30 C          51.6121   12.6396  -24.5721 C.ar    1  UNL1        0.1018
     31 S          53.1282   11.7621  -24.2971 S.O2    1  UNL1        0.0101
     32 C          54.1825   11.9268  -25.7211 C.3     1  UNL1        0.1816
     33 O          52.8614   10.3087  -24.0242 O.2     1  UNL1       -0.1686
     34 O          53.8364   12.3399  -23.1035 O.2     1  UNL1       -0.1686
     35 C          45.1378   13.1370  -25.6504 C.3     1  UNL1        0.1615
     36 O          44.6680   11.8196  -25.7513 O.3     1  UNL1       -0.3799
     37 H          45.0455   11.3227  -24.9794 H       1  UNL1        0.2105
@<TRIPOS>BOND
     1    24    25    1
     2    25    26   ar
     3    26    27   ar
     4    27     1    1
     5     1     2    2
     6     1     3   am
     7     3     4    1
     8     4     5    1
     9     5     6    1
    10     6     7    1
    11     7     8   ar
    12     8     9   ar
    13     9    10   ar
    14    10    14    1
    15    14    15   ar
    16    15    16   ar
    17    16    17   ar
    18    17    18   ar
    19    18    19   ar
    20    19    20   ar
    21    20    21   ar
    22    21    22   ar
    23    10    11   ar
    24    11    12   ar
    25    12    13    1
    26    13    35    1
    27    35    36    1
    28    27    28   ar
    29    28    29   ar
    30    29    30   ar
    31    30    31    1
    32    31    32    1
    33    31    33    2
    34    31    34    2
    35    30    25   ar
    36    13     3    1
    37    12     7   ar
    38    22    14   ar
    39    21    17   ar
    40    20    23    1
    41    36    37    1
@<TRIPOS>MOLECULE
*****
 37 41 0 0 0
SMALL
GASTEIGER

@<TRIPOS>ATOM
      1 C          46.8311   12.7134  -22.1229 C.2     1  UNL1        0.2494
      2 O          46.1676   13.1185  -21.1300 O.2     1  UNL1       -0.2699
      3 N          47.7340   11.6058  -21.9558 N.am    1  UNL1       -0.2675
      4 C          47.1577   10.3062  -21.5921 C.3     1  UNL1        0.1413
      5 C          48.0463    9.5689  -20.5969 C.3     1  UNL1        0.2268
      6 O          49.1565    8.9239  -21.2241 O.3     1  UNL1       -0.4739
      7 C          49.7842    9.2754  -22.4326 C.ar    1  UNL1        0.1362
      8 C          50.4716    8.2523  -23.0950 C.ar    1  UNL1        0.0366
      9 C          51.0679    8.4700  -24.3356 C.ar    1  UNL1        0.0031
     10 C          51.0002    9.7302  -24.9428 C.ar    1  UNL1       -0.0000
     11 C          50.3498   10.7752  -24.2679 C.ar    1  UNL1        0.0004
     12 C          49.7441   10.5738  -23.0108 C.ar    1  UNL1        0.0322
     13 C          49.1611   11.7833  -22.2989 C.3     1  UNL1        0.1304
     14 C          51.6066    9.9601  -26.2783 C.ar    1  UNL1        0.0015
     15 C          52.3541   11.1423  -26.5402 C.ar    1  UNL1        0.0016
     16 C          52.9317   11.3649  -27.8047 C.ar    1  UNL1        0.0206
     17 C          52.7465   10.3926  -28.7820 C.ar    1  UNL1        0.0985
     18 N          53.2057   10.3966  -30.0463 N.ar    1  UNL1       -0.2241
     19 C          52.7368    9.2207  -30.5417 C.ar    1  UNL1        0.1750
     20 N          52.0179    8.5043  -29.6443 N.ar    1  UNL1       -0.3349
     21 C          52.0339    9.2596  -28.5402 C.ar    1  UNL1        0.0757
     22 C          51.4465    8.9994  -27.3061 C.ar    1  UNL1        0.0185
     23 H          51.5584    7.5771  -29.7849 H       1  UNL1        0.1675
     24 C          46.8806   16.8725  -24.9190 C.3     1  UNL1        0.0324
     25 C          46.6808   15.3823  -24.8328 C.ar    1  UNL1       -0.0046
     26 C          46.8484   14.7518  -23.5871 C.ar    1  UNL1        0.0015
     27 C          46.6553   13.3681  -23.4422 C.ar    1  UNL1        0.0534
     28 C          46.3098   12.6087  -24.5679 C.ar    1  UNL1        0.0058
     29 C          46.1298   13.2226  -25.8073 C.ar    1  UNL1        0.0182
     30 C          46.2933   14.6080  -25.9549 C.ar    1  UNL1        0.1018
     31 S          46.0428   15.3128  -27.5626 S.O2    1  UNL1        0.0101
     32 C          45.9163   14.0144  -28.7728 C.3     1  UNL1        0.1816
     33 O          47.1716   16.2375  -27.9214 O.2     1  UNL1       -0.1686
     34 O          44.7664   16.1069  -27.5723 O.2     1  UNL1       -0.1686
     35 C          50.0199   12.1811  -21.0829 C.3     1  UNL1        0.1615
     36 O          51.3517   12.4026  -21.4622 O.3     1  UNL1       -0.3799
     37 H          51.4115   13.3501  -21.7517 H       1  UNL1        0.2105
@<TRIPOS>BOND
     1    24    25    1
     2    25    26   ar
     3    26    27   ar
     4    27     1    1
     5     1     2    2
     6     1     3   am
     7     3     4    1
     8     4     5    1
     9     5     6    1
    10     6     7    1
    11     7     8   ar
    12     8     9   ar
    13     9    10   ar
    14    10    14    1
    15    14    15   ar
    16    15    16   ar
    17    16    17   ar
    18    17    18   ar
    19    18    19   ar
    20    19    20   ar
    21    20    21   ar
    22    21    22   ar
    23    10    11   ar
    24    11    12   ar
    25    12    13    1
    26    13    35    1
    27    35    36    1
    28    27    28   ar
    29    28    29   ar
    30    29    30   ar
    31    30    31    1
    32    31    32    1
    33    31    33    2
    34    31    34    2
    35    30    25   ar
    36    13     3    1
    37    12     7   ar
    38    22    14   ar
    39    21    17   ar
    40    20    23    1
    41    36    37    1
@<TRIPOS>MOLECULE
*****
 37 41 0 0 0
SMALL
GASTEIGER

@<TRIPOS>ATOM
      1 C          47.9212   15.5811  -24.6154 C.2     1  UNL1        0.2494
      2 O          47.7096   16.4990  -23.7771 O.2     1  UNL1       -0.2699
      3 N          46.9967   15.4003  -25.7029 N.am    1  UNL1       -0.2675
      4 C          46.8650   16.4929  -26.6736 C.3     1  UNL1        0.1413
      5 C          45.4157   16.6682  -27.1122 C.3     1  UNL1        0.2268
      6 O          45.0216   15.7150  -28.1011 O.3     1  UNL1       -0.4739
      7 C          45.5567   14.4329  -28.3206 C.ar    1  UNL1        0.1362
      8 C          45.3949   13.9050  -29.6063 C.ar    1  UNL1        0.0366
      9 C          45.9489   12.6749  -29.9557 C.ar    1  UNL1        0.0031
     10 C          46.6742   11.9320  -29.0156 C.ar    1  UNL1       -0.0000
     11 C          46.8067   12.4321  -27.7107 C.ar    1  UNL1        0.0004
     12 C          46.2499   13.6729  -27.3389 C.ar    1  UNL1        0.0322
     13 C          46.3421   14.0865  -25.8795 C.3     1  UNL1        0.1304
     14 C          47.2931   10.6356  -29.3905 C.ar    1  UNL1        0.0015
     15 C          46.8833    9.9518  -30.5692 C.ar    1  UNL1        0.0016
     16 C          47.4673    8.7224  -30.9295 C.ar    1  UNL1        0.0206
     17 C          48.4538    8.2047  -30.0966 C.ar    1  UNL1        0.0985
     18 N          49.1412    7.0583  -30.2466 N.ar    1  UNL1       -0.2241
     19 C          49.9617    7.0541  -29.1627 C.ar    1  UNL1        0.1750
     20 N          49.8079    8.1375  -28.3640 N.ar    1  UNL1       -0.3349
     21 C          48.8518    8.8519  -28.9685 C.ar    1  UNL1        0.0757
     22 C          48.3019   10.0678  -28.5751 C.ar    1  UNL1        0.0185
     23 H          50.3188    8.3607  -27.4809 H       1  UNL1        0.1675
     24 C          51.2180   13.2050  -21.6821 C.3     1  UNL1        0.0324
     25 C          50.7414   13.5449  -23.0698 C.ar    1  UNL1       -0.0046
     26 C          49.6012   14.3559  -23.2099 C.ar    1  UNL1        0.0015
     27 C          49.1227   14.7221  -24.4786 C.ar    1  UNL1        0.0534
     28 C          49.7875   14.2498  -25.6180 C.ar    1  UNL1        0.0058
     29 C          50.9259   13.4535  -25.4937 C.ar    1  UNL1        0.0182
     30 C          51.4268   13.1061  -24.2302 C.ar    1  UNL1        0.1018
     31 S          52.8807   12.0937  -24.1568 S.O2    1  UNL1        0.0101
     32 C          53.6863   12.0864  -25.7434 C.3     1  UNL1        0.1816
     33 O          52.5324   10.6886  -23.7540 O.2     1  UNL1       -0.1686
     34 O          53.8326   12.6509  -23.1353 O.2     1  UNL1       -0.1686
     35 C          44.9655   14.0107  -25.1912 C.3     1  UNL1        0.1615
     36 O          44.5260   12.6824  -25.0969 O.3     1  UNL1       -0.3799
     37 H          44.9098   12.3142  -24.2589 H       1  UNL1        0.2105
@<TRIPOS>BOND
     1    24    25    1
     2    25    26   ar
     3    26    27   ar
     4    27     1    1
     5     1     2    2
     6     1     3   am
     7     3     4    1
     8     4     5    1
     9     5     6    1
    10     6     7    1
    11     7     8   ar
    12     8     9   ar
    13     9    10   ar
    14    10    14    1
    15    14    15   ar
    16    15    16   ar
    17    16    17   ar
    18    17    18   ar
    19    18    19   ar
    20    19    20   ar
    21    20    21   ar
    22    21    22   ar
    23    10    11   ar
    24    11    12   ar
    25    12    13    1
    26    13    35    1
    27    35    36    1
    28    27    28   ar
    29    28    29   ar
    30    29    30   ar
    31    30    31    1
    32    31    32    1
    33    31    33    2
    34    31    34    2
    35    30    25   ar
    36    13     3    1
    37    12     7   ar
    38    22    14   ar
    39    21    17   ar
    40    20    23    1
    41    36    37    1
