@<TRIPOS>MOLECULE
*****
 40 44 0 0 0
SMALL
GASTEIGER

@<TRIPOS>ATOM
      1 C          49.1345   12.1247  -25.1056 C.2     1  UNL1        0.2506
      2 O          48.0677   11.4541  -25.1591 O.2     1  UNL1       -0.2699
      3 N          50.3780   11.4669  -24.7868 N.am    1  UNL1       -0.2680
      4 C          51.3973   12.1425  -23.9724 C.3     1  UNL1        0.1412
      5 C          52.8157   11.7665  -24.4112 C.3     1  UNL1        0.2268
      6 O          52.9752   11.8872  -25.8232 O.3     1  UNL1       -0.4739
      7 C          52.4592   11.0037  -26.7888 C.ar    1  UNL1        0.1362
      8 C          53.0589   11.0276  -28.0534 C.ar    1  UNL1        0.0366
      9 C          52.6315   10.1696  -29.0666 C.ar    1  UNL1        0.0031
     10 C          51.5899    9.2653  -28.8321 C.ar    1  UNL1       -0.0002
     11 C          50.9537    9.2573  -27.5830 C.ar    1  UNL1        0.0004
     12 C          51.3675   10.1228  -26.5553 C.ar    1  UNL1        0.0317
     13 C          50.6176   10.0959  -25.2479 C.3     1  UNL1        0.1236
     14 C          51.1443    8.3499  -29.9063 C.ar    1  UNL1       -0.0002
     15 C          52.1306    7.7482  -30.7314 C.ar    1  UNL1        0.0014
     16 C          51.7678    6.9060  -31.7946 C.ar    1  UNL1        0.0206
     17 C          50.4146    6.6832  -32.0123 C.ar    1  UNL1        0.0983
     18 N          49.8565    5.9341  -32.9798 N.ar    1  UNL1       -0.2241
     19 C          48.5274    6.0683  -32.7378 C.ar    1  UNL1        0.1750
     20 N          48.2497    6.8591  -31.6746 N.ar    1  UNL1       -0.3351
     21 C          49.4538    7.2411  -31.2226 C.ar    1  UNL1        0.0739
     22 C          49.7626    8.0700  -30.1332 C.ar    1  UNL1        0.0244
     23 H          47.3057    7.1126  -31.3083 H       1  UNL1        0.1675
     24 C          48.6628    8.6392  -29.2713 C.3     1  UNL1        0.1702
     25 O          47.6331    9.1263  -30.1049 O.3     1  UNL1       -0.3463
     26 C          46.9863   10.2058  -29.4702 C.3     1  UNL1        0.1746
     27 C          47.9179   14.3428  -25.2659 C.ar    1  UNL1        0.0503
     28 C          47.9297   15.6923  -25.6745 C.ar    1  UNL1        0.0328
     29 C          49.0821   16.2676  -26.2228 C.ar    1  UNL1        0.1069
     30 C          50.2342   15.4938  -26.3816 C.ar    1  UNL1        0.0186
     31 C          50.2389   14.1556  -25.9921 C.ar    1  UNL1        0.0071
     32 C          49.0920   13.5664  -25.4363 C.ar    1  UNL1        0.0667
     33 S          49.0681   17.9523  -26.7347 S.O2    1  UNL1        0.0105
     34 C          48.3193   18.9472  -25.4656 C.3     1  UNL1        0.1816
     35 O          50.4754   18.4204  -26.9782 O.2     1  UNL1       -0.1686
     36 O          48.2853   18.0946  -28.0100 O.2     1  UNL1       -0.1686
     37 N          46.7464   13.7793  -24.6375 N.pl3   1  UNL1       -0.3325
     38 H          46.8379   13.3510  -23.6889 H       1  UNL1        0.1468
     39 C          44.5812   12.6065  -24.7657 C.3     1  UNL1        0.0229
     40 C          45.4269   13.7701  -25.2738 C.3     1  UNL1        0.0871
@<TRIPOS>BOND
     1    39    40    1
     2    40    37    1
     3    37    27    1
     4    27    28   ar
     5    28    29   ar
     6    29    33    1
     7    33    34    1
     8    33    35    2
     9    33    36    2
    10    29    30   ar
    11    30    31   ar
    12    31    32   ar
    13    32     1    1
    14     1     2    2
    15     1     3   am
    16     3     4    1
    17     4     5    1
    18     5     6    1
    19     6     7    1
    20     7     8   ar
    21     8     9   ar
    22     9    10   ar
    23    10    14    1
    24    14    15   ar
    25    15    16   ar
    26    16    17   ar
    27    17    18   ar
    28    18    19   ar
    29    19    20   ar
    30    20    21   ar
    31    21    22   ar
    32    22    24    1
    33    24    25    1
    34    25    26    1
    35    10    11   ar
    36    11    12   ar
    37    12    13    1
    38    32    27   ar
    39    13     3    1
    40    12     7   ar
    41    22    14   ar
    42    21    17   ar
    43    37    38    1
    44    20    23    1
@<TRIPOS>MOLECULE
*****
 40 44 0 0 0
SMALL
GASTEIGER

@<TRIPOS>ATOM
      1 C          46.5419   15.9774  -26.0290 C.2     1  UNL1        0.2506
      2 O          45.5729   16.2736  -25.2781 O.2     1  UNL1       -0.2699
      3 N          47.8740   16.4082  -25.6817 N.am    1  UNL1       -0.2680
      4 C          48.8263   16.8167  -26.7233 C.3     1  UNL1        0.1412
      5 C          50.2631   16.4273  -26.3634 C.3     1  UNL1        0.2268
      6 O          50.3477   15.0648  -25.9510 O.3     1  UNL1       -0.4739
      7 C          49.9154   14.5501  -24.7150 C.ar    1  UNL1        0.1362
      8 C          50.4546   13.3210  -24.3177 C.ar    1  UNL1        0.0366
      9 C          50.1047   12.7451  -23.0965 C.ar    1  UNL1        0.0031
     10 C          49.2035   13.3924  -22.2441 C.ar    1  UNL1       -0.0002
     11 C          48.6253   14.6044  -22.6462 C.ar    1  UNL1        0.0004
     12 C          48.9614   15.1921  -23.8783 C.ar    1  UNL1        0.0317
     13 C          48.2755   16.4751  -24.2732 C.3     1  UNL1        0.1236
     14 C          48.8407   12.7832  -20.9449 C.ar    1  UNL1       -0.0002
     15 C          47.6394   12.0310  -20.8653 C.ar    1  UNL1        0.0014
     16 C          47.2194   11.4662  -19.6503 C.ar    1  UNL1        0.0206
     17 C          48.0163   11.6692  -18.5315 C.ar    1  UNL1        0.0983
     18 N          47.7886   11.2371  -17.2784 N.ar    1  UNL1       -0.2241
     19 C          48.8589   11.7155  -16.5939 C.ar    1  UNL1        0.1750
     20 N          49.7240   12.4149  -17.3655 N.ar    1  UNL1       -0.3351
     21 C          49.1798   12.3769  -18.5913 C.ar    1  UNL1        0.0739
     22 C          49.6570   12.9413  -19.7841 C.ar    1  UNL1        0.0244
     23 H          50.6060   12.8810  -17.0584 H       1  UNL1        0.1675
     24 C          50.9665   13.6906  -19.8036 C.3     1  UNL1        0.1702
     25 O          51.9833   12.8244  -20.2600 O.3     1  UNL1       -0.3463
     26 C          53.0741   13.5854  -20.7263 C.3     1  UNL1        0.1746
     27 C          46.6626   13.7676  -27.2650 C.ar    1  UNL1        0.0503
     28 C          46.4651   13.0485  -28.4617 C.ar    1  UNL1        0.0328
     29 C          45.8988   13.6629  -29.5847 C.ar    1  UNL1        0.1069
     30 C          45.5355   15.0105  -29.5276 C.ar    1  UNL1        0.0186
     31 C          45.7315   15.7402  -28.3565 C.ar    1  UNL1        0.0071
     32 C          46.2940   15.1360  -27.2206 C.ar    1  UNL1        0.0667
     33 S          45.6719   12.7458  -31.0706 S.O2    1  UNL1        0.0105
     34 C          46.4566   11.1585  -30.9085 C.3     1  UNL1        0.1816
     35 O          44.2038   12.5584  -31.3322 O.2     1  UNL1       -0.1686
     36 O          46.2772   13.4878  -32.2292 O.2     1  UNL1       -0.1686
     37 N          47.1825   13.1060  -26.0916 N.pl3   1  UNL1       -0.3325
     38 H          48.1344   13.3633  -25.7460 H       1  UNL1        0.1468
     39 C          45.6895   12.6788  -24.1764 C.3     1  UNL1        0.0229
     40 C          46.4387   12.0769  -25.3611 C.3     1  UNL1        0.0871
@<TRIPOS>BOND
     1    39    40    1
     2    40    37    1
     3    37    27    1
     4    27    28   ar
     5    28    29   ar
     6    29    33    1
     7    33    34    1
     8    33    35    2
     9    33    36    2
    10    29    30   ar
    11    30    31   ar
    12    31    32   ar
    13    32     1    1
    14     1     2    2
    15     1     3   am
    16     3     4    1
    17     4     5    1
    18     5     6    1
    19     6     7    1
    20     7     8   ar
    21     8     9   ar
    22     9    10   ar
    23    10    14    1
    24    14    15   ar
    25    15    16   ar
    26    16    17   ar
    27    17    18   ar
    28    18    19   ar
    29    19    20   ar
    30    20    21   ar
    31    21    22   ar
    32    22    24    1
    33    24    25    1
    34    25    26    1
    35    10    11   ar
    36    11    12   ar
    37    12    13    1
    38    32    27   ar
    39    13     3    1
    40    12     7   ar
    41    22    14   ar
    42    21    17   ar
    43    37    38    1
    44    20    23    1
@<TRIPOS>MOLECULE
*****
 40 44 0 0 0
SMALL
GASTEIGER

@<TRIPOS>ATOM
      1 C          50.0228   14.0104  -23.0298 C.2     1  UNL1        0.2506
      2 O          51.1285   13.7664  -23.5852 O.2     1  UNL1       -0.2699
      3 N          49.0458   14.8262  -23.7084 N.am    1  UNL1       -0.2680
      4 C          48.1968   15.7611  -22.9576 C.3     1  UNL1        0.1412
      5 C          46.7958   15.8704  -23.5667 C.3     1  UNL1        0.2268
      6 O          46.2303   14.5842  -23.8110 O.3     1  UNL1       -0.4739
      7 C          46.5959   13.7074  -24.8487 C.ar    1  UNL1        0.1362
      8 C          45.6717   12.7143  -25.1935 C.ar    1  UNL1        0.0366
      9 C          45.9360   11.8156  -26.2269 C.ar    1  UNL1        0.0031
     10 C          47.1373   11.8944  -26.9398 C.ar    1  UNL1       -0.0002
     11 C          48.0891   12.8585  -26.5798 C.ar    1  UNL1        0.0004
     12 C          47.8405   13.7649  -25.5343 C.ar    1  UNL1        0.0317
     13 C          48.9193   14.7517  -25.1672 C.3     1  UNL1        0.1236
     14 C          47.4114   10.9451  -28.0417 C.ar    1  UNL1       -0.0002
     15 C          46.5115   10.9084  -29.1392 C.ar    1  UNL1        0.0014
     16 C          46.6936    9.9987  -30.1930 C.ar    1  UNL1        0.0206
     17 C          47.7803    9.1369  -30.1249 C.ar    1  UNL1        0.0983
     18 N          48.1223    8.1836  -31.0098 N.ar    1  UNL1       -0.2241
     19 C          49.2400    7.6455  -30.4583 C.ar    1  UNL1        0.1750
     20 N          49.5942    8.2219  -29.2857 N.ar    1  UNL1       -0.3351
     21 C          48.6624    9.1665  -29.0862 C.ar    1  UNL1        0.0739
     22 C          48.5405   10.0713  -28.0206 C.ar    1  UNL1        0.0244
     23 H          50.4063    7.9697  -28.6804 H       1  UNL1        0.1675
     24 C          49.5609   10.0838  -26.9091 C.3     1  UNL1        0.1702
     25 O          50.8380    9.8362  -27.4569 O.3     1  UNL1       -0.3463
     26 C          51.8026   10.5902  -26.7587 C.3     1  UNL1        0.1746
     27 C          48.8211   12.3174  -21.5753 C.ar    1  UNL1        0.0503
     28 C          48.5335   11.8343  -20.2822 C.ar    1  UNL1        0.0328
     29 C          49.1445   12.3928  -19.1535 C.ar    1  UNL1        0.1069
     30 C          50.0417   13.4528  -19.3046 C.ar    1  UNL1        0.0186
     31 C          50.3316   13.9501  -20.5739 C.ar    1  UNL1        0.0071
     32 C          49.7300   13.3965  -21.7156 C.ar    1  UNL1        0.0667
     33 S          48.7607   11.7782  -17.5486 S.O2    1  UNL1        0.0105
     34 C          48.7648   13.1237  -16.3862 C.3     1  UNL1        0.1816
     35 O          47.4050   11.1294  -17.5645 O.2     1  UNL1       -0.1686
     36 O          49.7802   10.7545  -17.1337 O.2     1  UNL1       -0.1686
     37 N          48.2391   11.6883  -22.7373 N.pl3   1  UNL1       -0.3325
     38 H          47.6232   12.2541  -23.3636 H       1  UNL1        0.1468
     39 C          49.9547    9.9600  -23.1241 C.3     1  UNL1        0.0229
     40 C          48.4641   10.2817  -23.0791 C.3     1  UNL1        0.0871
@<TRIPOS>BOND
     1    39    40    1
     2    40    37    1
     3    37    27    1
     4    27    28   ar
     5    28    29   ar
     6    29    33    1
     7    33    34    1
     8    33    35    2
     9    33    36    2
    10    29    30   ar
    11    30    31   ar
    12    31    32   ar
    13    32     1    1
    14     1     2    2
    15     1     3   am
    16     3     4    1
    17     4     5    1
    18     5     6    1
    19     6     7    1
    20     7     8   ar
    21     8     9   ar
    22     9    10   ar
    23    10    14    1
    24    14    15   ar
    25    15    16   ar
    26    16    17   ar
    27    17    18   ar
    28    18    19   ar
    29    19    20   ar
    30    20    21   ar
    31    21    22   ar
    32    22    24    1
    33    24    25    1
    34    25    26    1
    35    10    11   ar
    36    11    12   ar
    37    12    13    1
    38    32    27   ar
    39    13     3    1
    40    12     7   ar
    41    22    14   ar
    42    21    17   ar
    43    37    38    1
    44    20    23    1
@<TRIPOS>MOLECULE
*****
 40 44 0 0 0
SMALL
GASTEIGER

@<TRIPOS>ATOM
      1 C          51.2414   13.1663  -22.5366 C.2     1  UNL1        0.2506
      2 O          52.3426   12.6218  -22.8218 O.2     1  UNL1       -0.2699
      3 N          50.6259   14.0712  -23.4763 N.am    1  UNL1       -0.2680
      4 C          49.8951   15.2567  -23.0083 C.3     1  UNL1        0.1412
      5 C          48.6967   15.5765  -23.9069 C.3     1  UNL1        0.2268
      6 O          47.9014   14.4178  -24.1494 O.3     1  UNL1       -0.4739
      7 C          48.2378   13.3521  -25.0040 C.ar    1  UNL1        0.1362
      8 C          47.1873   12.5395  -25.4462 C.ar    1  UNL1        0.0366
      9 C          47.4211   11.4746  -26.3160 C.ar    1  UNL1        0.0031
     10 C          48.7184   11.2011  -26.7632 C.ar    1  UNL1       -0.0002
     11 C          49.7855   11.9818  -26.2978 C.ar    1  UNL1        0.0004
     12 C          49.5663   13.0526  -25.4136 C.ar    1  UNL1        0.0317
     13 C          50.7586   13.8294  -24.9163 C.3     1  UNL1        0.1236
     14 C          48.9623   10.0759  -27.6932 C.ar    1  UNL1       -0.0002
     15 C          50.0889    9.2433  -27.4629 C.ar    1  UNL1        0.0014
     16 C          50.3978    8.1874  -28.3353 C.ar    1  UNL1        0.0206
     17 C          49.5668    7.9866  -29.4294 C.ar    1  UNL1        0.0983
     18 N          49.6940    7.0539  -30.3901 N.ar    1  UNL1       -0.2241
     19 C          48.6362    7.3093  -31.2019 C.ar    1  UNL1        0.1750
     20 N          47.8740    8.3474  -30.7844 N.ar    1  UNL1       -0.3351
     21 C          48.4731    8.7669  -29.6596 C.ar    1  UNL1        0.0739
     22 C          48.1061    9.8189  -28.8066 C.ar    1  UNL1        0.0244
     23 H          47.0213    8.7292  -31.2498 H       1  UNL1        0.1675
     24 C          46.8687   10.6346  -29.0894 C.3     1  UNL1        0.1702
     25 O          46.7307   10.7886  -30.4857 O.3     1  UNL1       -0.3463
     26 C          46.1279   12.0320  -30.7636 C.3     1  UNL1        0.1746
     27 C          49.4231   11.9840  -21.2244 C.ar    1  UNL1        0.0503
     28 C          48.7961   11.7510  -19.9831 C.ar    1  UNL1        0.0328
     29 C          49.3059   12.3075  -18.8042 C.ar    1  UNL1        0.1069
     30 C          50.4433   13.1168  -18.8557 C.ar    1  UNL1        0.0186
     31 C          51.0715   13.3662  -20.0746 C.ar    1  UNL1        0.0071
     32 C          50.5742   12.8108  -21.2645 C.ar    1  UNL1        0.0667
     33 S          48.4987   12.0096  -17.2680 S.O2    1  UNL1        0.0105
     34 C          49.7072   11.5519  -16.0467 C.3     1  UNL1        0.1816
     35 O          47.7782   13.2517  -16.8241 O.2     1  UNL1       -0.1686
     36 O          47.4965   10.8999  -17.4215 O.2     1  UNL1       -0.1686
     37 N          48.9300   11.3486  -22.4235 N.pl3   1  UNL1       -0.3325
     38 H          48.5668   11.9461  -23.1998 H       1  UNL1        0.1468
     39 C          50.0186    9.4392  -23.5412 C.3     1  UNL1        0.0229
     40 C          48.9053    9.8949  -22.6030 C.3     1  UNL1        0.0871
@<TRIPOS>BOND
     1    39    40    1
     2    40    37    1
     3    37    27    1
     4    27    28   ar
     5    28    29   ar
     6    29    33    1
     7    33    34    1
     8    33    35    2
     9    33    36    2
    10    29    30   ar
    11    30    31   ar
    12    31    32   ar
    13    32     1    1
    14     1     2    2
    15     1     3   am
    16     3     4    1
    17     4     5    1
    18     5     6    1
    19     6     7    1
    20     7     8   ar
    21     8     9   ar
    22     9    10   ar
    23    10    14    1
    24    14    15   ar
    25    15    16   ar
    26    16    17   ar
    27    17    18   ar
    28    18    19   ar
    29    19    20   ar
    30    20    21   ar
    31    21    22   ar
    32    22    24    1
    33    24    25    1
    34    25    26    1
    35    10    11   ar
    36    11    12   ar
    37    12    13    1
    38    32    27   ar
    39    13     3    1
    40    12     7   ar
    41    22    14   ar
    42    21    17   ar
    43    37    38    1
    44    20    23    1
@<TRIPOS>MOLECULE
*****
 40 44 0 0 0
SMALL
GASTEIGER

@<TRIPOS>ATOM
      1 C          47.0351   11.5284  -21.8413 C.2     1  UNL1        0.2506
      2 O          45.9414   12.0251  -22.2255 O.2     1  UNL1       -0.2699
      3 N          47.9411   10.9586  -22.8083 N.am    1  UNL1       -0.2680
      4 C          48.7325    9.7643  -22.4828 C.3     1  UNL1        0.1412
      5 C          50.1128    9.7998  -23.1456 C.3     1  UNL1        0.2268
      6 O          50.7648   11.0494  -22.9287 O.3     1  UNL1       -0.4739
      7 C          50.4471   12.2649  -23.5617 C.ar    1  UNL1        0.1362
      8 C          51.4345   13.2570  -23.5592 C.ar    1  UNL1        0.0366
      9 C          51.2194   14.4851  -24.1844 C.ar    1  UNL1        0.0031
     10 C          50.0049   14.7453  -24.8286 C.ar    1  UNL1       -0.0002
     11 C          48.9923   13.7763  -24.8053 C.ar    1  UNL1        0.0004
     12 C          49.1914   12.5375  -24.1711 C.ar    1  UNL1        0.0317
     13 C          48.0506   11.5525  -24.1443 C.3     1  UNL1        0.1236
     14 C          49.7827   16.0461  -25.4987 C.ar    1  UNL1       -0.0002
     15 C          50.7337   16.4807  -26.4590 C.ar    1  UNL1        0.0014
     16 C          50.6010   17.7251  -27.0957 C.ar    1  UNL1        0.0206
     17 C          49.5115   18.5151  -26.7540 C.ar    1  UNL1        0.0983
     18 N          49.2111   19.7384  -27.2251 N.ar    1  UNL1       -0.2241
     19 C          48.0679   20.0464  -26.5609 C.ar    1  UNL1        0.1750
     20 N          47.6588   19.0746  -25.7118 N.ar    1  UNL1       -0.3351
     21 C          48.5809   18.1091  -25.8445 C.ar    1  UNL1        0.0739
     22 C          48.6529   16.8658  -25.1978 C.ar    1  UNL1        0.0244
     23 H          46.8185   19.0924  -25.0928 H       1  UNL1        0.1675
     24 C          47.5808   16.4504  -24.2207 C.3     1  UNL1        0.1702
     25 O          47.4964   17.4166  -23.1951 O.3     1  UNL1       -0.3463
     26 C          46.1496   17.7886  -23.0102 C.3     1  UNL1        0.1746
     27 C          46.4074   11.7336  -19.3939 C.ar    1  UNL1        0.0503
     28 C          46.8253   11.8744  -18.0546 C.ar    1  UNL1        0.0328
     29 C          48.1847   11.8661  -17.7208 C.ar    1  UNL1        0.1069
     30 C          49.1442   11.7306  -18.7269 C.ar    1  UNL1        0.0186
     31 C          48.7508   11.5996  -20.0576 C.ar    1  UNL1        0.0071
     32 C          47.3907   11.6013  -20.4068 C.ar    1  UNL1        0.0667
     33 S          48.6811   12.0538  -16.0419 S.O2    1  UNL1        0.0105
     34 C          50.4568   12.0627  -15.9503 C.3     1  UNL1        0.1816
     35 O          48.1413   13.3453  -15.4944 O.2     1  UNL1       -0.1686
     36 O          48.1426   10.9182  -15.2174 O.2     1  UNL1       -0.1686
     37 N          45.0019   11.6732  -19.7189 N.pl3   1  UNL1       -0.3325
     38 H          44.7172   11.3767  -20.6795 H       1  UNL1        0.1468
     39 C          42.5659   11.8744  -19.3947 C.3     1  UNL1        0.0229
     40 C          43.9470   12.0188  -18.7630 C.3     1  UNL1        0.0871
@<TRIPOS>BOND
     1    39    40    1
     2    40    37    1
     3    37    27    1
     4    27    28   ar
     5    28    29   ar
     6    29    33    1
     7    33    34    1
     8    33    35    2
     9    33    36    2
    10    29    30   ar
    11    30    31   ar
    12    31    32   ar
    13    32     1    1
    14     1     2    2
    15     1     3   am
    16     3     4    1
    17     4     5    1
    18     5     6    1
    19     6     7    1
    20     7     8   ar
    21     8     9   ar
    22     9    10   ar
    23    10    14    1
    24    14    15   ar
    25    15    16   ar
    26    16    17   ar
    27    17    18   ar
    28    18    19   ar
    29    19    20   ar
    30    20    21   ar
    31    21    22   ar
    32    22    24    1
    33    24    25    1
    34    25    26    1
    35    10    11   ar
    36    11    12   ar
    37    12    13    1
    38    32    27   ar
    39    13     3    1
    40    12     7   ar
    41    22    14   ar
    42    21    17   ar
    43    37    38    1
    44    20    23    1
@<TRIPOS>MOLECULE
*****
 40 44 0 0 0
SMALL
GASTEIGER

@<TRIPOS>ATOM
      1 C          52.5197   10.6192  -27.2161 C.2     1  UNL1        0.2506
      2 O          53.3510   11.4628  -27.6494 O.2     1  UNL1       -0.2699
      3 N          52.1538   10.6268  -25.8208 N.am    1  UNL1       -0.2680
      4 C          51.8974    9.3695  -25.1052 C.3     1  UNL1        0.1412
      5 C          50.7951    9.5291  -24.0539 C.3     1  UNL1        0.2268
      6 O          49.6452   10.1753  -24.5963 O.3     1  UNL1       -0.4739
      7 C          49.5354   11.5453  -24.8965 C.ar    1  UNL1        0.1362
      8 C          48.2413   12.0679  -25.0044 C.ar    1  UNL1        0.0366
      9 C          48.0339   13.4205  -25.2741 C.ar    1  UNL1        0.0031
     10 C          49.1241   14.2815  -25.4413 C.ar    1  UNL1       -0.0002
     11 C          50.4255   13.7647  -25.3751 C.ar    1  UNL1        0.0004
     12 C          50.6497   12.4018  -25.1133 C.ar    1  UNL1        0.0317
     13 C          52.0704   11.8980  -25.0951 C.3     1  UNL1        0.1236
     14 C          48.9010   15.7181  -25.7186 C.ar    1  UNL1       -0.0002
     15 C          49.3941   16.2537  -26.9374 C.ar    1  UNL1        0.0014
     16 C          49.2524   17.6181  -27.2371 C.ar    1  UNL1        0.0206
     17 C          48.6166   18.4243  -26.3023 C.ar    1  UNL1        0.0983
     18 N          48.3977   19.7489  -26.3818 N.ar    1  UNL1       -0.2241
     19 C          47.7588   20.0208  -25.2152 C.ar    1  UNL1        0.1750
     20 N          47.5784   18.9312  -24.4323 N.ar    1  UNL1       -0.3351
     21 C          48.1248   17.9258  -25.1329 C.ar    1  UNL1        0.0739
     22 C          48.2182   16.5669  -24.7955 C.ar    1  UNL1        0.0244
     23 H          47.1238   18.8993  -23.4932 H       1  UNL1        0.1675
     24 C          47.6310   16.0595  -23.5015 C.3     1  UNL1        0.1702
     25 O          48.5643   16.2658  -22.4629 O.3     1  UNL1       -0.3463
     26 C          48.9716   15.0205  -21.9434 C.3     1  UNL1        0.1746
     27 C          52.6052    9.1187  -29.2574 C.ar    1  UNL1        0.0503
     28 C          51.9184    8.2909  -30.1690 C.ar    1  UNL1        0.0328
     29 C          50.5580    8.0079  -29.9994 C.ar    1  UNL1        0.1069
     30 C          49.8644    8.5623  -28.9210 C.ar    1  UNL1        0.0186
     31 C          50.5241    9.3903  -28.0146 C.ar    1  UNL1        0.0071
     32 C          51.8895    9.6791  -28.1693 C.ar    1  UNL1        0.0667
     33 S          49.7207    6.9794  -31.1576 S.O2    1  UNL1        0.0105
     34 C          50.7703    6.7027  -32.5659 C.3     1  UNL1        0.1816
     35 O          49.3811    5.6637  -30.5152 O.2     1  UNL1       -0.1686
     36 O          48.4469    7.6407  -31.6043 O.2     1  UNL1       -0.1686
     37 N          54.0235    9.3473  -29.4024 N.pl3   1  UNL1       -0.3325
     38 H          54.4091   10.2920  -29.1774 H       1  UNL1        0.1468
     39 C          56.3903    8.8304  -29.8619 C.3     1  UNL1        0.0229
     40 C          54.9548    8.3141  -29.8620 C.3     1  UNL1        0.0871
@<TRIPOS>BOND
     1    39    40    1
     2    40    37    1
     3    37    27    1
     4    27    28   ar
     5    28    29   ar
     6    29    33    1
     7    33    34    1
     8    33    35    2
     9    33    36    2
    10    29    30   ar
    11    30    31   ar
    12    31    32   ar
    13    32     1    1
    14     1     2    2
    15     1     3   am
    16     3     4    1
    17     4     5    1
    18     5     6    1
    19     6     7    1
    20     7     8   ar
    21     8     9   ar
    22     9    10   ar
    23    10    14    1
    24    14    15   ar
    25    15    16   ar
    26    16    17   ar
    27    17    18   ar
    28    18    19   ar
    29    19    20   ar
    30    20    21   ar
    31    21    22   ar
    32    22    24    1
    33    24    25    1
    34    25    26    1
    35    10    11   ar
    36    11    12   ar
    37    12    13    1
    38    32    27   ar
    39    13     3    1
    40    12     7   ar
    41    22    14   ar
    42    21    17   ar
    43    37    38    1
    44    20    23    1
