@<TRIPOS>MOLECULE
*****
 53 58 0 0 0
SMALL
GASTEIGER

@<TRIPOS>ATOM
      1 N         -63.0502  -46.2772  -27.4535 N.am    1  UNL1       -0.2945
      2 C         -62.1076  -45.9126  -26.4322 C.2     1  UNL1        0.2483
      3 O         -61.0574  -46.5940  -26.2749 O.2     1  UNL1       -0.2701
      4 H         -63.7218  -45.5479  -27.7846 H       1  UNL1        0.1501
      5 C         -62.3326  -44.7213  -25.5815 C.ar    1  UNL1        0.0808
      6 C         -62.1832  -44.8254  -24.1880 C.ar    1  UNL1        0.0080
      7 C         -62.3859  -43.7139  -23.3661 C.ar    1  UNL1        0.0148
      8 C         -62.7543  -42.4785  -23.9203 C.ar    1  UNL1        0.0502
      9 C         -62.9189  -42.3743  -25.3094 C.ar    1  UNL1        0.0443
     10 C         -62.7152  -43.4839  -26.1361 C.ar    1  UNL1        0.1457
     11 F         -62.9358  -43.3517  -27.4687 F       1  UNL1       -0.2040
     12 N         -62.9635  -41.3287  -23.0789 N.pl3   1  UNL1       -0.3040
     13 C         -61.8730  -40.8263  -22.2363 C.3     1  UNL1        0.1123
     14 C         -62.4199  -40.3657  -20.8845 C.3     1  UNL1        0.1136
     15 N         -63.5942  -39.5026  -21.0770 N.pl3   1  UNL1       -0.2897
     16 C         -64.6777  -39.9956  -21.9377 C.3     1  UNL1        0.1136
     17 C         -64.1219  -40.4535  -23.2864 C.3     1  UNL1        0.1123
     18 C         -63.8233  -38.3547  -20.2348 C.ar    1  UNL1        0.1318
     19 C         -64.8697  -38.3325  -19.2982 C.ar    1  UNL1        0.0343
     20 C         -65.0599  -37.2011  -18.5035 C.ar    1  UNL1        0.0083
     21 C         -64.2266  -36.0827  -18.6544 C.ar    1  UNL1        0.0906
     22 C         -63.1819  -36.1514  -19.5891 C.ar    1  UNL1        0.1041
     23 N         -63.0145  -37.2651  -20.3501 N.ar    1  UNL1       -0.2292
     24 C         -64.3902  -34.8742  -17.7682 C.3     1  UNL1        0.4200
     25 F         -63.2209  -34.1371  -17.7836 F       1  UNL1       -0.1658
     26 F         -64.6651  -35.2571  -16.4668 F       1  UNL1       -0.1658
     27 F         -65.4311  -34.0785  -18.2146 F       1  UNL1       -0.1658
     28 C         -62.9244  -47.5119  -28.2354 C.3     1  UNL1        0.1535
     29 N         -63.2022  -48.6488  -25.9718 N.am    1  UNL1       -0.2825
     30 C         -63.3265  -48.7075  -27.4029 C.2     1  UNL1        0.2443
     31 O         -63.7502  -49.7539  -27.9652 O.2     1  UNL1       -0.2730
     32 H         -63.1534  -47.7022  -25.5310 H       1  UNL1        0.1549
     33 CA        -62.0792  -51.0965  -23.3400 C.ar    1  UNL1        0.1577
     34 C         -62.0626  -50.0008  -24.2195 C.ar    1  UNL1        0.0404
     35 C         -63.1400  -49.7923  -25.0991 C.ar    1  UNL1        0.0536
     36 C         -64.2211  -50.6826  -25.0648 C.ar    1  UNL1        0.0353
     37 C         -64.1998  -51.7652  -24.1855 C.ar    1  UNL1        0.1003
     38 N         -63.1429  -51.9454  -23.3519 N.ar    1  UNL1       -0.2372
     39 O         -60.4168  -50.3634  -21.8062 O.2     1  UNL1       -0.2434
     40 C         -60.9681  -51.3322  -22.3933 C.2     1  UNL1        0.3560
     41 OXT       -60.5116  -52.6226  -22.1319 O.3     1  UNL1       -0.4761
     42 HXT       -60.9194  -53.4365  -22.5754 H       1  UNL1        0.2955
     43 C         -63.7845  -47.4061  -29.5068 C.3     1  UNL1        0.0569
     44 C         -64.2004  -45.9872  -29.7793 C.ar    1  UNL1       -0.0017
     45 C         -65.4349  -45.4193  -29.4776 C.ar    1  UNL1        0.0681
     46 N         -65.4176  -44.0901  -29.7263 N.ar    1  UNL1       -0.3523
     47 C         -64.1807  -43.8116  -30.1728 C.ar    1  UNL1        0.0563
     48 C         -63.6704  -42.5611  -30.5189 C.ar    1  UNL1        0.0170
     49 C         -62.3268  -42.4895  -30.9294 C.ar    1  UNL1        0.0015
     50 C         -61.5328  -43.6558  -30.9849 C.ar    1  UNL1        0.0001
     51 C         -62.0737  -44.9040  -30.6273 C.ar    1  UNL1        0.0012
     52 C         -63.4082  -44.9439  -30.2212 C.ar    1  UNL1        0.0131
     53 H         -66.2000  -43.4158  -29.5734 H       1  UNL1        0.1660
@<TRIPOS>BOND
     1    39    40    2
     2    40    41    1
     3    40    33    1
     4    33    34   ar
     5    34    35   ar
     6    35    29    1
     7    29    30   am
     8    30    31    2
     9    30    28    1
    10    28    43    1
    11    43    44    1
    12    44    45   ar
    13    45    46   ar
    14    46    47   ar
    15    47    48   ar
    16    48    49   ar
    17    49    50   ar
    18    50    51   ar
    19    51    52   ar
    20    28     1    1
    21     1     2   am
    22     2     3    2
    23     2     5    1
    24     5     6   ar
    25     6     7   ar
    26     7     8   ar
    27     8    12    1
    28    12    13    1
    29    13    14    1
    30    14    15    1
    31    15    18    1
    32    18    19   ar
    33    19    20   ar
    34    20    21   ar
    35    21    24    1
    36    24    25    1
    37    24    26    1
    38    24    27    1
    39    21    22   ar
    40    22    23   ar
    41    15    16    1
    42    16    17    1
    43     8     9   ar
    44     9    10   ar
    45    10    11    1
    46    35    36   ar
    47    36    37   ar
    48    37    38   ar
    49    38    33   ar
    50    52    44   ar
    51    10     5   ar
    52    52    47   ar
    53    17    12    1
    54    23    18   ar
    55    41    42    1
    56    29    32    1
    57    46    53    1
    58     1     4    1
@<TRIPOS>MOLECULE
*****
 53 58 0 0 0
SMALL
GASTEIGER

@<TRIPOS>ATOM
      1 N         -62.7720  -46.9510  -26.3934 N.am    1  UNL1       -0.2945
      2 C         -61.8174  -46.4328  -25.4528 C.2     1  UNL1        0.2483
      3 O         -60.7247  -47.0366  -25.2699 O.2     1  UNL1       -0.2701
      4 H         -63.4957  -46.2970  -26.7691 H       1  UNL1        0.1501
      5 C         -62.0816  -45.1742  -24.7182 C.ar    1  UNL1        0.0808
      6 C         -62.0931  -45.1801  -23.3129 C.ar    1  UNL1        0.0080
      7 C         -62.3354  -44.0040  -22.5988 C.ar    1  UNL1        0.0148
      8 C         -62.5836  -42.8002  -23.2759 C.ar    1  UNL1        0.0502
      9 C         -62.5877  -42.7933  -24.6786 C.ar    1  UNL1        0.0443
     10 C         -62.3437  -43.9679  -25.3975 C.ar    1  UNL1        0.1457
     11 F         -62.4084  -43.9268  -26.7525 F       1  UNL1       -0.2040
     12 N         -62.8328  -41.5843  -22.5458 N.pl3   1  UNL1       -0.3040
     13 C         -61.7899  -41.0174  -21.6842 C.3     1  UNL1        0.1123
     14 C         -62.4119  -40.4450  -20.4097 C.3     1  UNL1        0.1136
     15 N         -63.5659  -39.5972  -20.7419 N.pl3   1  UNL1       -0.2897
     16 C         -64.6006  -40.1563  -21.6219 C.3     1  UNL1        0.1136
     17 C         -63.9701  -40.7257  -22.8930 C.3     1  UNL1        0.1123
     18 C         -63.8351  -38.3830  -20.0120 C.ar    1  UNL1        0.1318
     19 C         -64.9258  -38.2854  -19.1326 C.ar    1  UNL1        0.0343
     20 C         -65.1538  -37.0915  -18.4467 C.ar    1  UNL1        0.0083
     21 C         -64.3136  -35.9869  -18.6512 C.ar    1  UNL1        0.0906
     22 C         -63.2248  -36.1307  -19.5250 C.ar    1  UNL1        0.1041
     23 N         -63.0211  -37.3041  -20.1798 N.ar    1  UNL1       -0.2292
     24 C         -64.5195  -34.7083  -17.8795 C.3     1  UNL1        0.4200
     25 F         -64.7605  -35.0115  -16.5526 F       1  UNL1       -0.1658
     26 F         -65.5977  -34.0020  -18.3840 F       1  UNL1       -0.1658
     27 F         -63.3972  -33.9023  -17.9615 F       1  UNL1       -0.1658
     28 C         -62.6020  -48.2510  -27.0513 C.3     1  UNL1        0.1535
     29 N         -62.5264  -49.5378  -24.8530 N.am    1  UNL1       -0.2825
     30 C         -63.1019  -49.3638  -26.1590 C.2     1  UNL1        0.2443
     31 O         -64.0047  -50.1434  -26.5686 O.2     1  UNL1       -0.2730
     32 H         -62.0282  -48.7202  -24.4334 H       1  UNL1        0.1549
     33 CA        -63.7298  -52.7514  -23.3028 C.ar    1  UNL1        0.1577
     34 C         -63.7441  -51.5422  -24.0184 C.ar    1  UNL1        0.0404
     35 C         -62.5834  -50.7502  -24.0785 C.ar    1  UNL1        0.0536
     36 C         -61.4258  -51.1992  -23.4299 C.ar    1  UNL1        0.0353
     37 C         -61.4503  -52.4000  -22.7206 C.ar    1  UNL1        0.1003
     38 N         -62.5874  -53.1411  -22.6742 N.ar    1  UNL1       -0.2372
     39 O         -65.8517  -53.4863  -24.0847 O.2     1  UNL1       -0.2434
     40 C         -64.9301  -53.6123  -23.2350 C.2     1  UNL1        0.3560
     41 OXT       -65.0651  -54.5754  -22.2370 O.3     1  UNL1       -0.4761
     42 HXT       -64.3544  -54.7193  -21.5300 H       1  UNL1        0.2955
     43 C         -63.3421  -48.2462  -28.4002 C.3     1  UNL1        0.0569
     44 C         -63.2922  -46.8941  -29.0560 C.ar    1  UNL1       -0.0017
     45 C         -64.3865  -46.1371  -29.4647 C.ar    1  UNL1        0.0681
     46 N         -63.9865  -44.9144  -29.8817 N.ar    1  UNL1       -0.3523
     47 C         -62.6510  -44.8887  -29.7310 C.ar    1  UNL1        0.0563
     48 C         -61.7934  -43.8200  -29.9881 C.ar    1  UNL1        0.0170
     49 C         -60.4233  -43.9975  -29.7233 C.ar    1  UNL1        0.0015
     50 C         -59.9464  -45.2251  -29.2141 C.ar    1  UNL1        0.0001
     51 C         -60.8354  -46.2855  -28.9616 C.ar    1  UNL1        0.0012
     52 C         -62.1891  -46.0795  -29.2310 C.ar    1  UNL1        0.0131
     53 H         -64.5980  -44.1401  -30.2235 H       1  UNL1        0.1660
@<TRIPOS>BOND
     1    39    40    2
     2    40    41    1
     3    40    33    1
     4    33    34   ar
     5    34    35   ar
     6    35    29    1
     7    29    30   am
     8    30    31    2
     9    30    28    1
    10    28    43    1
    11    43    44    1
    12    44    45   ar
    13    45    46   ar
    14    46    47   ar
    15    47    48   ar
    16    48    49   ar
    17    49    50   ar
    18    50    51   ar
    19    51    52   ar
    20    28     1    1
    21     1     2   am
    22     2     3    2
    23     2     5    1
    24     5     6   ar
    25     6     7   ar
    26     7     8   ar
    27     8    12    1
    28    12    13    1
    29    13    14    1
    30    14    15    1
    31    15    18    1
    32    18    19   ar
    33    19    20   ar
    34    20    21   ar
    35    21    24    1
    36    24    25    1
    37    24    26    1
    38    24    27    1
    39    21    22   ar
    40    22    23   ar
    41    15    16    1
    42    16    17    1
    43     8     9   ar
    44     9    10   ar
    45    10    11    1
    46    35    36   ar
    47    36    37   ar
    48    37    38   ar
    49    38    33   ar
    50    52    44   ar
    51    10     5   ar
    52    52    47   ar
    53    17    12    1
    54    23    18   ar
    55    41    42    1
    56    29    32    1
    57    46    53    1
    58     1     4    1
@<TRIPOS>MOLECULE
*****
 53 58 0 0 0
SMALL
GASTEIGER

@<TRIPOS>ATOM
      1 N         -65.5578  -54.1719  -22.5493 N.am    1  UNL1       -0.2945
      2 C         -64.1760  -53.8211  -22.7282 C.2     1  UNL1        0.2483
      3 O         -63.2725  -54.6252  -22.3688 O.2     1  UNL1       -0.2701
      4 H         -66.2702  -53.6706  -23.1271 H       1  UNL1        0.1501
      5 C         -63.7941  -52.5397  -23.3651 C.ar    1  UNL1        0.0808
      6 C         -64.5837  -52.0188  -24.4044 C.ar    1  UNL1        0.0080
      7 C         -64.2455  -50.8095  -25.0168 C.ar    1  UNL1        0.0148
      8 C         -63.1033  -50.1026  -24.6105 C.ar    1  UNL1        0.0502
      9 C         -62.3044  -50.6268  -23.5836 C.ar    1  UNL1        0.0443
     10 C         -62.6403  -51.8360  -22.9664 C.ar    1  UNL1        0.1457
     11 F         -61.8114  -52.3324  -22.0133 F       1  UNL1       -0.2040
     12 N         -62.7499  -48.8550  -25.2367 N.pl3   1  UNL1       -0.3040
     13 C         -61.8827  -47.9011  -24.5371 C.3     1  UNL1        0.1123
     14 C         -62.3548  -46.4699  -24.7969 C.3     1  UNL1        0.1136
     15 N         -62.5873  -46.2627  -26.2335 N.pl3   1  UNL1       -0.2897
     16 C         -63.4384  -47.2293  -26.9399 C.3     1  UNL1        0.1136
     17 C         -62.9591  -48.6567  -26.6748 C.3     1  UNL1        0.1123
     18 C         -62.2495  -45.0147  -26.8722 C.ar    1  UNL1        0.1318
     19 C         -61.0259  -44.8432  -27.5401 C.ar    1  UNL1        0.0343
     20 C         -60.7354  -43.6186  -28.1434 C.ar    1  UNL1        0.0083
     21 C         -61.6486  -42.5568  -28.0639 C.ar    1  UNL1        0.0906
     22 C         -62.8672  -42.7742  -27.4025 C.ar    1  UNL1        0.1041
     23 N         -63.1293  -43.9762  -26.8248 N.ar    1  UNL1       -0.2292
     24 C         -61.3686  -41.2458  -28.7534 C.3     1  UNL1        0.4200
     25 F         -62.3738  -40.3474  -28.4482 F       1  UNL1       -0.1658
     26 F         -61.3182  -41.4173  -30.1260 F       1  UNL1       -0.1658
     27 F         -60.1558  -40.7244  -28.3373 F       1  UNL1       -0.1658
     28 C         -65.9763  -55.3732  -21.8190 C.3     1  UNL1        0.1535
     29 N         -67.6349  -56.0418  -20.0035 N.am    1  UNL1       -0.2825
     30 C         -66.9124  -55.0059  -20.6907 C.2     1  UNL1        0.2443
     31 O         -67.0696  -53.7964  -20.3698 O.2     1  UNL1       -0.2730
     32 H         -67.2623  -57.0159  -20.0725 H       1  UNL1        0.1549
     33 CA        -71.0041  -54.8101  -18.8590 C.ar    1  UNL1        0.1577
     34 C         -69.8238  -54.9222  -19.6130 C.ar    1  UNL1        0.0404
     35 C         -68.8313  -55.8412  -19.2279 C.ar    1  UNL1        0.0536
     36 C         -69.0536  -56.6410  -18.0995 C.ar    1  UNL1        0.0353
     37 C         -70.2329  -56.4963  -17.3688 C.ar    1  UNL1        0.1003
     38 N         -71.1712  -55.5960  -17.7605 N.ar    1  UNL1       -0.2372
     39 O         -73.2152  -54.2899  -19.5622 O.2     1  UNL1       -0.2434
     40 C         -72.0717  -53.8641  -19.2485 C.2     1  UNL1        0.3560
     41 OXT       -71.8368  -52.4907  -19.2755 O.3     1  UNL1       -0.4761
     42 HXT       -70.9370  -52.0951  -19.0321 H       1  UNL1        0.2955
     43 C         -66.6411  -56.3621  -22.7923 C.3     1  UNL1        0.0569
     44 C         -67.5548  -55.6607  -23.7586 C.ar    1  UNL1       -0.0017
     45 C         -67.1769  -55.0425  -24.9472 C.ar    1  UNL1        0.0681
     46 N         -68.2674  -54.6399  -25.6384 N.ar    1  UNL1       -0.3523
     47 C         -69.3305  -55.0069  -24.9021 C.ar    1  UNL1        0.0563
     48 C         -70.6770  -54.8443  -25.2252 C.ar    1  UNL1        0.0170
     49 C         -71.6348  -55.3389  -24.3213 C.ar    1  UNL1        0.0015
     50 C         -71.2300  -55.9768  -23.1284 C.ar    1  UNL1        0.0001
     51 C         -69.8640  -56.1291  -22.8296 C.ar    1  UNL1        0.0012
     52 C         -68.9368  -55.6314  -23.7462 C.ar    1  UNL1        0.0131
     53 H         -68.2774  -54.1662  -26.5688 H       1  UNL1        0.1660
@<TRIPOS>BOND
     1    39    40    2
     2    40    41    1
     3    40    33    1
     4    33    34   ar
     5    34    35   ar
     6    35    29    1
     7    29    30   am
     8    30    31    2
     9    30    28    1
    10    28    43    1
    11    43    44    1
    12    44    45   ar
    13    45    46   ar
    14    46    47   ar
    15    47    48   ar
    16    48    49   ar
    17    49    50   ar
    18    50    51   ar
    19    51    52   ar
    20    28     1    1
    21     1     2   am
    22     2     3    2
    23     2     5    1
    24     5     6   ar
    25     6     7   ar
    26     7     8   ar
    27     8    12    1
    28    12    13    1
    29    13    14    1
    30    14    15    1
    31    15    18    1
    32    18    19   ar
    33    19    20   ar
    34    20    21   ar
    35    21    24    1
    36    24    25    1
    37    24    26    1
    38    24    27    1
    39    21    22   ar
    40    22    23   ar
    41    15    16    1
    42    16    17    1
    43     8     9   ar
    44     9    10   ar
    45    10    11    1
    46    35    36   ar
    47    36    37   ar
    48    37    38   ar
    49    38    33   ar
    50    52    44   ar
    51    10     5   ar
    52    52    47   ar
    53    17    12    1
    54    23    18   ar
    55    41    42    1
    56    29    32    1
    57    46    53    1
    58     1     4    1
@<TRIPOS>MOLECULE
*****
 53 58 0 0 0
SMALL
GASTEIGER

@<TRIPOS>ATOM
      1 N         -65.3943  -53.9849  -22.6828 N.am    1  UNL1       -0.2945
      2 C         -64.0220  -53.5761  -22.8025 C.2     1  UNL1        0.2483
      3 O         -63.1031  -54.3302  -22.3797 O.2     1  UNL1       -0.2701
      4 H         -66.0984  -53.5295  -23.3068 H       1  UNL1        0.1501
      5 C         -63.6657  -52.2934  -23.4515 C.ar    1  UNL1        0.0808
      6 C         -64.4905  -51.7754  -24.4645 C.ar    1  UNL1        0.0080
      7 C         -64.1767  -50.5648  -25.0875 C.ar    1  UNL1        0.0148
      8 C         -63.0246  -49.8539  -24.7185 C.ar    1  UNL1        0.0502
      9 C         -62.1908  -50.3751  -23.7181 C.ar    1  UNL1        0.0443
     10 C         -62.5021  -51.5855  -23.0904 C.ar    1  UNL1        0.1457
     11 F         -61.6409  -52.0788  -22.1648 F       1  UNL1       -0.2040
     12 N         -62.6961  -48.6050  -25.3558 N.pl3   1  UNL1       -0.3040
     13 C         -61.9111  -47.5965  -24.6359 C.3     1  UNL1        0.1123
     14 C         -62.4339  -46.1950  -24.9541 C.3     1  UNL1        0.1136
     15 N         -62.6001  -46.0302  -26.4053 N.pl3   1  UNL1       -0.2897
     16 C         -63.3682  -47.0508  -27.1308 C.3     1  UNL1        0.1136
     17 C         -62.8387  -48.4480  -26.8070 C.3     1  UNL1        0.1123
     18 C         -62.2867  -44.7820  -27.0559 C.ar    1  UNL1        0.1318
     19 C         -61.0399  -44.5689  -27.6663 C.ar    1  UNL1        0.0343
     20 C         -60.7743  -43.3455  -28.2833 C.ar    1  UNL1        0.0083
     21 C         -61.7370  -42.3252  -28.2741 C.ar    1  UNL1        0.0906
     22 C         -62.9765  -42.5841  -27.6688 C.ar    1  UNL1        0.1041
     23 N         -63.2133  -43.7842  -27.0765 N.ar    1  UNL1       -0.2292
     24 C         -61.4815  -41.0178  -28.9798 C.3     1  UNL1        0.4200
     25 F         -61.4992  -41.2271  -30.3460 F       1  UNL1       -0.1658
     26 F         -60.2493  -40.5009  -28.6184 F       1  UNL1       -0.1658
     27 F         -62.4537  -40.0883  -28.6530 F       1  UNL1       -0.1658
     28 C         -65.7954  -55.1872  -21.9444 C.3     1  UNL1        0.1535
     29 N         -66.5624  -55.4086  -19.5243 N.am    1  UNL1       -0.2825
     30 C         -66.7467  -54.8276  -20.8265 C.2     1  UNL1        0.2443
     31 O         -67.7053  -54.0372  -21.0437 O.2     1  UNL1       -0.2730
     32 H         -65.6170  -55.7928  -19.2979 H       1  UNL1        0.1549
     33 CA        -68.2846  -55.6824  -16.1871 C.ar    1  UNL1        0.1577
     34 C         -67.2598  -55.6632  -17.1483 C.ar    1  UNL1        0.0404
     35 C         -67.5785  -55.5020  -18.5086 C.ar    1  UNL1        0.0536
     36 C         -68.9222  -55.3473  -18.8731 C.ar    1  UNL1        0.0353
     37 C         -69.9145  -55.3809  -17.8933 C.ar    1  UNL1        0.1003
     38 N         -69.5779  -55.5446  -16.5878 N.ar    1  UNL1       -0.2372
     39 O         -68.9103  -55.9740  -13.9117 O.2     1  UNL1       -0.2434
     40 C         -67.9787  -55.8347  -14.7484 C.2     1  UNL1        0.3560
     41 OXT       -66.6623  -55.8283  -14.2915 O.3     1  UNL1       -0.4761
     42 HXT       -65.8761  -55.7206  -14.9208 H       1  UNL1        0.2955
     43 C         -66.4339  -56.1976  -22.9133 C.3     1  UNL1        0.0569
     44 C         -67.3272  -55.5187  -23.9142 C.ar    1  UNL1       -0.0017
     45 C         -66.9268  -54.9417  -25.1160 C.ar    1  UNL1        0.0681
     46 N         -68.0036  -54.5513  -25.8350 N.ar    1  UNL1       -0.3523
     47 C         -69.0804  -54.8853  -25.1029 C.ar    1  UNL1        0.0563
     48 C         -70.4206  -54.7209  -25.4502 C.ar    1  UNL1        0.0170
     49 C         -71.3957  -55.1781  -24.5451 C.ar    1  UNL1        0.0015
     50 C         -71.0137  -55.7817  -23.3271 C.ar    1  UNL1        0.0001
     51 C         -69.6535  -55.9369  -23.0041 C.ar    1  UNL1        0.0012
     52 C         -68.7089  -55.4766  -23.9225 C.ar    1  UNL1        0.0131
     53 H         -67.9961  -54.1070  -26.7799 H       1  UNL1        0.1660
@<TRIPOS>BOND
     1    39    40    2
     2    40    41    1
     3    40    33    1
     4    33    34   ar
     5    34    35   ar
     6    35    29    1
     7    29    30   am
     8    30    31    2
     9    30    28    1
    10    28    43    1
    11    43    44    1
    12    44    45   ar
    13    45    46   ar
    14    46    47   ar
    15    47    48   ar
    16    48    49   ar
    17    49    50   ar
    18    50    51   ar
    19    51    52   ar
    20    28     1    1
    21     1     2   am
    22     2     3    2
    23     2     5    1
    24     5     6   ar
    25     6     7   ar
    26     7     8   ar
    27     8    12    1
    28    12    13    1
    29    13    14    1
    30    14    15    1
    31    15    18    1
    32    18    19   ar
    33    19    20   ar
    34    20    21   ar
    35    21    24    1
    36    24    25    1
    37    24    26    1
    38    24    27    1
    39    21    22   ar
    40    22    23   ar
    41    15    16    1
    42    16    17    1
    43     8     9   ar
    44     9    10   ar
    45    10    11    1
    46    35    36   ar
    47    36    37   ar
    48    37    38   ar
    49    38    33   ar
    50    52    44   ar
    51    10     5   ar
    52    52    47   ar
    53    17    12    1
    54    23    18   ar
    55    41    42    1
    56    29    32    1
    57    46    53    1
    58     1     4    1
@<TRIPOS>MOLECULE
*****
 53 58 0 0 0
SMALL
GASTEIGER

@<TRIPOS>ATOM
      1 N         -66.1205  -55.3912  -22.4676 N.am    1  UNL1       -0.2945
      2 C         -64.7544  -54.9682  -22.3288 C.2     1  UNL1        0.2483
      3 O         -63.9238  -55.7117  -21.7378 O.2     1  UNL1       -0.2701
      4 H         -66.6993  -54.9444  -23.2146 H       1  UNL1        0.1501
      5 C         -64.2953  -53.6830  -22.9042 C.ar    1  UNL1        0.0808
      6 C         -63.0764  -53.1280  -22.4785 C.ar    1  UNL1        0.0080
      7 C         -62.6210  -51.9191  -23.0107 C.ar    1  UNL1        0.0148
      8 C         -63.3818  -51.2343  -23.9705 C.ar    1  UNL1        0.0502
      9 C         -64.6061  -51.7775  -24.3870 C.ar    1  UNL1        0.0443
     10 C         -65.0649  -52.9884  -23.8584 C.ar    1  UNL1        0.1457
     11 F         -66.2787  -53.4514  -24.2509 F       1  UNL1       -0.2040
     12 N         -62.9176  -49.9885  -24.5239 N.pl3   1  UNL1       -0.3040
     13 C         -61.5763  -49.4933  -24.1966 C.3     1  UNL1        0.1123
     14 C         -61.6033  -47.9745  -24.0194 C.3     1  UNL1        0.1136
     15 N         -62.3153  -47.3431  -25.1398 N.pl3   1  UNL1       -0.2897
     16 C         -63.6500  -47.8523  -25.4822 C.3     1  UNL1        0.1136
     17 C         -63.6134  -49.3707  -25.6576 C.3     1  UNL1        0.1123
     18 C         -61.8694  -46.0899  -25.6967 C.ar    1  UNL1        0.1318
     19 C         -62.1100  -44.8717  -25.0406 C.ar    1  UNL1        0.0343
     20 C         -61.6644  -43.6799  -25.6140 C.ar    1  UNL1        0.0083
     21 C         -61.0008  -43.6945  -26.8499 C.ar    1  UNL1        0.0906
     22 C         -60.7647  -44.9339  -27.4647 C.ar    1  UNL1        0.1041
     23 N         -61.2057  -46.0818  -26.8859 N.ar    1  UNL1       -0.2292
     24 C         -60.4708  -42.4198  -27.4556 C.3     1  UNL1        0.4200
     25 F         -59.5695  -42.7318  -28.4560 F       1  UNL1       -0.1658
     26 F         -59.8327  -41.6523  -26.4966 F       1  UNL1       -0.1658
     27 F         -61.5017  -41.6699  -27.9948 F       1  UNL1       -0.1658
     28 C         -66.6412  -56.5963  -21.8131 C.3     1  UNL1        0.1535
     29 N         -68.5626  -56.5213  -20.1408 N.am    1  UNL1       -0.2825
     30 C         -67.1810  -56.2610  -20.4418 C.2     1  UNL1        0.2443
     31 O         -66.4258  -55.7397  -19.5767 O.2     1  UNL1       -0.2730
     32 H         -69.0636  -57.2158  -20.7403 H       1  UNL1        0.1549
     33 CA        -71.0306  -54.3855  -18.2630 C.ar    1  UNL1        0.1577
     34 C         -70.2813  -54.9146  -19.3275 C.ar    1  UNL1        0.0404
     35 C         -69.3092  -55.8998  -19.0780 C.ar    1  UNL1        0.0536
     36 C         -69.1214  -56.3447  -17.7631 C.ar    1  UNL1        0.0353
     37 C         -69.8762  -55.7905  -16.7293 C.ar    1  UNL1        0.1003
     38 N         -70.8036  -54.8357  -16.9989 N.ar    1  UNL1       -0.2372
     39 O         -73.1174  -53.3454  -17.7967 O.2     1  UNL1       -0.2434
     40 C         -72.0701  -53.3602  -18.4968 C.2     1  UNL1        0.3560
     41 OXT       -71.9131  -52.3946  -19.4893 O.3     1  UNL1       -0.4761
     42 HXT       -71.0911  -52.3602  -20.0796 H       1  UNL1        0.2955
     43 C         -67.7275  -57.2338  -22.6968 C.3     1  UNL1        0.0569
     44 C         -68.3794  -56.2188  -23.5943 C.ar    1  UNL1       -0.0017
     45 C         -68.9468  -55.0119  -23.1954 C.ar    1  UNL1        0.0681
     46 N         -69.3111  -54.2814  -24.2737 N.ar    1  UNL1       -0.3523
     47 C         -68.9701  -55.0114  -25.3497 C.ar    1  UNL1        0.0563
     48 C         -69.1093  -54.6541  -26.6901 C.ar    1  UNL1        0.0170
     49 C         -68.6489  -55.5593  -27.6635 C.ar    1  UNL1        0.0015
     50 C         -68.0672  -56.7874  -27.2799 C.ar    1  UNL1        0.0001
     51 C         -67.9373  -57.1204  -25.9195 C.ar    1  UNL1        0.0012
     52 C         -68.4000  -56.2018  -24.9764 C.ar    1  UNL1        0.0131
     53 H         -69.7431  -53.3308  -24.2672 H       1  UNL1        0.1660
@<TRIPOS>BOND
     1    39    40    2
     2    40    41    1
     3    40    33    1
     4    33    34   ar
     5    34    35   ar
     6    35    29    1
     7    29    30   am
     8    30    31    2
     9    30    28    1
    10    28    43    1
    11    43    44    1
    12    44    45   ar
    13    45    46   ar
    14    46    47   ar
    15    47    48   ar
    16    48    49   ar
    17    49    50   ar
    18    50    51   ar
    19    51    52   ar
    20    28     1    1
    21     1     2   am
    22     2     3    2
    23     2     5    1
    24     5     6   ar
    25     6     7   ar
    26     7     8   ar
    27     8    12    1
    28    12    13    1
    29    13    14    1
    30    14    15    1
    31    15    18    1
    32    18    19   ar
    33    19    20   ar
    34    20    21   ar
    35    21    24    1
    36    24    25    1
    37    24    26    1
    38    24    27    1
    39    21    22   ar
    40    22    23   ar
    41    15    16    1
    42    16    17    1
    43     8     9   ar
    44     9    10   ar
    45    10    11    1
    46    35    36   ar
    47    36    37   ar
    48    37    38   ar
    49    38    33   ar
    50    52    44   ar
    51    10     5   ar
    52    52    47   ar
    53    17    12    1
    54    23    18   ar
    55    41    42    1
    56    29    32    1
    57    46    53    1
    58     1     4    1
@<TRIPOS>MOLECULE
*****
 53 58 0 0 0
SMALL
GASTEIGER

@<TRIPOS>ATOM
      1 N         -62.6990  -47.0490  -26.2755 N.am    1  UNL1       -0.2945
      2 C         -61.8151  -46.5901  -25.2397 C.2     1  UNL1        0.2483
      3 O         -60.7867  -47.2610  -24.9492 O.2     1  UNL1       -0.2701
      4 H         -63.3382  -46.3514  -26.7199 H       1  UNL1        0.1501
      5 C         -62.0739  -45.3165  -24.5297 C.ar    1  UNL1        0.0808
      6 C         -62.2238  -45.3189  -23.1323 C.ar    1  UNL1        0.0080
      7 C         -62.4639  -44.1289  -22.4408 C.ar    1  UNL1        0.0148
      8 C         -62.5713  -42.9137  -23.1344 C.ar    1  UNL1        0.0502
      9 C         -62.4372  -42.9093  -24.5306 C.ar    1  UNL1        0.0443
     10 C         -62.1948  -44.0979  -25.2267 C.ar    1  UNL1        0.1457
     11 F         -62.1234  -44.0557  -26.5813 F       1  UNL1       -0.2040
     12 N         -62.8174  -41.6834  -22.4275 N.pl3   1  UNL1       -0.3040
     13 C         -61.7873  -41.1233  -21.5463 C.3     1  UNL1        0.1123
     14 C         -62.4319  -40.5223  -20.2964 C.3     1  UNL1        0.1136
     15 N         -63.5612  -39.6588  -20.6703 N.pl3   1  UNL1       -0.2897
     16 C         -64.5826  -40.2115  -21.5698 C.3     1  UNL1        0.1136
     17 C         -63.9294  -40.8096  -22.8161 C.3     1  UNL1        0.1123
     18 C         -63.8272  -38.4299  -19.9642 C.ar    1  UNL1        0.1318
     19 C         -64.8990  -38.3222  -19.0630 C.ar    1  UNL1        0.0343
     20 C         -65.1247  -37.1143  -18.4012 C.ar    1  UNL1        0.0083
     21 C         -64.3014  -36.0063  -18.6514 C.ar    1  UNL1        0.0906
     22 C         -63.2309  -36.1602  -19.5457 C.ar    1  UNL1        0.1041
     23 N         -63.0291  -37.3471  -20.1765 N.ar    1  UNL1       -0.2292
     24 C         -64.5040  -34.7115  -17.9064 C.3     1  UNL1        0.4200
     25 F         -64.7397  -34.9861  -16.5724 F       1  UNL1       -0.1658
     26 F         -65.5841  -34.0159  -18.4216 F       1  UNL1       -0.1658
     27 F         -63.3819  -33.9077  -18.0102 F       1  UNL1       -0.1658
     28 C         -62.5441  -48.3579  -26.9191 C.3     1  UNL1        0.1535
     29 N         -62.4475  -49.6694  -24.7363 N.am    1  UNL1       -0.2825
     30 C         -63.0632  -49.4543  -26.0176 C.2     1  UNL1        0.2443
     31 O         -64.0179  -50.1851  -26.3985 O.2     1  UNL1       -0.2730
     32 H         -61.8943  -48.8813  -24.3294 H       1  UNL1        0.1549
     33 CA        -63.7215  -52.8738  -23.2239 C.ar    1  UNL1        0.1577
     34 C         -63.7072  -51.6601  -23.9319 C.ar    1  UNL1        0.0404
     35 C         -62.5339  -50.8856  -23.9705 C.ar    1  UNL1        0.0536
     36 C         -61.3927  -51.3561  -23.3083 C.ar    1  UNL1        0.0353
     37 C         -61.4455  -52.5607  -22.6070 C.ar    1  UNL1        0.1003
     38 N         -62.5942  -53.2847  -22.5815 N.ar    1  UNL1       -0.2372
     39 O         -65.8613  -53.5435  -24.0154 O.2     1  UNL1       -0.2434
     40 C         -64.9355  -53.7167  -23.1787 C.2     1  UNL1        0.3560
     41 OXT       -65.0791  -54.7145  -22.2165 O.3     1  UNL1       -0.4761
     42 HXT       -64.3656  -54.8966  -21.5213 H       1  UNL1        0.2955
     43 C         -63.2780  -48.3570  -28.2714 C.3     1  UNL1        0.0569
     44 C         -63.2617  -46.9964  -28.9110 C.ar    1  UNL1       -0.0017
     45 C         -62.3325  -45.9873  -28.6745 C.ar    1  UNL1        0.0681
     46 N         -62.5314  -44.9530  -29.5227 N.ar    1  UNL1       -0.3523
     47 C         -63.5712  -45.3036  -30.2991 C.ar    1  UNL1        0.0563
     48 C         -64.1195  -44.5756  -31.3542 C.ar    1  UNL1        0.0170
     49 C         -65.1897  -45.1501  -32.0638 C.ar    1  UNL1        0.0015
     50 C         -65.6826  -46.4242  -31.7068 C.ar    1  UNL1        0.0001
     51 C         -65.1079  -47.1372  -30.6391 C.ar    1  UNL1        0.0012
     52 C         -64.0459  -46.5437  -29.9555 C.ar    1  UNL1        0.0131
     53 H         -61.9701  -44.0743  -29.5788 H       1  UNL1        0.1660
@<TRIPOS>BOND
     1    39    40    2
     2    40    41    1
     3    40    33    1
     4    33    34   ar
     5    34    35   ar
     6    35    29    1
     7    29    30   am
     8    30    31    2
     9    30    28    1
    10    28    43    1
    11    43    44    1
    12    44    45   ar
    13    45    46   ar
    14    46    47   ar
    15    47    48   ar
    16    48    49   ar
    17    49    50   ar
    18    50    51   ar
    19    51    52   ar
    20    28     1    1
    21     1     2   am
    22     2     3    2
    23     2     5    1
    24     5     6   ar
    25     6     7   ar
    26     7     8   ar
    27     8    12    1
    28    12    13    1
    29    13    14    1
    30    14    15    1
    31    15    18    1
    32    18    19   ar
    33    19    20   ar
    34    20    21   ar
    35    21    24    1
    36    24    25    1
    37    24    26    1
    38    24    27    1
    39    21    22   ar
    40    22    23   ar
    41    15    16    1
    42    16    17    1
    43     8     9   ar
    44     9    10   ar
    45    10    11    1
    46    35    36   ar
    47    36    37   ar
    48    37    38   ar
    49    38    33   ar
    50    52    44   ar
    51    10     5   ar
    52    52    47   ar
    53    17    12    1
    54    23    18   ar
    55    41    42    1
    56    29    32    1
    57    46    53    1
    58     1     4    1
@<TRIPOS>MOLECULE
*****
 53 58 0 0 0
SMALL
GASTEIGER

@<TRIPOS>ATOM
      1 N         -62.9775  -41.6794  -19.9596 N.am    1  UNL1       -0.2945
      2 C         -61.6686  -42.0468  -20.4246 C.2     1  UNL1        0.2483
      3 O         -60.7330  -42.2184  -19.5956 O.2     1  UNL1       -0.2701
      4 H         -63.7908  -41.8572  -20.5916 H       1  UNL1        0.1501
      5 C         -61.4084  -42.2646  -21.8662 C.ar    1  UNL1        0.0808
      6 C         -62.4628  -42.1453  -22.7876 C.ar    1  UNL1        0.0080
      7 C         -62.2399  -42.3418  -24.1528 C.ar    1  UNL1        0.0148
      8 C         -60.9601  -42.6739  -24.6229 C.ar    1  UNL1        0.0502
      9 C         -59.9083  -42.8086  -23.7048 C.ar    1  UNL1        0.0443
     10 C         -60.1264  -42.6108  -22.3375 C.ar    1  UNL1        0.1457
     11 F         -59.0926  -42.8020  -21.4793 F       1  UNL1       -0.2040
     12 N         -60.7234  -42.8765  -26.0289 N.pl3   1  UNL1       -0.3040
     13 C         -60.1911  -41.7836  -26.8496 C.3     1  UNL1        0.1123
     14 C         -60.8540  -41.7874  -28.2277 C.3     1  UNL1        0.1136
     15 N         -60.8415  -43.1432  -28.7956 N.pl3   1  UNL1       -0.2897
     16 C         -61.3548  -44.2419  -27.9666 C.3     1  UNL1        0.1136
     17 C         -60.6866  -44.2304  -26.5915 C.3     1  UNL1        0.1123
     18 C         -60.6176  -43.3611  -30.2034 C.ar    1  UNL1        0.1318
     19 C         -59.6146  -44.2330  -30.6576 C.ar    1  UNL1        0.0343
     20 C         -59.4278  -44.4146  -32.0287 C.ar    1  UNL1        0.0083
     21 C         -60.2205  -43.7132  -32.9494 C.ar    1  UNL1        0.0906
     22 C         -61.2232  -42.8648  -32.4550 C.ar    1  UNL1        0.1041
     23 N         -61.3883  -42.7058  -31.1153 N.ar    1  UNL1       -0.2292
     24 C         -60.0622  -43.9380  -34.4317 C.3     1  UNL1        0.4200
     25 F         -61.3124  -44.0270  -35.0144 F       1  UNL1       -0.1658
     26 F         -59.3661  -45.1092  -34.6760 F       1  UNL1       -0.1658
     27 F         -59.3669  -42.8917  -35.0128 F       1  UNL1       -0.1658
     28 C         -63.2480  -41.3402  -18.5583 C.3     1  UNL1        0.1535
     29 N         -64.0799  -39.0931  -19.4259 N.am    1  UNL1       -0.2825
     30 C         -63.4126  -39.8463  -18.3989 C.2     1  UNL1        0.2443
     31 O         -62.9500  -39.2659  -17.3792 O.2     1  UNL1       -0.2730
     32 H         -64.7063  -39.6177  -20.0778 H       1  UNL1        0.1549
     33 CA        -64.7232  -35.3843  -19.3286 C.ar    1  UNL1        0.1577
     34 C         -64.9248  -36.7657  -19.1687 C.ar    1  UNL1        0.0404
     35 C         -63.9522  -37.6729  -19.6257 C.ar    1  UNL1        0.0536
     36 C         -62.7877  -37.1708  -20.2209 C.ar    1  UNL1        0.0353
     37 C         -62.6250  -35.7938  -20.3722 C.ar    1  UNL1        0.1003
     38 N         -63.5840  -34.9413  -19.9271 N.ar    1  UNL1       -0.2372
     39 O         -66.8819  -34.3875  -19.3326 O.2     1  UNL1       -0.2434
     40 C         -65.7207  -34.4063  -18.8441 C.2     1  UNL1        0.3560
     41 OXT       -65.3994  -33.4918  -17.8430 O.3     1  UNL1       -0.4761
     42 HXT       -64.4817  -33.4641  -17.4155 H       1  UNL1        0.2955
     43 C         -64.5026  -42.0912  -18.0796 C.3     1  UNL1        0.0569
     44 C         -65.2488  -42.7135  -19.2270 C.ar    1  UNL1       -0.0017
     45 C         -65.5482  -44.0645  -19.3775 C.ar    1  UNL1        0.0681
     46 N         -66.3522  -44.2543  -20.4483 N.ar    1  UNL1       -0.3523
     47 C         -66.5713  -43.0347  -20.9694 C.ar    1  UNL1        0.0563
     48 C         -67.3775  -42.7163  -22.0614 C.ar    1  UNL1        0.0170
     49 C         -67.4967  -41.3608  -22.4181 C.ar    1  UNL1        0.0015
     50 C         -66.8148  -40.3655  -21.6844 C.ar    1  UNL1        0.0001
     51 C         -66.0101  -40.7159  -20.5852 C.ar    1  UNL1        0.0012
     52 C         -65.9132  -42.0678  -20.2530 C.ar    1  UNL1        0.0131
     53 H         -66.7444  -45.1627  -20.7817 H       1  UNL1        0.1660
@<TRIPOS>BOND
     1    39    40    2
     2    40    41    1
     3    40    33    1
     4    33    34   ar
     5    34    35   ar
     6    35    29    1
     7    29    30   am
     8    30    31    2
     9    30    28    1
    10    28    43    1
    11    43    44    1
    12    44    45   ar
    13    45    46   ar
    14    46    47   ar
    15    47    48   ar
    16    48    49   ar
    17    49    50   ar
    18    50    51   ar
    19    51    52   ar
    20    28     1    1
    21     1     2   am
    22     2     3    2
    23     2     5    1
    24     5     6   ar
    25     6     7   ar
    26     7     8   ar
    27     8    12    1
    28    12    13    1
    29    13    14    1
    30    14    15    1
    31    15    18    1
    32    18    19   ar
    33    19    20   ar
    34    20    21   ar
    35    21    24    1
    36    24    25    1
    37    24    26    1
    38    24    27    1
    39    21    22   ar
    40    22    23   ar
    41    15    16    1
    42    16    17    1
    43     8     9   ar
    44     9    10   ar
    45    10    11    1
    46    35    36   ar
    47    36    37   ar
    48    37    38   ar
    49    38    33   ar
    50    52    44   ar
    51    10     5   ar
    52    52    47   ar
    53    17    12    1
    54    23    18   ar
    55    41    42    1
    56    29    32    1
    57    46    53    1
    58     1     4    1
@<TRIPOS>MOLECULE
*****
 53 58 0 0 0
SMALL
GASTEIGER

@<TRIPOS>ATOM
      1 N         -62.3972  -46.0931  -27.2150 N.am    1  UNL1       -0.2945
      2 C         -61.6924  -45.8509  -25.9865 C.2     1  UNL1        0.2483
      3 O         -60.7841  -46.6448  -25.6168 O.2     1  UNL1       -0.2701
      4 H         -62.8936  -45.2895  -27.6627 H       1  UNL1        0.1501
      5 C         -61.9916  -44.6576  -25.1619 C.ar    1  UNL1        0.0808
      6 C         -61.9203  -44.7463  -23.7612 C.ar    1  UNL1        0.0080
      7 C         -62.1938  -43.6325  -22.9633 C.ar    1  UNL1        0.0148
      8 C         -62.5563  -42.4103  -23.5499 C.ar    1  UNL1        0.0502
      9 C         -62.6430  -42.3219  -24.9471 C.ar    1  UNL1        0.0443
     10 C         -62.3682  -43.4337  -25.7498 C.ar    1  UNL1        0.1457
     11 F         -62.5146  -43.3180  -27.0940 F       1  UNL1       -0.2040
     12 N         -62.8382  -41.2582  -22.7332 N.pl3   1  UNL1       -0.3040
     13 C         -61.8040  -40.7152  -21.8462 C.3     1  UNL1        0.1123
     14 C         -62.4277  -40.2563  -20.5274 C.3     1  UNL1        0.1136
     15 N         -63.6157  -39.4301  -20.7856 N.pl3   1  UNL1       -0.2897
     16 C         -64.6423  -39.9637  -21.6906 C.3     1  UNL1        0.1136
     17 C         -64.0101  -40.4195  -23.0058 C.3     1  UNL1        0.1123
     18 C         -63.9174  -38.2804  -19.9691 C.ar    1  UNL1        0.1318
     19 C         -64.9214  -38.3241  -18.9879 C.ar    1  UNL1        0.0343
     20 C         -65.1849  -37.1888  -18.2200 C.ar    1  UNL1        0.0083
     21 C         -64.4685  -36.0032  -18.4417 C.ar    1  UNL1        0.0906
     22 C         -63.4618  -36.0060  -19.4195 C.ar    1  UNL1        0.1041
     23 N         -63.2212  -37.1245  -20.1532 N.ar    1  UNL1       -0.2292
     24 C         -64.7091  -34.7856  -17.5860 C.3     1  UNL1        0.4200
     25 F         -65.7891  -34.0834  -18.0871 F       1  UNL1       -0.1658
     26 F         -63.5965  -33.9621  -17.5853 F       1  UNL1       -0.1658
     27 F         -64.9769  -35.1527  -16.2786 F       1  UNL1       -0.1658
     28 C         -62.2147  -47.3199  -27.9980 C.3     1  UNL1        0.1535
     29 N         -62.8325  -48.5521  -25.8546 N.am    1  UNL1       -0.2825
     30 C         -62.8475  -48.4965  -27.2912 C.2     1  UNL1        0.2443
     31 O         -63.3676  -49.4297  -27.9614 O.2     1  UNL1       -0.2730
     32 H         -62.6865  -47.6544  -25.3394 H       1  UNL1        0.1549
     33 CA        -62.2152  -51.3875  -23.4550 C.ar    1  UNL1        0.1577
     34 C         -61.9784  -50.2547  -24.2519 C.ar    1  UNL1        0.0404
     35 C         -63.0031  -49.7480  -25.0711 C.ar    1  UNL1        0.0536
     36 C         -64.2519  -50.3826  -25.0598 C.ar    1  UNL1        0.0353
     37 C         -64.4490  -51.5108  -24.2636 C.ar    1  UNL1        0.1003
     38 N         -63.4391  -51.9819  -23.4874 N.ar    1  UNL1       -0.2372
     39 O         -59.9538  -51.6310  -22.7617 O.2     1  UNL1       -0.2434
     40 C         -61.1621  -51.9334  -22.5722 C.2     1  UNL1        0.3560
     41 OXT       -61.4824  -52.7872  -21.5185 O.3     1  UNL1       -0.4761
     42 HXT       -62.4370  -53.0617  -21.3211 H       1  UNL1        0.2955
     43 C         -62.8132  -47.1285  -29.4024 C.3     1  UNL1        0.0569
     44 C         -62.8653  -45.6768  -29.7905 C.ar    1  UNL1       -0.0017
     45 C         -61.8215  -44.9323  -30.3326 C.ar    1  UNL1        0.0681
     46 N         -62.2554  -43.7038  -30.6952 N.ar    1  UNL1       -0.3523
     47 C         -63.5655  -43.6691  -30.3962 C.ar    1  UNL1        0.0563
     48 C         -64.4563  -42.6220  -30.6283 C.ar    1  UNL1        0.0170
     49 C         -65.8030  -42.8119  -30.2687 C.ar    1  UNL1        0.0015
     50 C         -66.2241  -44.0297  -29.6911 C.ar    1  UNL1        0.0001
     51 C         -65.3034  -45.0701  -29.4709 C.ar    1  UNL1        0.0012
     52 C         -63.9751  -44.8542  -29.8405 C.ar    1  UNL1        0.0131
     53 H         -61.6901  -42.9487  -31.1430 H       1  UNL1        0.1660
@<TRIPOS>BOND
     1    39    40    2
     2    40    41    1
     3    40    33    1
     4    33    34   ar
     5    34    35   ar
     6    35    29    1
     7    29    30   am
     8    30    31    2
     9    30    28    1
    10    28    43    1
    11    43    44    1
    12    44    45   ar
    13    45    46   ar
    14    46    47   ar
    15    47    48   ar
    16    48    49   ar
    17    49    50   ar
    18    50    51   ar
    19    51    52   ar
    20    28     1    1
    21     1     2   am
    22     2     3    2
    23     2     5    1
    24     5     6   ar
    25     6     7   ar
    26     7     8   ar
    27     8    12    1
    28    12    13    1
    29    13    14    1
    30    14    15    1
    31    15    18    1
    32    18    19   ar
    33    19    20   ar
    34    20    21   ar
    35    21    24    1
    36    24    25    1
    37    24    26    1
    38    24    27    1
    39    21    22   ar
    40    22    23   ar
    41    15    16    1
    42    16    17    1
    43     8     9   ar
    44     9    10   ar
    45    10    11    1
    46    35    36   ar
    47    36    37   ar
    48    37    38   ar
    49    38    33   ar
    50    52    44   ar
    51    10     5   ar
    52    52    47   ar
    53    17    12    1
    54    23    18   ar
    55    41    42    1
    56    29    32    1
    57    46    53    1
    58     1     4    1
@<TRIPOS>MOLECULE
*****
 53 58 0 0 0
SMALL
GASTEIGER

@<TRIPOS>ATOM
      1 N         -61.5146  -46.5589  -25.5393 N.am    1  UNL1       -0.2945
      2 C         -60.9515  -46.1993  -24.2672 C.2     1  UNL1        0.2483
      3 O         -60.0341  -46.9049  -23.7647 O.2     1  UNL1       -0.2701
      4 H         -62.0159  -45.8187  -26.0810 H       1  UNL1        0.1501
      5 C         -61.4078  -44.9863  -23.5504 C.ar    1  UNL1        0.0808
      6 C         -61.9098  -45.1004  -22.2427 C.ar    1  UNL1        0.0080
      7 C         -62.3416  -43.9694  -21.5456 C.ar    1  UNL1        0.0148
      8 C         -62.2917  -42.7024  -22.1468 C.ar    1  UNL1        0.0502
      9 C         -61.8052  -42.5864  -23.4572 C.ar    1  UNL1        0.0443
     10 C         -61.3700  -43.7157  -24.1582 C.ar    1  UNL1        0.1457
     11 F         -60.9556  -43.5651  -25.4417 F       1  UNL1       -0.2040
     12 N         -62.7341  -41.5324  -21.4332 N.pl3   1  UNL1       -0.3040
     13 C         -64.0422  -41.5269  -20.7698 C.3     1  UNL1        0.1123
     14 C         -64.7085  -40.1595  -20.9282 C.3     1  UNL1        0.1136
     15 N         -63.7607  -39.0883  -20.5891 N.pl3   1  UNL1       -0.2897
     16 C         -62.4424  -39.1046  -21.2369 C.3     1  UNL1        0.1136
     17 C         -61.7839  -40.4747  -21.0733 C.3     1  UNL1        0.1123
     18 C         -64.1911  -37.9056  -19.8853 C.ar    1  UNL1        0.1318
     19 C         -65.5376  -37.5060  -19.8828 C.ar    1  UNL1        0.0343
     20 C         -65.9134  -36.3533  -19.1916 C.ar    1  UNL1        0.0083
     21 C         -64.9498  -35.5840  -18.5227 C.ar    1  UNL1        0.0906
     22 C         -63.6180  -36.0267  -18.5348 C.ar    1  UNL1        0.1041
     23 N         -63.2761  -37.1541  -19.2126 N.ar    1  UNL1       -0.2292
     24 C         -65.3500  -34.3648  -17.7313 C.3     1  UNL1        0.4200
     25 F         -66.6756  -34.0701  -17.9890 F       1  UNL1       -0.1658
     26 F         -64.5694  -33.2771  -18.0828 F       1  UNL1       -0.1658
     27 F         -65.1933  -34.5901  -16.3747 F       1  UNL1       -0.1658
     28 C         -61.1760  -47.8113  -26.2237 C.3     1  UNL1        0.1535
     29 N         -61.4123  -49.4107  -24.2539 N.am    1  UNL1       -0.2825
     30 C         -61.8574  -48.9811  -25.5518 C.2     1  UNL1        0.2443
     31 O         -62.7973  -49.5850  -26.1372 O.2     1  UNL1       -0.2730
     32 H         -60.8706  -48.7258  -23.6794 H       1  UNL1        0.1549
     33 CA        -63.0802  -52.6357  -23.2556 C.ar    1  UNL1        0.1577
     34 C         -62.9106  -51.3386  -23.7686 C.ar    1  UNL1        0.0404
     35 C         -61.6550  -50.7107  -23.6844 C.ar    1  UNL1        0.0536
     36 C         -60.5900  -51.4075  -23.0992 C.ar    1  UNL1        0.0353
     37 C         -60.7965  -52.6902  -22.5916 C.ar    1  UNL1        0.1003
     38 N         -62.0217  -53.2694  -22.6809 N.ar    1  UNL1       -0.2372
     39 O         -65.1781  -53.0687  -24.2876 O.2     1  UNL1       -0.2434
     40 C         -64.3843  -53.3269  -23.3439 C.2     1  UNL1        0.3560
     41 OXT       -64.7593  -54.2730  -22.3919 O.3     1  UNL1       -0.4761
     42 HXT       -64.1593  -54.5188  -21.6141 H       1  UNL1        0.2955
     43 C         -61.5759  -47.7126  -27.7061 C.3     1  UNL1        0.0569
     44 C         -60.8765  -46.5739  -28.3952 C.ar    1  UNL1       -0.0017
     45 C         -59.5015  -46.3628  -28.4458 C.ar    1  UNL1        0.0681
     46 N         -59.2118  -45.3284  -29.2674 N.ar    1  UNL1       -0.3523
     47 C         -60.3901  -44.8907  -29.7437 C.ar    1  UNL1        0.0563
     48 C         -60.5993  -43.8643  -30.6639 C.ar    1  UNL1        0.0170
     49 C         -61.9223  -43.5928  -31.0572 C.ar    1  UNL1        0.0015
     50 C         -62.9943  -44.3440  -30.5276 C.ar    1  UNL1        0.0001
     51 C         -62.7532  -45.3758  -29.6024 C.ar    1  UNL1        0.0012
     52 C         -61.4305  -45.6243  -29.2332 C.ar    1  UNL1        0.0131
     53 H         -58.2617  -44.9654  -29.5034 H       1  UNL1        0.1660
@<TRIPOS>BOND
     1    39    40    2
     2    40    41    1
     3    40    33    1
     4    33    34   ar
     5    34    35   ar
     6    35    29    1
     7    29    30   am
     8    30    31    2
     9    30    28    1
    10    28    43    1
    11    43    44    1
    12    44    45   ar
    13    45    46   ar
    14    46    47   ar
    15    47    48   ar
    16    48    49   ar
    17    49    50   ar
    18    50    51   ar
    19    51    52   ar
    20    28     1    1
    21     1     2   am
    22     2     3    2
    23     2     5    1
    24     5     6   ar
    25     6     7   ar
    26     7     8   ar
    27     8    12    1
    28    12    13    1
    29    13    14    1
    30    14    15    1
    31    15    18    1
    32    18    19   ar
    33    19    20   ar
    34    20    21   ar
    35    21    24    1
    36    24    25    1
    37    24    26    1
    38    24    27    1
    39    21    22   ar
    40    22    23   ar
    41    15    16    1
    42    16    17    1
    43     8     9   ar
    44     9    10   ar
    45    10    11    1
    46    35    36   ar
    47    36    37   ar
    48    37    38   ar
    49    38    33   ar
    50    52    44   ar
    51    10     5   ar
    52    52    47   ar
    53    17    12    1
    54    23    18   ar
    55    41    42    1
    56    29    32    1
    57    46    53    1
    58     1     4    1
