@<TRIPOS>MOLECULE
*****
 35 38 0 0 0
SMALL
GASTEIGER

@<TRIPOS>ATOM
      1 C         -21.1156   -8.1268   -8.5205 C.ar    1  UNL1        0.1718
      2 C         -20.7041   -7.8346   -9.8304 C.ar    1  UNL1        0.0400
      3 C         -21.5458   -8.0935  -10.9086 C.ar    1  UNL1        0.0030
      4 C         -22.8046   -8.6800  -10.7114 C.ar    1  UNL1       -0.0015
      5 C         -23.2025   -9.0471   -9.4006 C.ar    1  UNL1        0.0145
      6 C         -22.3725   -8.7093   -8.3005 C.ar    1  UNL1        0.1636
      7 O         -22.7653   -8.9190   -6.9752 O.3     1  UNL1       -0.5031
      8 C         -24.5036   -9.8001   -9.2236 C.3     1  UNL1        0.0299
      9 C         -25.7195   -8.8785   -9.3980 C.3     1  UNL1        0.0091
     10 C         -25.6190   -7.9258  -10.6057 C.3     1  UNL1        0.0227
     11 C         -25.0321   -8.5882  -11.8417 C.2     1  UNL1       -0.0398
     12 C         -23.7012   -8.8876  -11.8904 C.2     1  UNL1       -0.0076
     13 H         -23.7055   -9.1625   -6.6968 H       1  UNL1        0.2923
     14 C         -23.0907   -9.4686  -13.1058 C.ar    1  UNL1        0.0056
     15 C         -22.7473   -8.6527  -14.1864 C.ar    1  UNL1        0.0402
     16 C         -22.1817   -9.2028  -15.3530 C.ar    1  UNL1        0.1754
     17 C         -21.9666  -10.6048  -15.4233 C.ar    1  UNL1        0.2061
     18 C         -22.3029  -11.4171  -14.3267 C.ar    1  UNL1        0.1754
     19 C         -22.8482  -10.8418  -13.1674 C.ar    1  UNL1        0.0402
     20 O         -21.8392   -8.3834  -16.4401 O.3     1  UNL1       -0.4683
     21 C         -22.7138   -7.4506  -17.0670 C.3     1  UNL1        0.2526
     22 O         -21.4292  -11.2568  -16.5498 O.3     1  UNL1       -0.4654
     23 C         -22.1567  -11.9637  -17.5480 C.3     1  UNL1        0.2528
     24 O         -22.0866  -12.8006  -14.4335 O.3     1  UNL1       -0.4683
     25 C         -20.8946  -13.4656  -14.0271 C.3     1  UNL1        0.2526
     26 C         -19.1972   -8.6327   -6.9934 C.3     1  UNL1        0.2526
     27 O         -20.3081   -7.8436   -7.4070 O.3     1  UNL1       -0.4684
     28 C         -25.9538   -8.8136  -13.0349 C.3     1  UNL1        0.0488
     29 C         -26.4251   -7.5204  -13.6733 C.ar    1  UNL1       -0.0119
     30 C         -25.5501   -6.8111  -14.5178 C.ar    1  UNL1       -0.0035
     31 C         -25.9343   -5.5938  -15.0830 C.ar    1  UNL1       -0.0003
     32 C         -27.2067   -5.0799  -14.8372 C.ar    1  UNL1        0.0005
     33 C         -28.1061   -5.7937  -14.0448 C.ar    1  UNL1        0.0064
     34 C         -27.7349   -7.0174  -13.4736 C.ar    1  UNL1        0.0309
     35 BR        -29.0743   -7.9564  -12.4679 Br      1  UNL1       -0.0493
@<TRIPOS>BOND
     1    26    27    1
     2    27     1    1
     3     1     2   ar
     4     2     3   ar
     5     3     4   ar
     6     4     5   ar
     7     5     6   ar
     8     6     7    1
     9     5     8    1
    10     8     9    1
    11     9    10    1
    12    10    11    1
    13    11    28    1
    14    28    29    1
    15    29    30   ar
    16    30    31   ar
    17    31    32   ar
    18    32    33   ar
    19    33    34   ar
    20    34    35    1
    21    11    12    2
    22    12    14    1
    23    14    15   ar
    24    15    16   ar
    25    16    20    1
    26    20    21    1
    27    16    17   ar
    28    17    22    1
    29    22    23    1
    30    17    18   ar
    31    18    24    1
    32    24    25    1
    33    18    19   ar
    34     6     1   ar
    35    34    29   ar
    36    19    14   ar
    37    12     4    1
    38     7    13    1
@<TRIPOS>MOLECULE
*****
 35 38 0 0 0
SMALL
GASTEIGER

@<TRIPOS>ATOM
      1 C         -24.4029  -14.0488  -15.3826 C.ar    1  UNL1        0.1718
      2 C         -25.5325  -13.3178  -14.9823 C.ar    1  UNL1        0.0400
      3 C         -25.4091  -11.9890  -14.5863 C.ar    1  UNL1        0.0030
      4 C         -24.1531  -11.3655  -14.5480 C.ar    1  UNL1       -0.0015
      5 C         -22.9953  -12.1142  -14.8797 C.ar    1  UNL1        0.0145
      6 C         -23.1380  -13.4431  -15.3562 C.ar    1  UNL1        0.1636
      7 O         -22.0537  -14.1890  -15.8281 O.3     1  UNL1       -0.5031
      8 C         -21.6391  -11.4658  -14.7026 C.3     1  UNL1        0.0299
      9 C         -21.3576  -10.4321  -15.8028 C.3     1  UNL1        0.0091
     10 C         -22.5464   -9.4997  -16.1092 C.3     1  UNL1        0.0227
     11 C         -23.2842   -9.0429  -14.8611 C.2     1  UNL1       -0.0398
     12 C         -24.0717   -9.9200  -14.1726 C.2     1  UNL1       -0.0076
     13 H         -21.1413  -13.7995  -16.0197 H       1  UNL1        0.2923
     14 C         -24.8549   -9.4854  -12.9958 C.ar    1  UNL1        0.0056
     15 C         -26.0521   -8.7847  -13.1599 C.ar    1  UNL1        0.0402
     16 C         -26.7932   -8.3532  -12.0426 C.ar    1  UNL1        0.1754
     17 C         -26.3064   -8.6345  -10.7386 C.ar    1  UNL1        0.2061
     18 C         -25.1074   -9.3512  -10.5820 C.ar    1  UNL1        0.1754
     19 C         -24.3967   -9.7869  -11.7122 C.ar    1  UNL1        0.0402
     20 O         -27.9948   -7.6467  -12.2075 O.3     1  UNL1       -0.4683
     21 C         -28.6032   -7.3514  -13.4608 C.3     1  UNL1        0.2526
     22 O         -26.9575   -8.2290   -9.5577 O.3     1  UNL1       -0.4654
     23 C         -27.5715   -6.9677   -9.3179 C.3     1  UNL1        0.2528
     24 O         -24.6494   -9.6034   -9.2786 O.3     1  UNL1       -0.4683
     25 C         -23.3050   -9.4213   -8.8454 C.3     1  UNL1        0.2526
     26 C         -25.0988  -15.7822  -17.0497 C.3     1  UNL1        0.2526
     27 O         -24.4961  -15.3786  -15.8242 O.3     1  UNL1       -0.4684
     28 C         -23.1844   -7.5721  -14.4726 C.3     1  UNL1        0.0488
     29 C         -22.4183   -7.3499  -13.1821 C.ar    1  UNL1       -0.0119
     30 C         -21.1499   -7.9400  -13.0244 C.ar    1  UNL1       -0.0035
     31 C         -20.4389   -7.7957  -11.8317 C.ar    1  UNL1       -0.0003
     32 C         -20.9697   -7.0374  -10.7892 C.ar    1  UNL1        0.0005
     33 C         -22.2019   -6.4022  -10.9459 C.ar    1  UNL1        0.0064
     34 C         -22.9247   -6.5363  -12.1380 C.ar    1  UNL1        0.0309
     35 BR        -24.5696   -5.5557  -12.2796 Br      1  UNL1       -0.0493
@<TRIPOS>BOND
     1    26    27    1
     2    27     1    1
     3     1     2   ar
     4     2     3   ar
     5     3     4   ar
     6     4     5   ar
     7     5     6   ar
     8     6     7    1
     9     5     8    1
    10     8     9    1
    11     9    10    1
    12    10    11    1
    13    11    28    1
    14    28    29    1
    15    29    30   ar
    16    30    31   ar
    17    31    32   ar
    18    32    33   ar
    19    33    34   ar
    20    34    35    1
    21    11    12    2
    22    12    14    1
    23    14    15   ar
    24    15    16   ar
    25    16    20    1
    26    20    21    1
    27    16    17   ar
    28    17    22    1
    29    22    23    1
    30    17    18   ar
    31    18    24    1
    32    24    25    1
    33    18    19   ar
    34     6     1   ar
    35    34    29   ar
    36    19    14   ar
    37    12     4    1
    38     7    13    1
@<TRIPOS>MOLECULE
*****
 35 38 0 0 0
SMALL
GASTEIGER

@<TRIPOS>ATOM
      1 C         -21.0156   -7.6451  -10.2209 C.ar    1  UNL1        0.1718
      2 C         -22.1792   -6.8835  -10.4128 C.ar    1  UNL1        0.0400
      3 C         -23.1320   -7.2748  -11.3493 C.ar    1  UNL1        0.0030
      4 C         -22.9340   -8.4160  -12.1405 C.ar    1  UNL1       -0.0015
      5 C         -21.7295   -9.1529  -12.0080 C.ar    1  UNL1        0.0145
      6 C         -20.8000   -8.7924  -10.9985 C.ar    1  UNL1        0.1636
      7 O         -19.6607   -9.5550  -10.7240 O.3     1  UNL1       -0.5031
      8 C         -21.4742  -10.2996  -12.9624 C.3     1  UNL1        0.0299
      9 C         -22.3315  -11.5258  -12.6165 C.3     1  UNL1        0.0091
     10 C         -23.8024  -11.1949  -12.2951 C.3     1  UNL1        0.0227
     11 C         -24.3917  -10.1384  -13.2156 C.2     1  UNL1       -0.0398
     12 C         -24.0085   -8.8340  -13.0932 C.2     1  UNL1       -0.0076
     13 H         -19.4992  -10.4816  -11.0930 H       1  UNL1        0.2923
     14 C         -24.6163   -7.7754  -13.9283 C.ar    1  UNL1        0.0056
     15 C         -25.7985   -7.1478  -13.5286 C.ar    1  UNL1        0.0402
     16 C         -26.3909   -6.1514  -14.3284 C.ar    1  UNL1        0.1754
     17 C         -25.7741   -5.7914  -15.5559 C.ar    1  UNL1        0.2061
     18 C         -24.5778   -6.4186  -15.9447 C.ar    1  UNL1        0.1754
     19 C         -23.9969   -7.3959  -15.1202 C.ar    1  UNL1        0.0402
     20 O         -27.5805   -5.5226  -13.9282 O.3     1  UNL1       -0.4683
     21 C         -28.8768   -5.8330  -14.4293 C.3     1  UNL1        0.2526
     22 O         -26.2955   -4.8258  -16.4382 O.3     1  UNL1       -0.4654
     23 C         -26.3484   -3.4201  -16.2222 C.3     1  UNL1        0.2528
     24 O         -23.9997   -6.0462  -17.1691 O.3     1  UNL1       -0.4683
     25 C         -24.5329   -6.3763  -18.4478 C.3     1  UNL1        0.2526
     26 C         -19.9176   -7.9319   -7.9893 C.3     1  UNL1        0.2526
     27 O         -20.0523   -7.3010   -9.2588 O.3     1  UNL1       -0.4684
     28 C         -25.4747  -10.5724  -14.1969 C.3     1  UNL1        0.0488
     29 C         -25.2379  -11.9582  -14.7672 C.ar    1  UNL1       -0.0119
     30 C         -25.9548  -13.0501  -14.2422 C.ar    1  UNL1       -0.0035
     31 C         -25.7264  -14.3453  -14.7106 C.ar    1  UNL1       -0.0003
     32 C         -24.8005  -14.5669  -15.7290 C.ar    1  UNL1        0.0005
     33 C         -24.1181  -13.4911  -16.2975 C.ar    1  UNL1        0.0064
     34 C         -24.3393  -12.1863  -15.8391 C.ar    1  UNL1        0.0309
     35 BR        -23.4094  -10.7709  -16.7443 Br      1  UNL1       -0.0493
@<TRIPOS>BOND
     1    26    27    1
     2    27     1    1
     3     1     2   ar
     4     2     3   ar
     5     3     4   ar
     6     4     5   ar
     7     5     6   ar
     8     6     7    1
     9     5     8    1
    10     8     9    1
    11     9    10    1
    12    10    11    1
    13    11    28    1
    14    28    29    1
    15    29    30   ar
    16    30    31   ar
    17    31    32   ar
    18    32    33   ar
    19    33    34   ar
    20    34    35    1
    21    11    12    2
    22    12    14    1
    23    14    15   ar
    24    15    16   ar
    25    16    20    1
    26    20    21    1
    27    16    17   ar
    28    17    22    1
    29    22    23    1
    30    17    18   ar
    31    18    24    1
    32    24    25    1
    33    18    19   ar
    34     6     1   ar
    35    34    29   ar
    36    19    14   ar
    37    12     4    1
    38     7    13    1
@<TRIPOS>MOLECULE
*****
 35 38 0 0 0
SMALL
GASTEIGER

@<TRIPOS>ATOM
      1 C         -24.4109  -14.0421  -15.3959 C.ar    1  UNL1        0.1718
      2 C         -25.5348  -13.3153  -14.9725 C.ar    1  UNL1        0.0400
      3 C         -25.4070  -11.9880  -14.5726 C.ar    1  UNL1        0.0030
      4 C         -24.1519  -11.3621  -14.5535 C.ar    1  UNL1       -0.0015
      5 C         -22.9985  -12.1069  -14.9090 C.ar    1  UNL1        0.0145
      6 C         -23.1470  -13.4339  -15.3889 C.ar    1  UNL1        0.1636
      7 O         -22.0697  -14.1754  -15.8832 O.3     1  UNL1       -0.5031
      8 C         -21.6407  -11.4566  -14.7528 C.3     1  UNL1        0.0299
      9 C         -21.3807  -10.4172  -15.8530 C.3     1  UNL1        0.0091
     10 C         -22.5765   -9.4859  -16.1341 C.3     1  UNL1        0.0227
     11 C         -23.2932   -9.0363  -14.8712 C.2     1  UNL1       -0.0398
     12 C         -24.0667   -9.9182  -14.1730 C.2     1  UNL1       -0.0076
     13 H         -21.1616  -13.7832  -16.0891 H       1  UNL1        0.2923
     14 C         -24.8299   -9.4905  -12.9806 C.ar    1  UNL1        0.0056
     15 C         -24.3442   -9.7501  -11.6968 C.ar    1  UNL1        0.0402
     16 C         -25.0752   -9.3605  -10.5577 C.ar    1  UNL1        0.1754
     17 C         -26.3215   -8.7012  -10.7271 C.ar    1  UNL1        0.2061
     18 C         -26.7971   -8.4323  -12.0222 C.ar    1  UNL1        0.1754
     19 C         -26.0402   -8.8142  -13.1419 C.ar    1  UNL1        0.0402
     20 O         -24.5885   -9.6238   -9.2677 O.3     1  UNL1       -0.4683
     21 C         -23.2445   -9.4180   -8.8441 C.3     1  UNL1        0.2526
     22 O         -27.1398   -8.2911   -9.6570 O.3     1  UNL1       -0.4654
     23 C         -27.5006   -6.9541   -9.3292 C.3     1  UNL1        0.2528
     24 O         -28.0379   -7.7879  -12.1539 O.3     1  UNL1       -0.4683
     25 C         -28.6233   -7.4084  -13.3954 C.3     1  UNL1        0.2526
     26 C         -25.1123  -15.7672  -17.0693 C.3     1  UNL1        0.2526
     27 O         -24.5093  -15.3700  -15.8419 O.3     1  UNL1       -0.4684
     28 C         -23.1895   -7.5671  -14.4777 C.3     1  UNL1        0.0488
     29 C         -22.4107   -7.3501  -13.1939 C.ar    1  UNL1       -0.0119
     30 C         -21.1345   -7.9285  -13.0571 C.ar    1  UNL1       -0.0035
     31 C         -20.4113   -7.7890  -11.8712 C.ar    1  UNL1       -0.0003
     32 C         -20.9377   -7.0470  -10.8148 C.ar    1  UNL1        0.0005
     33 C         -22.1781   -6.4232  -10.9507 C.ar    1  UNL1        0.0064
     34 C         -22.9133   -6.5526  -12.1357 C.ar    1  UNL1        0.0309
     35 BR        -24.5698   -5.5879  -12.2482 Br      1  UNL1       -0.0493
@<TRIPOS>BOND
     1    26    27    1
     2    27     1    1
     3     1     2   ar
     4     2     3   ar
     5     3     4   ar
     6     4     5   ar
     7     5     6   ar
     8     6     7    1
     9     5     8    1
    10     8     9    1
    11     9    10    1
    12    10    11    1
    13    11    28    1
    14    28    29    1
    15    29    30   ar
    16    30    31   ar
    17    31    32   ar
    18    32    33   ar
    19    33    34   ar
    20    34    35    1
    21    11    12    2
    22    12    14    1
    23    14    15   ar
    24    15    16   ar
    25    16    20    1
    26    20    21    1
    27    16    17   ar
    28    17    22    1
    29    22    23    1
    30    17    18   ar
    31    18    24    1
    32    24    25    1
    33    18    19   ar
    34     6     1   ar
    35    34    29   ar
    36    19    14   ar
    37    12     4    1
    38     7    13    1
@<TRIPOS>MOLECULE
*****
 35 38 0 0 0
SMALL
GASTEIGER

@<TRIPOS>ATOM
      1 C         -21.0413   -7.5954  -10.2746 C.ar    1  UNL1        0.1718
      2 C         -22.2090   -6.8411  -10.4706 C.ar    1  UNL1        0.0400
      3 C         -23.1633   -7.2469  -11.3993 C.ar    1  UNL1        0.0030
      4 C         -22.9629   -8.3957  -12.1788 C.ar    1  UNL1       -0.0015
      5 C         -21.7547   -9.1257  -12.0426 C.ar    1  UNL1        0.0145
      6 C         -20.8232   -8.7501  -11.0404 C.ar    1  UNL1        0.1636
      7 O         -19.6795   -9.5045  -10.7618 O.3     1  UNL1       -0.5031
      8 C         -21.4976  -10.2816  -12.9854 C.3     1  UNL1        0.0299
      9 C         -22.3482  -11.5078  -12.6231 C.3     1  UNL1        0.0091
     10 C         -23.8194  -11.1799  -12.3000 C.3     1  UNL1        0.0227
     11 C         -24.4168  -10.1362  -13.2298 C.2     1  UNL1       -0.0398
     12 C         -24.0390   -8.8288  -13.1229 C.2     1  UNL1       -0.0076
     13 H         -19.5152  -10.4344  -11.1212 H       1  UNL1        0.2923
     14 C         -24.6545   -7.7822  -13.9674 C.ar    1  UNL1        0.0056
     15 C         -24.0547   -7.3963  -15.1685 C.ar    1  UNL1        0.0402
     16 C         -24.6271   -6.3880  -15.9680 C.ar    1  UNL1        0.1754
     17 C         -25.8252   -5.7593  -15.5368 C.ar    1  UNL1        0.2061
     18 C         -26.4293   -6.1623  -14.3333 C.ar    1  UNL1        0.1754
     19 C         -25.8488   -7.1834  -13.5634 C.ar    1  UNL1        0.0402
     20 O         -24.0230   -5.9981  -17.1736 O.3     1  UNL1       -0.4683
     21 C         -24.6060   -6.1458  -18.4645 C.3     1  UNL1        0.2526
     22 O         -26.4655   -4.7269  -16.2489 O.3     1  UNL1       -0.4654
     23 C         -26.2342   -3.3297  -16.1086 C.3     1  UNL1        0.2528
     24 O         -27.6078   -5.5129  -13.9313 O.3     1  UNL1       -0.4683
     25 C         -28.9108   -5.8358  -14.4068 C.3     1  UNL1        0.2526
     26 C         -19.9270   -7.8602   -8.0483 C.3     1  UNL1        0.2526
     27 O         -20.0761   -7.2365   -9.3198 O.3     1  UNL1       -0.4684
     28 C         -25.5012  -10.5857  -14.2024 C.3     1  UNL1        0.0488
     29 C         -25.2534  -11.9712  -14.7686 C.ar    1  UNL1       -0.0119
     30 C         -25.9641  -13.0668  -14.2429 C.ar    1  UNL1       -0.0035
     31 C         -25.7256  -14.3615  -14.7074 C.ar    1  UNL1       -0.0003
     32 C         -24.7954  -14.5793  -15.7226 C.ar    1  UNL1        0.0005
     33 C         -24.1188  -13.5002  -16.2919 C.ar    1  UNL1        0.0064
     34 C         -24.3502  -12.1958  -15.8375 C.ar    1  UNL1        0.0309
     35 BR        -23.4275  -10.7763  -16.7435 Br      1  UNL1       -0.0493
@<TRIPOS>BOND
     1    26    27    1
     2    27     1    1
     3     1     2   ar
     4     2     3   ar
     5     3     4   ar
     6     4     5   ar
     7     5     6   ar
     8     6     7    1
     9     5     8    1
    10     8     9    1
    11     9    10    1
    12    10    11    1
    13    11    28    1
    14    28    29    1
    15    29    30   ar
    16    30    31   ar
    17    31    32   ar
    18    32    33   ar
    19    33    34   ar
    20    34    35    1
    21    11    12    2
    22    12    14    1
    23    14    15   ar
    24    15    16   ar
    25    16    20    1
    26    20    21    1
    27    16    17   ar
    28    17    22    1
    29    22    23    1
    30    17    18   ar
    31    18    24    1
    32    24    25    1
    33    18    19   ar
    34     6     1   ar
    35    34    29   ar
    36    19    14   ar
    37    12     4    1
    38     7    13    1
@<TRIPOS>MOLECULE
*****
 35 38 0 0 0
SMALL
GASTEIGER

@<TRIPOS>ATOM
      1 C         -21.3227   -8.1655   -8.6477 C.ar    1  UNL1        0.1718
      2 C         -20.8500   -8.0017   -9.9594 C.ar    1  UNL1        0.0400
      3 C         -21.6848   -8.2476  -11.0459 C.ar    1  UNL1        0.0030
      4 C         -23.0005   -8.6941  -10.8533 C.ar    1  UNL1       -0.0015
      5 C         -23.4671   -8.9336   -9.5357 C.ar    1  UNL1        0.0145
      6 C         -22.6367   -8.6068   -8.4326 C.ar    1  UNL1        0.1636
      7 O         -23.0829   -8.6894   -7.1101 O.3     1  UNL1       -0.5031
      8 C         -24.8408   -9.5427   -9.3541 C.3     1  UNL1        0.0299
      9 C         -25.9540   -8.5202   -9.6255 C.3     1  UNL1        0.0091
     10 C         -25.7276   -7.6635  -10.8869 C.3     1  UNL1        0.0227
     11 C         -25.1775   -8.4600  -12.0590 C.2     1  UNL1       -0.0398
     12 C         -23.8821   -8.8904  -12.0454 C.2     1  UNL1       -0.0076
     13 H         -24.0496   -8.8211   -6.8477 H       1  UNL1        0.2923
     14 C         -23.3008   -9.6069  -13.2014 C.ar    1  UNL1        0.0056
     15 C         -23.2407  -11.0025  -13.2136 C.ar    1  UNL1        0.0402
     16 C         -22.6725  -11.6894  -14.3040 C.ar    1  UNL1        0.1754
     17 C         -22.1533  -10.9451  -15.3963 C.ar    1  UNL1        0.2061
     18 C         -22.2293   -9.5417  -15.3821 C.ar    1  UNL1        0.1754
     19 C         -22.8178   -8.8811  -14.2914 C.ar    1  UNL1        0.0402
     20 O         -22.6094  -13.0916  -14.3151 O.3     1  UNL1       -0.4683
     21 C         -23.7021  -13.9560  -14.6098 C.3     1  UNL1        0.2526
     22 O         -21.5454  -11.5323  -16.5226 O.3     1  UNL1       -0.4654
     23 C         -22.2100  -12.1119  -17.6397 C.3     1  UNL1        0.2528
     24 O         -21.6972   -8.8363  -16.4736 O.3     1  UNL1       -0.4683
     25 C         -20.4653   -8.1221  -16.4509 C.3     1  UNL1        0.2526
     26 C         -19.3309   -8.5975   -7.1937 C.3     1  UNL1        0.2526
     27 O         -20.5204   -7.8898   -7.5287 O.3     1  UNL1       -0.4684
     28 C         -26.0855   -8.6723  -13.2650 C.3     1  UNL1        0.0488
     29 C         -26.5673   -7.3723  -13.8813 C.ar    1  UNL1       -0.0119
     30 C         -25.6920   -6.6322  -14.6986 C.ar    1  UNL1       -0.0035
     31 C         -26.0865   -5.4084  -15.2421 C.ar    1  UNL1       -0.0003
     32 C         -27.3694   -4.9183  -15.0019 C.ar    1  UNL1        0.0005
     33 C         -28.2684   -5.6621  -14.2372 C.ar    1  UNL1        0.0064
     34 C         -27.8868   -6.8926  -13.6880 C.ar    1  UNL1        0.0309
     35 BR        -29.2252   -7.8725  -12.7207 Br      1  UNL1       -0.0493
@<TRIPOS>BOND
     1    26    27    1
     2    27     1    1
     3     1     2   ar
     4     2     3   ar
     5     3     4   ar
     6     4     5   ar
     7     5     6   ar
     8     6     7    1
     9     5     8    1
    10     8     9    1
    11     9    10    1
    12    10    11    1
    13    11    28    1
    14    28    29    1
    15    29    30   ar
    16    30    31   ar
    17    31    32   ar
    18    32    33   ar
    19    33    34   ar
    20    34    35    1
    21    11    12    2
    22    12    14    1
    23    14    15   ar
    24    15    16   ar
    25    16    20    1
    26    20    21    1
    27    16    17   ar
    28    17    22    1
    29    22    23    1
    30    17    18   ar
    31    18    24    1
    32    24    25    1
    33    18    19   ar
    34     6     1   ar
    35    34    29   ar
    36    19    14   ar
    37    12     4    1
    38     7    13    1
@<TRIPOS>MOLECULE
*****
 35 38 0 0 0
SMALL
GASTEIGER

@<TRIPOS>ATOM
      1 C         -24.0262  -14.1032  -15.0829 C.ar    1  UNL1        0.1718
      2 C         -24.7293  -13.5442  -14.0040 C.ar    1  UNL1        0.0400
      3 C         -24.3984  -12.2794  -13.5258 C.ar    1  UNL1        0.0030
      4 C         -23.3380  -11.5542  -14.0890 C.ar    1  UNL1       -0.0015
      5 C         -22.5731  -12.1378  -15.1308 C.ar    1  UNL1        0.0145
      6 C         -22.9652  -13.3930  -15.6637 C.ar    1  UNL1        0.1636
      7 O         -22.3401  -13.9607  -16.7780 O.3     1  UNL1       -0.5031
      8 C         -21.3515  -11.3984  -15.6329 C.3     1  UNL1        0.0299
      9 C         -21.7368  -10.1974  -16.5089 C.3     1  UNL1        0.0091
     10 C         -22.8870   -9.3450  -15.9373 C.3     1  UNL1        0.0227
     11 C         -22.7888   -9.1403  -14.4342 C.2     1  UNL1       -0.0398
     12 C         -23.0531  -10.1754  -13.5844 C.2     1  UNL1       -0.0076
     13 H         -21.6941  -13.4653  -17.3763 H       1  UNL1        0.2923
     14 C         -23.0327   -9.9866  -12.1176 C.ar    1  UNL1        0.0056
     15 C         -21.8251  -10.0116  -11.4160 C.ar    1  UNL1        0.0402
     16 C         -21.8013   -9.8497  -10.0171 C.ar    1  UNL1        0.1754
     17 C         -23.0251   -9.6644   -9.3209 C.ar    1  UNL1        0.2061
     18 C         -24.2347   -9.6276  -10.0358 C.ar    1  UNL1        0.1754
     19 C         -24.2299   -9.7726  -11.4327 C.ar    1  UNL1        0.0402
     20 O         -20.5881   -9.8777   -9.3117 O.3     1  UNL1       -0.4683
     21 C         -19.3298   -9.4633   -9.8342 C.3     1  UNL1        0.2526
     22 O         -23.1137   -9.5160   -7.9234 O.3     1  UNL1       -0.4654
     23 C         -22.3654   -8.6130   -7.1172 C.3     1  UNL1        0.2528
     24 O         -25.4274   -9.4529   -9.3152 O.3     1  UNL1       -0.4683
     25 C         -26.5060   -8.6197   -9.7280 C.3     1  UNL1        0.2526
     26 C         -25.2691  -15.5665  -16.6898 C.3     1  UNL1        0.2526
     27 O         -24.3579  -15.3597  -15.6152 O.3     1  UNL1       -0.4684
     28 C         -22.4813   -7.7367  -13.9248 C.3     1  UNL1        0.0488
     29 C         -23.7053   -7.0186  -13.3885 C.ar    1  UNL1       -0.0119
     30 C         -24.9339   -7.1556  -14.0621 C.ar    1  UNL1       -0.0035
     31 C         -26.0685   -6.4705  -13.6237 C.ar    1  UNL1       -0.0003
     32 C         -26.0016   -5.6610  -12.4907 C.ar    1  UNL1        0.0005
     33 C         -24.8060   -5.5535  -11.7799 C.ar    1  UNL1        0.0064
     34 C         -23.6607   -6.2373  -12.2069 C.ar    1  UNL1        0.0309
     35 BR        -22.0908   -6.0852  -11.1117 Br      1  UNL1       -0.0493
@<TRIPOS>BOND
     1    26    27    1
     2    27     1    1
     3     1     2   ar
     4     2     3   ar
     5     3     4   ar
     6     4     5   ar
     7     5     6   ar
     8     6     7    1
     9     5     8    1
    10     8     9    1
    11     9    10    1
    12    10    11    1
    13    11    28    1
    14    28    29    1
    15    29    30   ar
    16    30    31   ar
    17    31    32   ar
    18    32    33   ar
    19    33    34   ar
    20    34    35    1
    21    11    12    2
    22    12    14    1
    23    14    15   ar
    24    15    16   ar
    25    16    20    1
    26    20    21    1
    27    16    17   ar
    28    17    22    1
    29    22    23    1
    30    17    18   ar
    31    18    24    1
    32    24    25    1
    33    18    19   ar
    34     6     1   ar
    35    34    29   ar
    36    19    14   ar
    37    12     4    1
    38     7    13    1
@<TRIPOS>MOLECULE
*****
 35 38 0 0 0
SMALL
GASTEIGER

@<TRIPOS>ATOM
      1 C         -24.0255  -14.1199  -15.1253 C.ar    1  UNL1        0.1718
      2 C         -24.7496  -13.5863  -14.0475 C.ar    1  UNL1        0.0400
      3 C         -24.4455  -12.3221  -13.5503 C.ar    1  UNL1        0.0030
      4 C         -23.3916  -11.5722  -14.0929 C.ar    1  UNL1       -0.0015
      5 C         -22.6056  -12.1298  -15.1334 C.ar    1  UNL1        0.0145
      6 C         -22.9706  -13.3847  -15.6858 C.ar    1  UNL1        0.1636
      7 O         -22.3240  -13.9280  -16.8000 O.3     1  UNL1       -0.5031
      8 C         -21.3914  -11.3638  -15.6130 C.3     1  UNL1        0.0299
      9 C         -21.7877  -10.1586  -16.4783 C.3     1  UNL1        0.0091
     10 C         -22.9583   -9.3329  -15.9091 C.3     1  UNL1        0.0227
     11 C         -22.8799   -9.1453  -14.4026 C.2     1  UNL1       -0.0398
     12 C         -23.1356  -10.1951  -13.5684 C.2     1  UNL1       -0.0076
     13 H         -21.6800  -13.4144  -17.3851 H       1  UNL1        0.2923
     14 C         -23.1342  -10.0242  -12.0994 C.ar    1  UNL1        0.0056
     15 C         -24.3315   -9.8285  -11.4069 C.ar    1  UNL1        0.0402
     16 C         -24.3345   -9.6479  -10.0101 C.ar    1  UNL1        0.1754
     17 C         -23.1003   -9.6616   -9.3078 C.ar    1  UNL1        0.2061
     18 C         -21.9012   -9.8718  -10.0102 C.ar    1  UNL1        0.1754
     19 C         -21.9267  -10.0683  -11.4006 C.ar    1  UNL1        0.0402
     20 O         -25.5374   -9.4485   -9.3146 O.3     1  UNL1       -0.4683
     21 C         -26.5866   -8.5798   -9.7301 C.3     1  UNL1        0.2526
     22 O         -22.9910   -9.4684   -7.9172 O.3     1  UNL1       -0.4654
     23 C         -22.1964   -8.4897   -7.2567 C.3     1  UNL1        0.2528
     24 O         -20.6978   -9.8694   -9.2863 O.3     1  UNL1       -0.4683
     25 C         -19.4115   -9.6529   -9.8581 C.3     1  UNL1        0.2526
     26 C         -25.2257  -15.5839  -16.7638 C.3     1  UNL1        0.2526
     27 O         -24.3300  -15.3751  -15.6765 O.3     1  UNL1       -0.4684
     28 C         -22.6017   -7.7431  -13.8728 C.3     1  UNL1        0.0488
     29 C         -23.8521   -7.0322  -13.3901 C.ar    1  UNL1       -0.0119
     30 C         -25.0432   -7.1559  -14.1303 C.ar    1  UNL1       -0.0035
     31 C         -26.1990   -6.4765  -13.7413 C.ar    1  UNL1       -0.0003
     32 C         -26.1919   -5.6865  -12.5927 C.ar    1  UNL1        0.0005
     33 C         -25.0357   -5.5929  -11.8176 C.ar    1  UNL1        0.0064
     34 C         -23.8698   -6.2712  -12.1947 C.ar    1  UNL1        0.0309
     35 BR        -22.3603   -6.1401  -11.0152 Br      1  UNL1       -0.0493
@<TRIPOS>BOND
     1    26    27    1
     2    27     1    1
     3     1     2   ar
     4     2     3   ar
     5     3     4   ar
     6     4     5   ar
     7     5     6   ar
     8     6     7    1
     9     5     8    1
    10     8     9    1
    11     9    10    1
    12    10    11    1
    13    11    28    1
    14    28    29    1
    15    29    30   ar
    16    30    31   ar
    17    31    32   ar
    18    32    33   ar
    19    33    34   ar
    20    34    35    1
    21    11    12    2
    22    12    14    1
    23    14    15   ar
    24    15    16   ar
    25    16    20    1
    26    20    21    1
    27    16    17   ar
    28    17    22    1
    29    22    23    1
    30    17    18   ar
    31    18    24    1
    32    24    25    1
    33    18    19   ar
    34     6     1   ar
    35    34    29   ar
    36    19    14   ar
    37    12     4    1
    38     7    13    1
@<TRIPOS>MOLECULE
*****
 35 38 0 0 0
SMALL
GASTEIGER

@<TRIPOS>ATOM
      1 C         -19.5858   -9.6797   -9.2501 C.ar    1  UNL1        0.1718
      2 C         -19.4437  -10.3802  -10.4583 C.ar    1  UNL1        0.0400
      3 C         -20.3723  -10.2161  -11.4823 C.ar    1  UNL1        0.0030
      4 C         -21.4829   -9.3756  -11.3159 C.ar    1  UNL1       -0.0015
      5 C         -21.6774   -8.7189  -10.0740 C.ar    1  UNL1        0.0145
      6 C         -20.6866   -8.8305   -9.0645 C.ar    1  UNL1        0.1636
      7 O         -20.7485   -8.1030   -7.8721 O.3     1  UNL1       -0.5031
      8 C         -22.9494   -7.9252   -9.8667 C.3     1  UNL1        0.0299
      9 C         -22.9175   -6.5943  -10.6323 C.3     1  UNL1        0.0091
     10 C         -22.3912   -6.7116  -12.0765 C.3     1  UNL1        0.0227
     11 C         -22.9006   -7.9482  -12.7992 C.2     1  UNL1       -0.0398
     12 C         -22.4248   -9.1823  -12.4614 C.2     1  UNL1       -0.0076
     13 H         -21.3903   -7.3399   -7.7091 H       1  UNL1        0.2923
     14 C         -22.8510  -10.3944  -13.1940 C.ar    1  UNL1        0.0056
     15 C         -23.7946  -11.2627  -12.6402 C.ar    1  UNL1        0.0402
     16 C         -24.1912  -12.4275  -13.3255 C.ar    1  UNL1        0.1754
     17 C         -23.6155  -12.7157  -14.5913 C.ar    1  UNL1        0.2061
     18 C         -22.6763  -11.8302  -15.1474 C.ar    1  UNL1        0.1754
     19 C         -22.3115  -10.6656  -14.4524 C.ar    1  UNL1        0.0402
     20 O         -25.1374  -13.3016  -12.7678 O.3     1  UNL1       -0.4683
     21 C         -26.3302  -13.7344  -13.4142 C.3     1  UNL1        0.2526
     22 O         -23.9254  -13.8626  -15.3472 O.3     1  UNL1       -0.4654
     23 C         -23.2797  -15.1286  -15.2710 C.3     1  UNL1        0.2528
     24 O         -22.1191  -12.1505  -16.3961 O.3     1  UNL1       -0.4683
     25 C         -22.6732  -11.7665  -17.6505 C.3     1  UNL1        0.2526
     26 C         -17.7554  -10.8891   -8.0437 C.3     1  UNL1        0.2526
     27 O         -18.6478   -9.7920   -8.2111 O.3     1  UNL1       -0.4684
     28 C         -23.8739   -7.7475  -13.9552 C.3     1  UNL1        0.0488
     29 C         -25.3160   -7.6197  -13.5014 C.ar    1  UNL1       -0.0119
     30 C         -25.7666   -8.3930  -12.4148 C.ar    1  UNL1       -0.0035
     31 C         -27.0990   -8.3359  -12.0020 C.ar    1  UNL1       -0.0003
     32 C         -27.9949   -7.4857  -12.6486 C.ar    1  UNL1        0.0005
     33 C         -27.5549   -6.6733  -13.6940 C.ar    1  UNL1        0.0064
     34 C         -26.2204   -6.7186  -14.1167 C.ar    1  UNL1        0.0309
     35 BR        -25.7010   -5.5018  -15.5084 Br      1  UNL1       -0.0493
@<TRIPOS>BOND
     1    26    27    1
     2    27     1    1
     3     1     2   ar
     4     2     3   ar
     5     3     4   ar
     6     4     5   ar
     7     5     6   ar
     8     6     7    1
     9     5     8    1
    10     8     9    1
    11     9    10    1
    12    10    11    1
    13    11    28    1
    14    28    29    1
    15    29    30   ar
    16    30    31   ar
    17    31    32   ar
    18    32    33   ar
    19    33    34   ar
    20    34    35    1
    21    11    12    2
    22    12    14    1
    23    14    15   ar
    24    15    16   ar
    25    16    20    1
    26    20    21    1
    27    16    17   ar
    28    17    22    1
    29    22    23    1
    30    17    18   ar
    31    18    24    1
    32    24    25    1
    33    18    19   ar
    34     6     1   ar
    35    34    29   ar
    36    19    14   ar
    37    12     4    1
    38     7    13    1
