@<TRIPOS>MOLECULE
*****
 50 55 0 0 0
SMALL
GASTEIGER

@<TRIPOS>ATOM
      1 O          59.7453   86.8373   12.4356 O.2     1  UNL1       -0.2701
      2 C          60.2004   86.2497   11.4162 C.2     1  UNL1        0.2483
      3 N          60.8001   84.9502   11.5516 N.am    1  UNL1       -0.2945
      4 H          61.3951   84.5960   10.7694 H       1  UNL1        0.1501
      5 C          60.1178   86.9126   10.0918 C.ar    1  UNL1        0.0808
      6 C          59.3608   86.3373    9.0554 C.ar    1  UNL1        0.0080
      7 C          59.2729   86.9609    7.8082 C.ar    1  UNL1        0.0148
      8 C          59.9345   88.1756    7.5724 C.ar    1  UNL1        0.0502
      9 C          60.6861   88.7556    8.6044 C.ar    1  UNL1        0.0443
     10 C          60.7768   88.1354    9.8544 C.ar    1  UNL1        0.1457
     11 F          61.5322   88.7193   10.8194 F       1  UNL1       -0.2040
     12 N          59.8500   88.8213    6.2878 N.pl3   1  UNL1       -0.3040
     13 C          58.5724   89.3754    5.8267 C.3     1  UNL1        0.1123
     14 C          58.8054   90.6935    5.0868 C.3     1  UNL1        0.1136
     15 N          59.8845   90.5404    4.1005 N.pl3   1  UNL1       -0.2897
     16 C          61.1577   89.9668    4.5567 C.3     1  UNL1        0.1136
     17 C          60.9158   88.6499    5.2950 C.3     1  UNL1        0.1123
     18 C          59.8166   91.1875    2.8136 C.ar    1  UNL1        0.1318
     19 C          60.9615   91.7312    2.2084 C.ar    1  UNL1        0.0343
     20 C          60.8552   92.3472    0.9606 C.ar    1  UNL1        0.0083
     21 C          59.6103   92.4373    0.3202 C.ar    1  UNL1        0.0906
     22 C          58.4972   91.8511    0.9425 C.ar    1  UNL1        0.1041
     23 N          58.6253   91.2552    2.1573 N.ar    1  UNL1       -0.2292
     24 C          59.4913   93.0543   -1.0500 C.3     1  UNL1        0.4200
     25 F          60.5934   93.8447   -1.3264 F       1  UNL1       -0.1658
     26 F          59.4083   92.0497   -1.9959 F       1  UNL1       -0.1658
     27 F          58.3589   93.8460   -1.1319 F       1  UNL1       -0.1658
     28 C          60.8130   84.2232   12.8246 C.3     1  UNL1        0.1536
     29 C          60.5514   82.7552   12.5861 C.2     1  UNL1        0.2443
     30 O          61.5337   81.9718   12.4776 O.2     1  UNL1       -0.2730
     31 N          59.2100   82.2665   12.4103 N.am    1  UNL1       -0.2825
     32 H          58.4419   82.9652   12.2958 H       1  UNL1        0.1549
     33 C          58.8860   80.8832   12.1952 C.ar    1  UNL1        0.0535
     34 C          58.4223   80.4709   10.9385 C.ar    1  UNL1        0.0353
     35 C          58.0938   79.1295   10.7293 C.ar    1  UNL1        0.1002
     36 N          58.2065   78.2335   11.7451 N.ar    1  UNL1       -0.2422
     37 C          58.6335   78.6076   12.9803 C.ar    1  UNL1        0.1002
     38 C          58.9747   79.9390   13.2313 C.ar    1  UNL1        0.0353
     39 C          62.1533   84.4541   13.5464 C.3     1  UNL1        0.0592
     40 C          62.0785   85.6180   14.4949 C.ar    1  UNL1        0.0254
     41 C          61.5424   85.6099   15.7781 C.ar    1  UNL1        0.1966
     42 F          60.9281   84.5521   16.3627 F       1  UNL1       -0.1855
     43 N          61.7423   86.7940   16.3978 N.ar    1  UNL1       -0.3307
     44 C          62.4151   87.5545   15.5161 C.ar    1  UNL1        0.0580
     45 C          62.8783   88.8558   15.7063 C.ar    1  UNL1        0.0170
     46 C          63.5907   89.4612   14.6551 C.ar    1  UNL1        0.0015
     47 C          63.8218   88.7609   13.4505 C.ar    1  UNL1        0.0001
     48 C          63.3423   87.4493   13.2854 C.ar    1  UNL1        0.0012
     49 C          62.6408   86.8726   14.3451 C.ar    1  UNL1        0.0153
     50 H          61.4535   87.0528   17.3673 H       1  UNL1        0.1680
@<TRIPOS>BOND
     1     1     2    2
     2     2     3   am
     3     3    28    1
     4    28    39    1
     5    39    40    1
     6    40    41   ar
     7    41    42    1
     8    41    43   ar
     9    43    44   ar
    10    44    45   ar
    11    45    46   ar
    12    46    47   ar
    13    47    48   ar
    14    48    49   ar
    15    28    29    1
    16    29    30    2
    17    29    31   am
    18    31    33    1
    19    33    34   ar
    20    34    35   ar
    21    35    36   ar
    22    36    37   ar
    23    37    38   ar
    24     2     5    1
    25     5     6   ar
    26     6     7   ar
    27     7     8   ar
    28     8    12    1
    29    12    13    1
    30    13    14    1
    31    14    15    1
    32    15    18    1
    33    18    19   ar
    34    19    20   ar
    35    20    21   ar
    36    21    24    1
    37    24    25    1
    38    24    26    1
    39    24    27    1
    40    21    22   ar
    41    22    23   ar
    42    15    16    1
    43    16    17    1
    44     8     9   ar
    45     9    10   ar
    46    10    11    1
    47    49    40   ar
    48    38    33   ar
    49    10     5   ar
    50    49    44   ar
    51    17    12    1
    52    23    18   ar
    53     3     4    1
    54    43    50    1
    55    31    32    1
@<TRIPOS>MOLECULE
*****
 50 55 0 0 0
SMALL
GASTEIGER

@<TRIPOS>ATOM
      1 O          59.7716   86.4941   12.3373 O.2     1  UNL1       -0.2701
      2 C          60.0146   85.8528   11.2783 C.2     1  UNL1        0.2483
      3 N          60.3324   84.4527   11.3505 N.am    1  UNL1       -0.2945
      4 H          60.7788   84.0033   10.5199 H       1  UNL1        0.1501
      5 C          59.9770   86.5557    9.9726 C.ar    1  UNL1        0.0808
      6 C          59.1706   86.0704    8.9275 C.ar    1  UNL1        0.0080
      7 C          59.1251   86.7324    7.6980 C.ar    1  UNL1        0.0148
      8 C          59.8797   87.8968    7.4889 C.ar    1  UNL1        0.0502
      9 C          60.6811   88.3873    8.5298 C.ar    1  UNL1        0.0443
     10 C          60.7297   87.7284    9.7623 C.ar    1  UNL1        0.1457
     11 F          61.5348   88.2243   10.7362 F       1  UNL1       -0.2040
     12 N          59.8392   88.5815    6.2226 N.pl3   1  UNL1       -0.3040
     13 C          58.5966   89.2166    5.7703 C.3     1  UNL1        0.1123
     14 C          58.9056   90.5401    5.0690 C.3     1  UNL1        0.1136
     15 N          59.9817   90.3563    4.0847 N.pl3   1  UNL1       -0.2897
     16 C          61.2188   89.7021    4.5316 C.3     1  UNL1        0.1136
     17 C          60.9011   88.3802    5.2312 C.3     1  UNL1        0.1123
     18 C          59.9578   91.0416    2.8161 C.ar    1  UNL1        0.1318
     19 C          61.1450   91.3734    2.1430 C.ar    1  UNL1        0.0343
     20 C          61.0800   92.0344    0.9156 C.ar    1  UNL1        0.0083
     21 C          59.8376   92.3798    0.3634 C.ar    1  UNL1        0.0906
     22 C          58.6744   91.9998    1.0506 C.ar    1  UNL1        0.1041
     23 N          58.7625   91.3553    2.2440 N.ar    1  UNL1       -0.2292
     24 C          59.7526   93.0479   -0.9853 C.3     1  UNL1        0.4200
     25 F          59.6787   92.1029   -1.9939 F       1  UNL1       -0.1658
     26 F          58.6227   93.8431   -1.0289 F       1  UNL1       -0.1658
     27 F          60.8680   93.8358   -1.2107 F       1  UNL1       -0.1658
     28 C          60.2846   83.7035   12.6097 C.3     1  UNL1        0.1536
     29 C          60.6685   84.6008   13.7620 C.2     1  UNL1        0.2443
     30 O          59.9408   84.6137   14.7920 O.2     1  UNL1       -0.2730
     31 N          61.8006   85.4824   13.6617 N.am    1  UNL1       -0.2825
     32 H          62.2517   85.6010   12.7270 H       1  UNL1        0.1549
     33 C          62.2323   86.3513   14.7217 C.ar    1  UNL1        0.0535
     34 C          62.7133   87.6307   14.4120 C.ar    1  UNL1        0.0353
     35 C          63.1462   88.4732   15.4385 C.ar    1  UNL1        0.1002
     36 N          63.1175   88.0465   16.7287 N.ar    1  UNL1       -0.2422
     37 C          62.6759   86.8037   17.0578 C.ar    1  UNL1        0.1002
     38 C          62.2316   85.9303   16.0618 C.ar    1  UNL1        0.0353
     39 C          58.8842   83.0934   12.8036 C.3     1  UNL1        0.0592
     40 C          58.7058   81.8447   11.9858 C.ar    1  UNL1        0.0254
     41 C          58.7115   80.5362   12.4567 C.ar    1  UNL1        0.1966
     42 F          58.9526   80.1672   13.7388 F       1  UNL1       -0.1855
     43 N          58.4069   79.6621   11.4722 N.ar    1  UNL1       -0.3307
     44 C          58.1959   80.4116   10.3757 C.ar    1  UNL1        0.0580
     45 C          57.8233   79.9652    9.1084 C.ar    1  UNL1        0.0170
     46 C          57.6252   80.9289    8.1030 C.ar    1  UNL1        0.0015
     47 C          57.8018   82.3020    8.3828 C.ar    1  UNL1        0.0001
     48 C          58.1788   82.7243    9.6700 C.ar    1  UNL1        0.0012
     49 C          58.3665   81.7471   10.6486 C.ar    1  UNL1        0.0153
     50 H          58.3299   78.6241   11.5548 H       1  UNL1        0.1680
@<TRIPOS>BOND
     1     1     2    2
     2     2     3   am
     3     3    28    1
     4    28    39    1
     5    39    40    1
     6    40    41   ar
     7    41    42    1
     8    41    43   ar
     9    43    44   ar
    10    44    45   ar
    11    45    46   ar
    12    46    47   ar
    13    47    48   ar
    14    48    49   ar
    15    28    29    1
    16    29    30    2
    17    29    31   am
    18    31    33    1
    19    33    34   ar
    20    34    35   ar
    21    35    36   ar
    22    36    37   ar
    23    37    38   ar
    24     2     5    1
    25     5     6   ar
    26     6     7   ar
    27     7     8   ar
    28     8    12    1
    29    12    13    1
    30    13    14    1
    31    14    15    1
    32    15    18    1
    33    18    19   ar
    34    19    20   ar
    35    20    21   ar
    36    21    24    1
    37    24    25    1
    38    24    26    1
    39    24    27    1
    40    21    22   ar
    41    22    23   ar
    42    15    16    1
    43    16    17    1
    44     8     9   ar
    45     9    10   ar
    46    10    11    1
    47    49    40   ar
    48    38    33   ar
    49    10     5   ar
    50    49    44   ar
    51    17    12    1
    52    23    18   ar
    53     3     4    1
    54    43    50    1
    55    31    32    1
@<TRIPOS>MOLECULE
*****
 50 55 0 0 0
SMALL
GASTEIGER

@<TRIPOS>ATOM
      1 O          59.7335   86.2186   12.2949 O.2     1  UNL1       -0.2701
      2 C          60.0885   85.6317   11.2361 C.2     1  UNL1        0.2483
      3 N          60.5519   84.2722   11.2963 N.am    1  UNL1       -0.2945
      4 H          61.0786   83.8924   10.4781 H       1  UNL1        0.1501
      5 C          60.0305   86.3567    9.9432 C.ar    1  UNL1        0.0808
      6 C          59.2448   85.8628    8.8864 C.ar    1  UNL1        0.0080
      7 C          59.1801   86.5453    7.6690 C.ar    1  UNL1        0.0148
      8 C          59.8942   87.7388    7.4841 C.ar    1  UNL1        0.0502
      9 C          60.6747   88.2379    8.5367 C.ar    1  UNL1        0.0443
     10 C          60.7425   87.5585    9.7572 C.ar    1  UNL1        0.1457
     11 F          61.5267   88.0643   10.7431 F       1  UNL1       -0.2040
     12 N          59.8338   88.4449    6.2303 N.pl3   1  UNL1       -0.3040
     13 C          58.5739   89.0537    5.7900 C.3     1  UNL1        0.1123
     14 C          58.8459   90.3976    5.1125 C.3     1  UNL1        0.1136
     15 N          59.9257   90.2610    4.1247 N.pl3   1  UNL1       -0.2897
     16 C          61.1807   89.6330    4.5591 C.3     1  UNL1        0.1136
     17 C          60.8999   88.2906    5.2349 C.3     1  UNL1        0.1123
     18 C          59.8819   90.9681    2.8686 C.ar    1  UNL1        0.1318
     19 C          61.0589   91.3415    2.1994 C.ar    1  UNL1        0.0343
     20 C          60.9747   92.0225    0.9841 C.ar    1  UNL1        0.0083
     21 C          59.7228   92.3466    0.4405 C.ar    1  UNL1        0.0906
     22 C          58.5710   91.9254    1.1229 C.ar    1  UNL1        0.1041
     23 N          58.6778   91.2621    2.3044 N.ar    1  UNL1       -0.2292
     24 C          59.6181   93.0363   -0.8958 C.3     1  UNL1        0.4200
     25 F          59.5531   92.1078   -1.9202 F       1  UNL1       -0.1658
     26 F          58.4752   93.8136   -0.9186 F       1  UNL1       -0.1658
     27 F          60.7191   93.8462   -1.1145 F       1  UNL1       -0.1658
     28 C          60.5320   83.4931   12.5380 C.3     1  UNL1        0.1536
     29 C          61.2402   84.2497   13.6364 C.2     1  UNL1        0.2443
     30 O          61.7978   83.5990   14.5617 O.2     1  UNL1       -0.2730
     31 N          61.2176   85.6875   13.6713 N.am    1  UNL1       -0.2825
     32 H          60.5755   86.1865   13.0156 H       1  UNL1        0.1549
     33 C          61.8808   86.4722   14.6759 C.ar    1  UNL1        0.0535
     34 C          62.6885   87.5496   14.2876 C.ar    1  UNL1        0.0353
     35 C          63.3454   88.3066   15.2605 C.ar    1  UNL1        0.1002
     36 N          63.2155   87.9874   16.5753 N.ar    1  UNL1       -0.2422
     37 C          62.4559   86.9356   16.9810 C.ar    1  UNL1        0.1002
     38 C          61.7800   86.1542   16.0404 C.ar    1  UNL1        0.0353
     39 C          59.0794   83.1564   12.9221 C.3     1  UNL1        0.0592
     40 C          58.4744   82.1555   11.9776 C.ar    1  UNL1        0.0254
     41 C          57.8889   82.4256   10.7454 C.ar    1  UNL1        0.1966
     42 F          57.7039   83.6621   10.2213 F       1  UNL1       -0.1855
     43 N          57.5521   81.2843   10.1048 N.ar    1  UNL1       -0.3307
     44 C          57.9319   80.2856   10.9214 C.ar    1  UNL1        0.0580
     45 C          57.8222   78.9158   10.6853 C.ar    1  UNL1        0.0170
     46 C          58.3130   78.0372   11.6682 C.ar    1  UNL1        0.0015
     47 C          58.8959   78.5408   12.8519 C.ar    1  UNL1        0.0001
     48 C          58.9930   79.9275   13.0644 C.ar    1  UNL1        0.0012
     49 C          58.5000   80.7760   12.0720 C.ar    1  UNL1        0.0153
     50 H          57.1105   81.1993    9.1624 H       1  UNL1        0.1680
@<TRIPOS>BOND
     1     1     2    2
     2     2     3   am
     3     3    28    1
     4    28    39    1
     5    39    40    1
     6    40    41   ar
     7    41    42    1
     8    41    43   ar
     9    43    44   ar
    10    44    45   ar
    11    45    46   ar
    12    46    47   ar
    13    47    48   ar
    14    48    49   ar
    15    28    29    1
    16    29    30    2
    17    29    31   am
    18    31    33    1
    19    33    34   ar
    20    34    35   ar
    21    35    36   ar
    22    36    37   ar
    23    37    38   ar
    24     2     5    1
    25     5     6   ar
    26     6     7   ar
    27     7     8   ar
    28     8    12    1
    29    12    13    1
    30    13    14    1
    31    14    15    1
    32    15    18    1
    33    18    19   ar
    34    19    20   ar
    35    20    21   ar
    36    21    24    1
    37    24    25    1
    38    24    26    1
    39    24    27    1
    40    21    22   ar
    41    22    23   ar
    42    15    16    1
    43    16    17    1
    44     8     9   ar
    45     9    10   ar
    46    10    11    1
    47    49    40   ar
    48    38    33   ar
    49    10     5   ar
    50    49    44   ar
    51    17    12    1
    52    23    18   ar
    53     3     4    1
    54    43    50    1
    55    31    32    1
