@<TRIPOS>MOLECULE
*****
 42 46 0 0 0
SMALL
GASTEIGER

@<TRIPOS>ATOM
      1 C         -24.9814   50.5168   -8.2711 C.ar    1  UNL1        0.0922
      2 C         -23.7117   50.9076   -7.7871 C.ar    1  UNL1        0.0284
      3 C         -22.8502   51.5774   -8.6523 C.ar    1  UNL1        0.1033
      4 N         -21.6163   52.0349   -8.3756 N.ar    1  UNL1       -0.2134
      5 C         -21.2309   52.5982   -9.5509 C.ar    1  UNL1        0.2019
      6 N         -22.1654   52.4997  -10.5350 N.ar    1  UNL1       -0.2950
      7 C         -22.0930   53.0080  -11.9046 C.3     1  UNL1        0.1333
      8 C         -23.1927   51.8624   -9.9427 C.ar    1  UNL1        0.1173
      9 C         -24.4444   51.5135  -10.4560 C.ar    1  UNL1        0.1897
     10 C         -25.3552   50.8573   -9.6013 C.ar    1  UNL1        0.1782
     11 O         -26.6384   50.5809  -10.0889 O.3     1  UNL1       -0.4682
     12 C         -27.1204   51.1644  -11.3012 C.3     1  UNL1        0.2526
     13 C         -25.9973   51.2243  -12.3429 C.3     1  UNL1        0.2527
     14 O         -24.8252   51.8059  -11.7692 O.3     1  UNL1       -0.4669
     15 N         -26.4849   50.4634   -6.2294 N.am    1  UNL1       -0.2806
     16 C         -25.9098   49.8018   -7.3687 C.2     1  UNL1        0.2526
     17 O         -26.2034   48.6002   -7.6163 O.2     1  UNL1       -0.2697
     18 H         -26.2959   51.4795   -6.0798 H       1  UNL1        0.1552
     19 C         -28.6934   50.1593   -5.1413 C.ar    1  UNL1       -0.0068
     20 C         -29.5128   49.3974   -4.2867 C.ar    1  UNL1        0.0265
     21 C         -28.9919   48.3311   -3.5522 C.ar    1  UNL1        0.1438
     22 F         -29.8214   47.6199   -2.7465 F       1  UNL1       -0.2042
     23 C         -27.6340   47.9917   -3.6565 C.ar    1  UNL1        0.1000
     24 C         -26.8199   48.7136   -4.5446 C.ar    1  UNL1        0.0205
     25 C         -27.3320   49.7941   -5.2819 C.ar    1  UNL1        0.0466
     26 C         -27.0892   46.8146   -2.8824 C.3     1  UNL1        0.4207
     27 F         -27.7657   46.6331   -1.6882 F       1  UNL1       -0.1658
     28 F         -25.7511   47.0283   -2.6075 F       1  UNL1       -0.1658
     29 F         -27.2179   45.6581   -3.6310 F       1  UNL1       -0.1658
     30 C         -30.4739   51.9652   -5.1706 C.3     1  UNL1        0.0047
     31 C         -29.2860   51.3343   -5.9110 C.3     1  UNL1        0.0236
     32 C         -29.6832   50.9072   -7.3272 C.3     1  UNL1        0.0047
     33 N         -19.9770   53.2792   -9.7075 N.pl3   1  UNL1       -0.2814
     34 H         -19.9823   54.3147   -9.8393 H       1  UNL1        0.1551
     35 C         -18.7259   52.6509   -9.3929 C.ar    1  UNL1        0.0889
     36 C         -18.2602   52.6712   -8.0677 C.ar    1  UNL1        0.1543
     37 F         -18.9958   53.2630   -7.0930 F       1  UNL1       -0.2028
     38 C         -17.0457   52.0630   -7.7374 C.ar    1  UNL1        0.0310
     39 C         -16.2806   51.4430   -8.7268 C.ar    1  UNL1        0.0033
     40 C         -16.7217   51.4387  -10.0520 C.ar    1  UNL1        0.0128
     41 C         -17.9368   52.0445  -10.3944 C.ar    1  UNL1        0.0733
     42 CL        -18.4001   52.0933  -12.0915 Cl      1  UNL1       -0.0809
@<TRIPOS>BOND
     1    30    31    1
     2    31    32    1
     3    31    19    1
     4    19    20   ar
     5    20    21   ar
     6    21    22    1
     7    21    23   ar
     8    23    26    1
     9    26    27    1
    10    26    28    1
    11    26    29    1
    12    23    24   ar
    13    24    25   ar
    14    25    15    1
    15    15    16   am
    16    16    17    2
    17    16     1    1
    18     1     2   ar
    19     2     3   ar
    20     3     4   ar
    21     4     5   ar
    22     5    33    1
    23    33    35    1
    24    35    36   ar
    25    36    37    1
    26    36    38   ar
    27    38    39   ar
    28    39    40   ar
    29    40    41   ar
    30    41    42    1
    31     5     6   ar
    32     6     7    1
    33     6     8   ar
    34     8     9   ar
    35     9    10   ar
    36    10    11    1
    37    11    12    1
    38    12    13    1
    39    13    14    1
    40    25    19   ar
    41    10     1   ar
    42     8     3   ar
    43    14     9    1
    44    41    35   ar
    45    15    18    1
    46    33    34    1
@<TRIPOS>MOLECULE
*****
 42 46 0 0 0
SMALL
GASTEIGER

@<TRIPOS>ATOM
      1 C         -24.9491   50.3315   -8.1992 C.ar    1  UNL1        0.0922
      2 C         -23.6703   50.7294   -7.7460 C.ar    1  UNL1        0.0284
      3 C         -22.8594   51.4612   -8.6098 C.ar    1  UNL1        0.1033
      4 N         -21.6261   51.9349   -8.3588 N.ar    1  UNL1       -0.2134
      5 C         -21.3007   52.5637   -9.5189 C.ar    1  UNL1        0.2019
      6 N         -22.2712   52.4902  -10.4697 N.ar    1  UNL1       -0.2950
      7 C         -22.2651   53.0660  -11.8143 C.3     1  UNL1        0.1333
      8 C         -23.2594   51.8000   -9.8703 C.ar    1  UNL1        0.1173
      9 C         -24.5224   51.4458  -10.3513 C.ar    1  UNL1        0.1897
     10 C         -25.3833   50.7268   -9.4954 C.ar    1  UNL1        0.1782
     11 O         -26.6785   50.4430   -9.9460 O.3     1  UNL1       -0.4682
     12 C         -27.2214   51.0726  -11.1084 C.3     1  UNL1        0.2526
     13 C         -26.1425   51.2104  -12.1886 C.3     1  UNL1        0.2527
     14 O         -24.9618   51.7920  -11.6327 O.3     1  UNL1       -0.4669
     15 N         -25.7446   48.1164   -7.2544 N.am    1  UNL1       -0.2806
     16 C         -25.8244   49.5510   -7.2979 C.2     1  UNL1        0.2526
     17 O         -26.6400   50.1612   -6.5538 O.2     1  UNL1       -0.2697
     18 H         -25.0122   47.6285   -7.8167 H       1  UNL1        0.1552
     19 C         -27.8857   46.9024   -6.9454 C.ar    1  UNL1       -0.0068
     20 C         -28.6585   46.0146   -6.1728 C.ar    1  UNL1        0.0265
     21 C         -28.2167   45.5753   -4.9240 C.ar    1  UNL1        0.1438
     22 F         -28.9920   44.7134   -4.2176 F       1  UNL1       -0.2042
     23 C         -26.9830   46.0081   -4.4135 C.ar    1  UNL1        0.1000
     24 C         -26.1821   46.8536   -5.1986 C.ar    1  UNL1        0.0205
     25 C         -26.6211   47.3085   -6.4531 C.ar    1  UNL1        0.0466
     26 C         -26.5001   45.4995   -3.0757 C.3     1  UNL1        0.4207
     27 F         -26.3978   44.1188   -3.0623 F       1  UNL1       -0.1658
     28 F         -27.3888   45.8891   -2.0907 F       1  UNL1       -0.1658
     29 F         -25.2525   46.0270   -2.7934 F       1  UNL1       -0.1658
     30 C         -29.9285   47.5905   -8.2818 C.3     1  UNL1        0.0047
     31 C         -28.4071   47.3845   -8.2945 C.3     1  UNL1        0.0236
     32 C         -27.9906   46.4212   -9.4101 C.3     1  UNL1        0.0047
     33 N         -20.0697   53.2821   -9.6902 N.pl3   1  UNL1       -0.2814
     34 H         -20.1066   54.3187   -9.8065 H       1  UNL1        0.1551
     35 C         -18.7954   52.6850   -9.4096 C.ar    1  UNL1        0.0889
     36 C         -18.2894   52.7277   -8.0998 C.ar    1  UNL1        0.1543
     37 F         -19.0076   53.3114   -7.1076 F       1  UNL1       -0.2028
     38 C         -17.0517   52.1499   -7.8027 C.ar    1  UNL1        0.0310
     39 C         -16.3038   51.5385   -8.8104 C.ar    1  UNL1        0.0033
     40 C         -16.7856   51.5123  -10.1211 C.ar    1  UNL1        0.0128
     41 C         -18.0242   52.0875  -10.4303 C.ar    1  UNL1        0.0733
     42 CL        -18.5410   52.1107  -12.1124 Cl      1  UNL1       -0.0809
@<TRIPOS>BOND
     1    30    31    1
     2    31    32    1
     3    31    19    1
     4    19    20   ar
     5    20    21   ar
     6    21    22    1
     7    21    23   ar
     8    23    26    1
     9    26    27    1
    10    26    28    1
    11    26    29    1
    12    23    24   ar
    13    24    25   ar
    14    25    15    1
    15    15    16   am
    16    16    17    2
    17    16     1    1
    18     1     2   ar
    19     2     3   ar
    20     3     4   ar
    21     4     5   ar
    22     5    33    1
    23    33    35    1
    24    35    36   ar
    25    36    37    1
    26    36    38   ar
    27    38    39   ar
    28    39    40   ar
    29    40    41   ar
    30    41    42    1
    31     5     6   ar
    32     6     7    1
    33     6     8   ar
    34     8     9   ar
    35     9    10   ar
    36    10    11    1
    37    11    12    1
    38    12    13    1
    39    13    14    1
    40    25    19   ar
    41    10     1   ar
    42     8     3   ar
    43    14     9    1
    44    41    35   ar
    45    15    18    1
    46    33    34    1
@<TRIPOS>MOLECULE
*****
 42 46 0 0 0
SMALL
GASTEIGER

@<TRIPOS>ATOM
      1 C         -25.2267   50.4893   -8.2697 C.ar    1  UNL1        0.0922
      2 C         -23.9469   50.8600   -7.7968 C.ar    1  UNL1        0.0284
      3 C         -23.0801   51.5103   -8.6715 C.ar    1  UNL1        0.1033
      4 N         -21.8364   51.9475   -8.4061 N.ar    1  UNL1       -0.2134
      5 C         -21.4498   52.4981   -9.5870 C.ar    1  UNL1        0.2019
      6 N         -22.3930   52.4112  -10.5637 N.ar    1  UNL1       -0.2950
      7 C         -22.3218   52.9115  -11.9364 C.3     1  UNL1        0.1333
      8 C         -23.4270   51.7950   -9.9609 C.ar    1  UNL1        0.1173
      9 C         -24.6883   51.4656  -10.4634 C.ar    1  UNL1        0.1897
     10 C         -25.6042   50.8297   -9.5988 C.ar    1  UNL1        0.1782
     11 O         -26.8956   50.5735  -10.0758 O.3     1  UNL1       -0.4682
     12 C         -27.3761   51.1595  -11.2875 C.3     1  UNL1        0.2526
     13 C         -26.2598   51.1945  -12.3375 C.3     1  UNL1        0.2527
     14 O         -25.0735   51.7582  -11.7752 O.3     1  UNL1       -0.4669
     15 N         -26.6835   50.4588   -6.1939 N.am    1  UNL1       -0.2806
     16 C         -26.1609   49.7951   -7.3570 C.2     1  UNL1        0.2526
     17 O         -26.5064   48.6100   -7.6168 O.2     1  UNL1       -0.2697
     18 H         -26.4520   51.4643   -6.0326 H       1  UNL1        0.1552
     19 C         -28.8968   50.1705   -5.1112 C.ar    1  UNL1       -0.0068
     20 C         -29.7185   49.4238   -4.2455 C.ar    1  UNL1        0.0265
     21 C         -29.1985   48.3741   -3.4868 C.ar    1  UNL1        0.1438
     22 F         -30.0302   47.6771   -2.6711 F       1  UNL1       -0.2042
     23 C         -27.8391   48.0366   -3.5772 C.ar    1  UNL1        0.1000
     24 C         -27.0224   48.7427   -4.4755 C.ar    1  UNL1        0.0205
     25 C         -27.5336   49.8065   -5.2374 C.ar    1  UNL1        0.0466
     26 C         -27.2951   46.8771   -2.7765 C.3     1  UNL1        0.4207
     27 F         -25.9312   46.9959   -2.5702 F       1  UNL1       -0.1658
     28 F         -27.5412   45.6978   -3.4550 F       1  UNL1       -0.1658
     29 F         -27.9153   46.8256   -1.5407 F       1  UNL1       -0.1658
     30 C         -30.6159   52.0349   -5.1417 C.3     1  UNL1        0.0047
     31 C         -29.4887   51.3279   -5.9077 C.3     1  UNL1        0.0236
     32 C         -29.9713   50.8483   -7.2800 C.3     1  UNL1        0.0047
     33 N         -20.1853   53.1562   -9.7560 N.pl3   1  UNL1       -0.2814
     34 H         -19.6183   52.9412  -10.6057 H       1  UNL1        0.1551
     35 C         -19.8136   54.3014   -8.9755 C.ar    1  UNL1        0.0889
     36 C         -20.3818   55.5510   -9.2741 C.ar    1  UNL1        0.1543
     37 F         -21.2865   55.6688  -10.2785 F       1  UNL1       -0.2028
     38 C         -20.0369   56.6798   -8.5252 C.ar    1  UNL1        0.0310
     39 C         -19.1136   56.5743   -7.4834 C.ar    1  UNL1        0.0033
     40 C         -18.5235   55.3419   -7.1940 C.ar    1  UNL1        0.0128
     41 C         -18.8617   54.2044   -7.9372 C.ar    1  UNL1        0.0733
     42 CL        -18.0198   52.6977   -7.5935 Cl      1  UNL1       -0.0809
@<TRIPOS>BOND
     1    30    31    1
     2    31    32    1
     3    31    19    1
     4    19    20   ar
     5    20    21   ar
     6    21    22    1
     7    21    23   ar
     8    23    26    1
     9    26    27    1
    10    26    28    1
    11    26    29    1
    12    23    24   ar
    13    24    25   ar
    14    25    15    1
    15    15    16   am
    16    16    17    2
    17    16     1    1
    18     1     2   ar
    19     2     3   ar
    20     3     4   ar
    21     4     5   ar
    22     5    33    1
    23    33    35    1
    24    35    36   ar
    25    36    37    1
    26    36    38   ar
    27    38    39   ar
    28    39    40   ar
    29    40    41   ar
    30    41    42    1
    31     5     6   ar
    32     6     7    1
    33     6     8   ar
    34     8     9   ar
    35     9    10   ar
    36    10    11    1
    37    11    12    1
    38    12    13    1
    39    13    14    1
    40    25    19   ar
    41    10     1   ar
    42     8     3   ar
    43    14     9    1
    44    41    35   ar
    45    15    18    1
    46    33    34    1
@<TRIPOS>MOLECULE
*****
 42 46 0 0 0
SMALL
GASTEIGER

@<TRIPOS>ATOM
      1 C         -24.9867   50.3742   -8.2084 C.ar    1  UNL1        0.0922
      2 C         -23.7071   50.8342   -7.8212 C.ar    1  UNL1        0.0284
      3 C         -22.9699   51.5867   -8.7320 C.ar    1  UNL1        0.1033
      4 N         -21.7484   52.1173   -8.5457 N.ar    1  UNL1       -0.2134
      5 C         -21.5050   52.7413   -9.7283 C.ar    1  UNL1        0.2019
      6 N         -22.5143   52.6108  -10.6314 N.ar    1  UNL1       -0.2950
      7 C         -22.5956   53.1649  -11.9827 C.3     1  UNL1        0.1333
      8 C         -23.4424   51.8879   -9.9770 C.ar    1  UNL1        0.1173
      9 C         -24.7094   51.4718  -10.3934 C.ar    1  UNL1        0.1897
     10 C         -25.4973   50.7298   -9.4882 C.ar    1  UNL1        0.1782
     11 O         -26.7982   50.3831   -9.8737 O.3     1  UNL1       -0.4682
     12 C         -27.4215   50.9702  -11.0179 C.3     1  UNL1        0.2526
     13 C         -26.4007   51.1375  -12.1492 C.3     1  UNL1        0.2527
     14 O         -25.2223   51.7784  -11.6574 O.3     1  UNL1       -0.4669
     15 N         -25.7744   48.1347   -7.3163 N.am    1  UNL1       -0.2806
     16 C         -25.7842   49.5709   -7.2565 C.2     1  UNL1        0.2526
     17 O         -26.4695   50.1619   -6.3776 O.2     1  UNL1       -0.2697
     18 H         -25.1430   47.6562   -7.9968 H       1  UNL1        0.1552
     19 C         -27.8728   46.8856   -6.8796 C.ar    1  UNL1       -0.0068
     20 C         -28.5822   45.9839   -6.0635 C.ar    1  UNL1        0.0265
     21 C         -28.0572   45.5493   -4.8456 C.ar    1  UNL1        0.1438
     22 F         -28.7737   44.6736   -4.0954 F       1  UNL1       -0.2042
     23 C         -26.8014   46.0009   -4.4108 C.ar    1  UNL1        0.1000
     24 C         -26.0641   46.8608   -5.2413 C.ar    1  UNL1        0.0205
     25 C         -26.5869   47.3111   -6.4649 C.ar    1  UNL1        0.0466
     26 C         -26.2289   45.4974   -3.1068 C.3     1  UNL1        0.4207
     27 F         -26.0855   44.1204   -3.1114 F       1  UNL1       -0.1658
     28 F         -27.0716   45.8534   -2.0700 F       1  UNL1       -0.1658
     29 F         -24.9834   46.0600   -2.8906 F       1  UNL1       -0.1658
     30 C         -29.4778   48.5126   -7.9792 C.3     1  UNL1        0.0047
     31 C         -28.4840   47.3619   -8.1925 C.3     1  UNL1        0.0236
     32 C         -29.1421   46.1960   -8.9365 C.3     1  UNL1        0.0047
     33 N         -20.3160   53.5095   -9.9670 N.pl3   1  UNL1       -0.2814
     34 H         -19.8894   53.4895  -10.9194 H       1  UNL1        0.1551
     35 C         -19.8699   54.5235   -9.0549 C.ar    1  UNL1        0.0889
     36 C         -20.3492   55.8362   -9.1980 C.ar    1  UNL1        0.1543
     37 F         -21.2390   56.1367  -10.1774 F       1  UNL1       -0.2028
     38 C         -19.9308   56.8396   -8.3193 C.ar    1  UNL1        0.0310
     39 C         -19.0219   56.5453   -7.3014 C.ar    1  UNL1        0.0033
     40 C         -18.5195   55.2492   -7.1654 C.ar    1  UNL1        0.0128
     41 C         -18.9318   54.2361   -8.0396 C.ar    1  UNL1        0.0733
     42 CL        -18.1974   52.6444   -7.8838 Cl      1  UNL1       -0.0809
@<TRIPOS>BOND
     1    30    31    1
     2    31    32    1
     3    31    19    1
     4    19    20   ar
     5    20    21   ar
     6    21    22    1
     7    21    23   ar
     8    23    26    1
     9    26    27    1
    10    26    28    1
    11    26    29    1
    12    23    24   ar
    13    24    25   ar
    14    25    15    1
    15    15    16   am
    16    16    17    2
    17    16     1    1
    18     1     2   ar
    19     2     3   ar
    20     3     4   ar
    21     4     5   ar
    22     5    33    1
    23    33    35    1
    24    35    36   ar
    25    36    37    1
    26    36    38   ar
    27    38    39   ar
    28    39    40   ar
    29    40    41   ar
    30    41    42    1
    31     5     6   ar
    32     6     7    1
    33     6     8   ar
    34     8     9   ar
    35     9    10   ar
    36    10    11    1
    37    11    12    1
    38    12    13    1
    39    13    14    1
    40    25    19   ar
    41    10     1   ar
    42     8     3   ar
    43    14     9    1
    44    41    35   ar
    45    15    18    1
    46    33    34    1
@<TRIPOS>MOLECULE
*****
 42 46 0 0 0
SMALL
GASTEIGER

@<TRIPOS>ATOM
      1 C         -25.2448   50.3923   -8.5913 C.ar    1  UNL1        0.0922
      2 C         -24.0083   50.7834   -8.0283 C.ar    1  UNL1        0.0284
      3 C         -23.1249   51.5182   -8.8151 C.ar    1  UNL1        0.1033
      4 N         -21.9163   51.9866   -8.4570 N.ar    1  UNL1       -0.2134
      5 C         -21.4918   52.6217   -9.5812 C.ar    1  UNL1        0.2019
      6 N         -22.3780   52.5571  -10.6115 N.ar    1  UNL1       -0.2950
      7 C         -22.2560   53.1412  -11.9470 C.3     1  UNL1        0.1333
      8 C         -23.4153   51.8661  -10.1029 C.ar    1  UNL1        0.1173
      9 C         -24.6337   51.5188  -10.6920 C.ar    1  UNL1        0.1897
     10 C         -25.5661   50.7970   -9.9172 C.ar    1  UNL1        0.1782
     11 O         -26.8189   50.5200  -10.4782 O.3     1  UNL1       -0.4682
     12 C         -27.2593   51.1585  -11.6785 C.3     1  UNL1        0.2526
     13 C         -26.0920   51.2998  -12.6619 C.3     1  UNL1        0.2527
     14 O         -24.9615   51.8744  -12.0038 O.3     1  UNL1       -0.4669
     15 N         -27.6129   49.7133   -7.9888 N.am    1  UNL1       -0.2806
     16 C         -26.1956   49.6089   -7.7729 C.2     1  UNL1        0.2526
     17 O         -25.7474   48.8337   -6.8843 O.2     1  UNL1       -0.2697
     18 H         -27.9675   50.2978   -8.7783 H       1  UNL1        0.1552
     19 C         -29.3651   49.7423   -6.2330 C.ar    1  UNL1       -0.0068
     20 C         -30.3810   49.0536   -5.5431 C.ar    1  UNL1        0.0265
     21 C         -30.5869   47.6876   -5.7413 C.ar    1  UNL1        0.1438
     22 F         -31.5834   47.0668   -5.0596 F       1  UNL1       -0.2042
     23 C         -29.7841   46.9707   -6.6421 C.ar    1  UNL1        0.1000
     24 C         -28.8015   47.6590   -7.3724 C.ar    1  UNL1        0.0205
     25 C         -28.5802   49.0321   -7.1743 C.ar    1  UNL1        0.0466
     26 C         -30.0383   45.4997   -6.8732 C.3     1  UNL1        0.4207
     27 F         -29.2618   45.0048   -7.9070 F       1  UNL1       -0.1658
     28 F         -31.3712   45.3103   -7.1880 F       1  UNL1       -0.1658
     29 F         -29.7383   44.7841   -5.7277 F       1  UNL1       -0.1658
     30 C         -27.8482   51.4949   -5.2034 C.3     1  UNL1        0.0047
     31 C         -29.1481   51.2294   -5.9761 C.3     1  UNL1        0.0236
     32 C         -30.3539   51.8339   -5.2504 C.3     1  UNL1        0.0047
     33 N         -20.2488   53.3373   -9.6423 N.pl3   1  UNL1       -0.2814
     34 H         -20.2729   54.3796   -9.6947 H       1  UNL1        0.1551
     35 C         -18.9950   52.7115   -9.3340 C.ar    1  UNL1        0.0889
     36 C         -18.5117   52.7526   -8.0156 C.ar    1  UNL1        0.1543
     37 F         -19.2329   53.3620   -7.0412 F       1  UNL1       -0.2028
     38 C         -17.2941   52.1471   -7.6914 C.ar    1  UNL1        0.0310
     39 C         -16.5436   51.5091   -8.6806 C.ar    1  UNL1        0.0033
     40 C         -17.0023   51.4839   -9.9996 C.ar    1  UNL1        0.0128
     41 C         -18.2205   52.0868  -10.3358 C.ar    1  UNL1        0.0733
     42 CL        -18.7063   52.1087  -12.0271 Cl      1  UNL1       -0.0809
@<TRIPOS>BOND
     1    30    31    1
     2    31    32    1
     3    31    19    1
     4    19    20   ar
     5    20    21   ar
     6    21    22    1
     7    21    23   ar
     8    23    26    1
     9    26    27    1
    10    26    28    1
    11    26    29    1
    12    23    24   ar
    13    24    25   ar
    14    25    15    1
    15    15    16   am
    16    16    17    2
    17    16     1    1
    18     1     2   ar
    19     2     3   ar
    20     3     4   ar
    21     4     5   ar
    22     5    33    1
    23    33    35    1
    24    35    36   ar
    25    36    37    1
    26    36    38   ar
    27    38    39   ar
    28    39    40   ar
    29    40    41   ar
    30    41    42    1
    31     5     6   ar
    32     6     7    1
    33     6     8   ar
    34     8     9   ar
    35     9    10   ar
    36    10    11    1
    37    11    12    1
    38    12    13    1
    39    13    14    1
    40    25    19   ar
    41    10     1   ar
    42     8     3   ar
    43    14     9    1
    44    41    35   ar
    45    15    18    1
    46    33    34    1
@<TRIPOS>MOLECULE
*****
 42 46 0 0 0
SMALL
GASTEIGER

@<TRIPOS>ATOM
      1 C         -25.2755   50.2452   -8.5921 C.ar    1  UNL1        0.0922
      2 C         -24.0450   50.6389   -8.0178 C.ar    1  UNL1        0.0284
      3 C         -23.1819   51.4262   -8.7757 C.ar    1  UNL1        0.1033
      4 N         -21.9820   51.9053   -8.4026 N.ar    1  UNL1       -0.2134
      5 C         -21.5772   52.5975   -9.4999 C.ar    1  UNL1        0.2019
      6 N         -22.4669   52.5578  -10.5285 N.ar    1  UNL1       -0.2950
      7 C         -22.3644   53.2015  -11.8380 C.3     1  UNL1        0.1333
      8 C         -23.4863   51.8228  -10.0460 C.ar    1  UNL1        0.1173
      9 C         -24.6997   51.4744  -10.6447 C.ar    1  UNL1        0.1897
     10 C         -25.6122   50.6995   -9.8980 C.ar    1  UNL1        0.1782
     11 O         -26.8614   50.4193  -10.4654 O.3     1  UNL1       -0.4682
     12 C         -27.3217   51.0991  -11.6352 C.3     1  UNL1        0.2526
     13 C         -26.1627   51.3084  -12.6163 C.3     1  UNL1        0.2527
     14 O         -25.0417   51.8789  -11.9386 O.3     1  UNL1       -0.4669
     15 N         -27.6279   49.5454   -7.9528 N.am    1  UNL1       -0.2806
     16 C         -26.2048   49.4064   -7.8045 C.2     1  UNL1        0.2526
     17 O         -25.7335   48.5534   -7.0035 O.2     1  UNL1       -0.2697
     18 H         -28.0046   50.1989   -8.6751 H       1  UNL1        0.1552
     19 C         -29.2734   47.7056   -7.7052 C.ar    1  UNL1       -0.0068
     20 C         -30.0985   46.9428   -6.8569 C.ar    1  UNL1        0.0265
     21 C         -30.2656   47.2875   -5.5149 C.ar    1  UNL1        0.1438
     22 F         -31.0652   46.5182   -4.7327 F       1  UNL1       -0.2042
     23 C         -29.6056   48.4047   -4.9801 C.ar    1  UNL1        0.1000
     24 C         -28.7409   49.1421   -5.8055 C.ar    1  UNL1        0.0205
     25 C         -28.5723   48.8090   -7.1597 C.ar    1  UNL1        0.0466
     26 C         -29.7677   48.7482   -3.5181 C.3     1  UNL1        0.4207
     27 F         -28.5449   48.8195   -2.8729 F       1  UNL1       -0.1658
     28 F         -30.5388   47.7788   -2.9037 F       1  UNL1       -0.1658
     29 F         -30.3957   49.9743   -3.3890 F       1  UNL1       -0.1658
     30 C         -30.4565   46.8202   -9.7665 C.3     1  UNL1        0.0047
     31 C         -29.1311   47.3187   -9.1729 C.3     1  UNL1        0.0236
     32 C         -28.0211   46.2787   -9.3524 C.3     1  UNL1        0.0047
     33 N         -20.3505   53.3424   -9.5351 N.pl3   1  UNL1       -0.2814
     34 H         -20.3977   54.3852   -9.5419 H       1  UNL1        0.1551
     35 C         -19.0817   52.7316   -9.2598 C.ar    1  UNL1        0.0889
     36 C         -18.5608   52.7856   -7.9562 C.ar    1  UNL1        0.1543
     37 F         -19.2600   53.3932   -6.9647 F       1  UNL1       -0.2028
     38 C         -17.3281   52.1948   -7.6641 C.ar    1  UNL1        0.0310
     39 C         -16.5997   51.5588   -8.6711 C.ar    1  UNL1        0.0033
     40 C         -17.0962   51.5210   -9.9760 C.ar    1  UNL1        0.0128
     41 C         -18.3300   52.1091  -10.2801 C.ar    1  UNL1        0.0733
     42 CL        -18.8648   52.1158  -11.9567 Cl      1  UNL1       -0.0809
@<TRIPOS>BOND
     1    30    31    1
     2    31    32    1
     3    31    19    1
     4    19    20   ar
     5    20    21   ar
     6    21    22    1
     7    21    23   ar
     8    23    26    1
     9    26    27    1
    10    26    28    1
    11    26    29    1
    12    23    24   ar
    13    24    25   ar
    14    25    15    1
    15    15    16   am
    16    16    17    2
    17    16     1    1
    18     1     2   ar
    19     2     3   ar
    20     3     4   ar
    21     4     5   ar
    22     5    33    1
    23    33    35    1
    24    35    36   ar
    25    36    37    1
    26    36    38   ar
    27    38    39   ar
    28    39    40   ar
    29    40    41   ar
    30    41    42    1
    31     5     6   ar
    32     6     7    1
    33     6     8   ar
    34     8     9   ar
    35     9    10   ar
    36    10    11    1
    37    11    12    1
    38    12    13    1
    39    13    14    1
    40    25    19   ar
    41    10     1   ar
    42     8     3   ar
    43    14     9    1
    44    41    35   ar
    45    15    18    1
    46    33    34    1
@<TRIPOS>MOLECULE
*****
 42 46 0 0 0
SMALL
GASTEIGER

@<TRIPOS>ATOM
      1 C         -25.5222   50.5031   -8.4770 C.ar    1  UNL1        0.0922
      2 C         -24.2490   50.8407   -7.9630 C.ar    1  UNL1        0.0284
      3 C         -23.3334   51.4561   -8.8128 C.ar    1  UNL1        0.1033
      4 N         -22.0871   51.8590   -8.5081 N.ar    1  UNL1       -0.2134
      5 C         -21.6435   52.3858   -9.6797 C.ar    1  UNL1        0.2019
      6 N         -22.5544   52.3169  -10.6880 N.ar    1  UNL1       -0.2950
      7 C         -22.4207   52.8008  -12.0619 C.3     1  UNL1        0.1333
      8 C         -23.6266   51.7378  -10.1161 C.ar    1  UNL1        0.1173
      9 C         -24.8791   51.4407  -10.6594 C.ar    1  UNL1        0.1897
     10 C         -25.8430   50.8410   -9.8216 C.ar    1  UNL1        0.1782
     11 O         -27.1242   50.6182  -10.3410 O.3     1  UNL1       -0.4682
     12 C         -27.5446   51.2057  -11.5741 C.3     1  UNL1        0.2526
     13 C         -26.3920   51.1970  -12.5847 C.3     1  UNL1        0.2527
     14 O         -25.2096   51.7311  -11.9865 O.3     1  UNL1       -0.4669
     15 N         -26.1503   48.6822   -6.8272 N.am    1  UNL1       -0.2806
     16 C         -26.5078   49.8462   -7.5912 C.2     1  UNL1        0.2526
     17 O         -27.6706   50.3272   -7.5030 O.2     1  UNL1       -0.2697
     18 H         -25.1637   48.3406   -6.8486 H       1  UNL1        0.1552
     19 C         -27.1947   48.2288   -4.6232 C.ar    1  UNL1       -0.0068
     20 C         -28.2090   47.5863   -3.8879 C.ar    1  UNL1        0.0265
     21 C         -29.0677   46.6692   -4.4957 C.ar    1  UNL1        0.1438
     22 F         -30.0359   46.0796   -3.7487 F       1  UNL1       -0.2042
     23 C         -28.9400   46.3724   -5.8615 C.ar    1  UNL1        0.1000
     24 C         -27.9641   47.0459   -6.6144 C.ar    1  UNL1        0.0205
     25 C         -27.0890   47.9642   -6.0108 C.ar    1  UNL1        0.0466
     26 C         -29.8967   45.4036   -6.5155 C.3     1  UNL1        0.4207
     27 F         -31.2140   45.7119   -6.2217 F       1  UNL1       -0.1658
     28 F         -29.6287   44.1236   -6.0667 F       1  UNL1       -0.1658
     29 F         -29.7408   45.4427   -7.8898 F       1  UNL1       -0.1658
     30 C         -26.0733   48.8660   -2.4395 C.3     1  UNL1        0.0047
     31 C         -26.2558   49.2065   -3.9254 C.3     1  UNL1        0.0236
     32 C         -26.7450   50.6468   -4.1048 C.3     1  UNL1        0.0047
     33 N         -20.3547   53.0045   -9.8105 N.pl3   1  UNL1       -0.2814
     34 H         -19.7666   52.7666  -10.6394 H       1  UNL1        0.1551
     35 C         -19.9748   54.1437   -9.0251 C.ar    1  UNL1        0.0889
     36 C         -20.4054   55.4226   -9.4154 C.ar    1  UNL1        0.1543
     37 F         -21.1878   55.5756  -10.5134 F       1  UNL1       -0.2028
     38 C         -20.0500   56.5464   -8.6638 C.ar    1  UNL1        0.0310
     39 C         -19.2521   56.4054   -7.5270 C.ar    1  UNL1        0.0033
     40 C         -18.7974   55.1416   -7.1440 C.ar    1  UNL1        0.0128
     41 C         -19.1474   54.0088   -7.8889 C.ar    1  UNL1        0.0733
     42 CL        -18.4711   52.4539   -7.4178 Cl      1  UNL1       -0.0809
@<TRIPOS>BOND
     1    30    31    1
     2    31    32    1
     3    31    19    1
     4    19    20   ar
     5    20    21   ar
     6    21    22    1
     7    21    23   ar
     8    23    26    1
     9    26    27    1
    10    26    28    1
    11    26    29    1
    12    23    24   ar
    13    24    25   ar
    14    25    15    1
    15    15    16   am
    16    16    17    2
    17    16     1    1
    18     1     2   ar
    19     2     3   ar
    20     3     4   ar
    21     4     5   ar
    22     5    33    1
    23    33    35    1
    24    35    36   ar
    25    36    37    1
    26    36    38   ar
    27    38    39   ar
    28    39    40   ar
    29    40    41   ar
    30    41    42    1
    31     5     6   ar
    32     6     7    1
    33     6     8   ar
    34     8     9   ar
    35     9    10   ar
    36    10    11    1
    37    11    12    1
    38    12    13    1
    39    13    14    1
    40    25    19   ar
    41    10     1   ar
    42     8     3   ar
    43    14     9    1
    44    41    35   ar
    45    15    18    1
    46    33    34    1
@<TRIPOS>MOLECULE
*****
 42 46 0 0 0
SMALL
GASTEIGER

@<TRIPOS>ATOM
      1 C         -25.7456   49.4189   -7.7468 C.ar    1  UNL1        0.0922
      2 C         -24.3827   49.7362   -7.5450 C.ar    1  UNL1        0.0284
      3 C         -23.8265   50.7731   -8.2898 C.ar    1  UNL1        0.1033
      4 N         -22.5616   51.2260   -8.2321 N.ar    1  UNL1       -0.2134
      5 C         -22.5563   52.2292   -9.1490 C.ar    1  UNL1        0.2019
      6 N         -23.7536   52.4060   -9.7706 N.ar    1  UNL1       -0.2950
      7 C         -24.1073   53.3972  -10.7865 C.3     1  UNL1        0.1333
      8 C         -24.5524   51.4834   -9.2022 C.ar    1  UNL1        0.1173
      9 C         -25.9068   51.2176   -9.4184 C.ar    1  UNL1        0.1897
     10 C         -26.5129   50.1916   -8.6629 C.ar    1  UNL1        0.1782
     11 O         -27.8882   49.9793   -8.8190 O.3     1  UNL1       -0.4682
     12 C         -28.7176   50.9193   -9.5052 C.3     1  UNL1        0.2526
     13 C         -27.9773   51.4906  -10.7199 C.3     1  UNL1        0.2527
     14 O         -26.6761   51.9389  -10.3365 O.3     1  UNL1       -0.4669
     15 N         -27.7641   48.3078   -6.6871 N.am    1  UNL1       -0.2806
     16 C         -26.3543   48.3190   -6.9676 C.2     1  UNL1        0.2526
     17 O         -25.6211   47.3777   -6.5579 O.2     1  UNL1       -0.2697
     18 H         -28.3724   49.0507   -7.0979 H       1  UNL1        0.1552
     19 C         -29.3524   46.4205   -6.4239 C.ar    1  UNL1       -0.0068
     20 C         -29.8516   45.3784   -5.6194 C.ar    1  UNL1        0.0265
     21 C         -29.4491   45.2393   -4.2903 C.ar    1  UNL1        0.1438
     22 F         -29.9512   44.2147   -3.5547 F       1  UNL1       -0.2042
     23 C         -28.5286   46.1375   -3.7282 C.ar    1  UNL1        0.1000
     24 C         -27.9867   47.1496   -4.5373 C.ar    1  UNL1        0.0205
     25 C         -28.3915   47.3038   -5.8736 C.ar    1  UNL1        0.0466
     26 C         -28.0750   45.9566   -2.2988 C.3     1  UNL1        0.4207
     27 F         -27.1793   44.9080   -2.1774 F       1  UNL1       -0.1658
     28 F         -29.1736   45.6980   -1.5001 F       1  UNL1       -0.1658
     29 F         -27.4529   47.1091   -1.8526 F       1  UNL1       -0.1658
     30 C         -31.2615   46.0361   -8.0488 C.3     1  UNL1        0.0047
     31 C         -29.8306   46.5616   -7.8646 C.3     1  UNL1        0.0236
     32 C         -28.8608   45.8681   -8.8262 C.3     1  UNL1        0.0047
     33 N         -21.4050   53.0530   -9.3872 N.pl3   1  UNL1       -0.2814
     34 H         -21.5315   54.0878   -9.4387 H       1  UNL1        0.1551
     35 C         -20.0683   52.5477   -9.2572 C.ar    1  UNL1        0.0889
     36 C         -19.5000   51.8249  -10.3193 C.ar    1  UNL1        0.1543
     37 F         -20.2022   51.6232  -11.4628 F       1  UNL1       -0.2028
     38 C         -18.1983   51.3259  -10.2162 C.ar    1  UNL1        0.0310
     39 C         -17.4595   51.5314   -9.0497 C.ar    1  UNL1        0.0033
     40 C         -18.0236   52.2269   -7.9779 C.ar    1  UNL1        0.0128
     41 C         -19.3265   52.7316   -8.0701 C.ar    1  UNL1        0.0733
     42 CL        -20.0229   53.5173   -6.6578 Cl      1  UNL1       -0.0809
@<TRIPOS>BOND
     1    30    31    1
     2    31    32    1
     3    31    19    1
     4    19    20   ar
     5    20    21   ar
     6    21    22    1
     7    21    23   ar
     8    23    26    1
     9    26    27    1
    10    26    28    1
    11    26    29    1
    12    23    24   ar
    13    24    25   ar
    14    25    15    1
    15    15    16   am
    16    16    17    2
    17    16     1    1
    18     1     2   ar
    19     2     3   ar
    20     3     4   ar
    21     4     5   ar
    22     5    33    1
    23    33    35    1
    24    35    36   ar
    25    36    37    1
    26    36    38   ar
    27    38    39   ar
    28    39    40   ar
    29    40    41   ar
    30    41    42    1
    31     5     6   ar
    32     6     7    1
    33     6     8   ar
    34     8     9   ar
    35     9    10   ar
    36    10    11    1
    37    11    12    1
    38    12    13    1
    39    13    14    1
    40    25    19   ar
    41    10     1   ar
    42     8     3   ar
    43    14     9    1
    44    41    35   ar
    45    15    18    1
    46    33    34    1
@<TRIPOS>MOLECULE
*****
 42 46 0 0 0
SMALL
GASTEIGER

@<TRIPOS>ATOM
      1 C         -25.2952   50.4652   -8.8791 C.ar    1  UNL1        0.0922
      2 C         -24.0482   50.8285   -8.3207 C.ar    1  UNL1        0.0284
      3 C         -23.1556   51.5523   -9.1073 C.ar    1  UNL1        0.1033
      4 N         -21.9362   51.9948   -8.7529 N.ar    1  UNL1       -0.2134
      5 C         -21.5062   52.6303   -9.8747 C.ar    1  UNL1        0.2019
      6 N         -22.3995   52.5904  -10.9002 N.ar    1  UNL1       -0.2950
      7 C         -22.2742   53.1823  -12.2320 C.3     1  UNL1        0.1333
      8 C         -23.4468   51.9154  -10.3906 C.ar    1  UNL1        0.1173
      9 C         -24.6750   51.5959  -10.9750 C.ar    1  UNL1        0.1897
     10 C         -25.6165   50.8861  -10.2000 C.ar    1  UNL1        0.1782
     11 O         -26.8776   50.6372  -10.7556 O.3     1  UNL1       -0.4682
     12 C         -27.3128   51.2931  -11.9484 C.3     1  UNL1        0.2526
     13 C         -26.1487   51.4197  -12.9378 C.3     1  UNL1        0.2527
     14 O         -25.0036   51.9676  -12.2821 O.3     1  UNL1       -0.4669
     15 N         -27.6713   49.8056   -8.2865 N.am    1  UNL1       -0.2806
     16 C         -26.2560   49.6938   -8.0610 C.2     1  UNL1        0.2526
     17 O         -25.8182   48.9224   -7.1640 O.2     1  UNL1       -0.2697
     18 H         -28.0172   50.3865   -9.0824 H       1  UNL1        0.1552
     19 C         -29.2172   47.9071   -7.8866 C.ar    1  UNL1       -0.0068
     20 C         -30.0797   47.2304   -7.0032 C.ar    1  UNL1        0.0265
     21 C         -30.4104   47.7754   -5.7616 C.ar    1  UNL1        0.1438
     22 F         -31.2401   47.0835   -4.9394 F       1  UNL1       -0.2042
     23 C         -29.8815   49.0134   -5.3647 C.ar    1  UNL1        0.1000
     24 C         -28.9806   49.6719   -6.2176 C.ar    1  UNL1        0.0205
     25 C         -28.6479   49.1365   -7.4730 C.ar    1  UNL1        0.0466
     26 C         -30.2200   49.5771   -4.0048 C.3     1  UNL1        0.4207
     27 F         -31.5756   49.4856   -3.7385 F       1  UNL1       -0.1658
     28 F         -29.8459   50.9072   -3.9554 F       1  UNL1       -0.1658
     29 F         -29.5395   48.8793   -3.0228 F       1  UNL1       -0.1658
     30 C         -30.1191   46.6170   -9.8753 C.3     1  UNL1        0.0047
     31 C         -28.8951   47.2982   -9.2467 C.3     1  UNL1        0.0236
     32 C         -27.7179   46.3245   -9.1376 C.3     1  UNL1        0.0047
     33 N         -20.2502   53.3226   -9.9380 N.pl3   1  UNL1       -0.2814
     34 H         -19.6553   53.2044  -10.7875 H       1  UNL1        0.1551
     35 C         -19.9230   54.3885   -9.0347 C.ar    1  UNL1        0.0889
     36 C         -20.3669   55.6908   -9.3182 C.ar    1  UNL1        0.1543
     37 F         -21.1129   55.9336  -10.4254 F       1  UNL1       -0.2028
     38 C         -20.0627   56.7441   -8.4510 C.ar    1  UNL1        0.0310
     39 C         -19.3029   56.5099   -7.3036 C.ar    1  UNL1        0.0033
     40 C         -18.8351   55.2238   -7.0249 C.ar    1  UNL1        0.0128
     41 C         -19.1339   54.1610   -7.8862 C.ar    1  UNL1        0.0733
     42 CL        -18.4415   52.5807   -7.5392 Cl      1  UNL1       -0.0809
@<TRIPOS>BOND
     1    30    31    1
     2    31    32    1
     3    31    19    1
     4    19    20   ar
     5    20    21   ar
     6    21    22    1
     7    21    23   ar
     8    23    26    1
     9    26    27    1
    10    26    28    1
    11    26    29    1
    12    23    24   ar
    13    24    25   ar
    14    25    15    1
    15    15    16   am
    16    16    17    2
    17    16     1    1
    18     1     2   ar
    19     2     3   ar
    20     3     4   ar
    21     4     5   ar
    22     5    33    1
    23    33    35    1
    24    35    36   ar
    25    36    37    1
    26    36    38   ar
    27    38    39   ar
    28    39    40   ar
    29    40    41   ar
    30    41    42    1
    31     5     6   ar
    32     6     7    1
    33     6     8   ar
    34     8     9   ar
    35     9    10   ar
    36    10    11    1
    37    11    12    1
    38    12    13    1
    39    13    14    1
    40    25    19   ar
    41    10     1   ar
    42     8     3   ar
    43    14     9    1
    44    41    35   ar
    45    15    18    1
    46    33    34    1
