@<TRIPOS>MOLECULE
*****
 50 55 0 0 0
SMALL
GASTEIGER

@<TRIPOS>ATOM
      1 C          60.4900   85.4736   10.2146 C.2     1  UNL1        0.2483
      2 O          61.2323   85.7912   11.1839 O.2     1  UNL1       -0.2701
      3 N          59.7892   84.2205   10.2374 N.am    1  UNL1       -0.2945
      4 H          58.9803   84.0842    9.5894 H       1  UNL1        0.1501
      5 C          60.0754   88.1315    6.8528 C.ar    1  UNL1        0.0502
      6 C          59.0977   87.1611    7.1197 C.ar    1  UNL1        0.0148
      7 C          59.2337   86.3009    8.2119 C.ar    1  UNL1        0.0080
      8 C          60.3480   86.3975    9.0643 C.ar    1  UNL1        0.0808
      9 C          61.3314   87.3691    8.7919 C.ar    1  UNL1        0.1457
     10 F          62.4152   87.5086    9.5972 F       1  UNL1       -0.2040
     11 C          61.1906   88.2283    7.6977 C.ar    1  UNL1        0.0443
     12 N          59.8577   91.0910    3.8920 N.pl3   1  UNL1       -0.3034
     13 C          58.7915   91.0329    4.8953 C.3     1  UNL1        0.1123
     14 C          58.6268   89.5949    5.3932 C.3     1  UNL1        0.1122
     15 N          59.9385   89.0230    5.7302 N.pl3   1  UNL1       -0.3040
     16 C          61.0104   89.1067    4.7278 C.3     1  UNL1        0.1122
     17 C          61.1705   90.5507    4.2532 C.3     1  UNL1        0.1123
     18 C          58.9797   92.1629   -0.1405 C.ar    1  UNL1       -0.0110
     19 C          58.0441   91.4747    0.6554 C.ar    1  UNL1       -0.0021
     20 C          58.3368   91.1341    1.9732 C.ar    1  UNL1        0.0151
     21 C          59.5716   91.4685    2.5351 C.ar    1  UNL1        0.0594
     22 C          60.5203   92.1651    1.7651 C.ar    1  UNL1        0.0811
     23 CL         62.0557   92.6398    2.4970 Cl      1  UNL1       -0.0801
     24 C          60.2314   92.5133    0.4290 C.ar    1  UNL1        0.0654
     25 CL         61.4518   93.3917   -0.5016 Cl      1  UNL1       -0.0817
     26 C          57.0946   92.5398   -1.7764 C.3     1  UNL1        0.0047
     27 C          58.6160   92.5131   -1.5801 C.3     1  UNL1        0.0232
     28 C          59.2488   93.8457   -2.0009 C.3     1  UNL1        0.0047
     29 C          60.0690   83.1888   11.2405 C.3     1  UNL1        0.1535
     30 C          60.7488   83.8050   12.4325 C.2     1  UNL1        0.2443
     31 O          61.9620   83.5404   12.6517 O.2     1  UNL1       -0.2730
     32 N          60.0056   84.6233   13.3511 N.am    1  UNL1       -0.2825
     33 H          58.9627   84.5575   13.3329 H       1  UNL1        0.1549
     34 C          60.6091   85.4593   14.3529 C.ar    1  UNL1        0.0535
     35 C          60.7241   86.8493   14.1796 C.ar    1  UNL1        0.0353
     36 C          61.2939   87.6248   15.1925 C.ar    1  UNL1        0.1002
     37 N          61.7205   87.0393   16.3427 N.ar    1  UNL1       -0.2422
     38 C          61.6049   85.7004   16.5450 C.ar    1  UNL1        0.1002
     39 C          61.0399   84.8886   15.5584 C.ar    1  UNL1        0.0353
     40 C          58.7727   82.4819   11.6709 C.3     1  UNL1        0.0569
     41 C          59.0036   81.0126   11.8768 C.ar    1  UNL1       -0.0017
     42 C          58.2471   80.1582   12.6738 C.ar    1  UNL1        0.0681
     43 N          58.6823   78.8840   12.5455 N.ar    1  UNL1       -0.3523
     44 C          59.6980   78.9252   11.6657 C.ar    1  UNL1        0.0563
     45 C          60.4510   77.8511   11.1935 C.ar    1  UNL1        0.0170
     46 C          61.4579   78.1193   10.2480 C.ar    1  UNL1        0.0015
     47 C          61.6838   79.4391    9.7975 C.ar    1  UNL1        0.0001
     48 C          60.9063   80.5032   10.2896 C.ar    1  UNL1        0.0012
     49 C          59.9202   80.2068   11.2309 C.ar    1  UNL1        0.0131
     50 H          58.2925   78.0398   13.0205 H       1  UNL1        0.1660
@<TRIPOS>BOND
     1    26    27    1
     2    27    28    1
     3    27    18    1
     4    18    19   ar
     5    19    20   ar
     6    20    21   ar
     7    21    12    1
     8    12    13    1
     9    13    14    1
    10    14    15    1
    11    15     5    1
    12     5     6   ar
    13     6     7   ar
    14     7     8   ar
    15     8     1    1
    16     1     2    2
    17     1     3   am
    18     3    29    1
    19    29    40    1
    20    40    41    1
    21    41    42   ar
    22    42    43   ar
    23    43    44   ar
    24    44    45   ar
    25    45    46   ar
    26    46    47   ar
    27    47    48   ar
    28    48    49   ar
    29    29    30    1
    30    30    31    2
    31    30    32   am
    32    32    34    1
    33    34    35   ar
    34    35    36   ar
    35    36    37   ar
    36    37    38   ar
    37    38    39   ar
    38     8     9   ar
    39     9    10    1
    40     9    11   ar
    41    15    16    1
    42    16    17    1
    43    21    22   ar
    44    22    23    1
    45    22    24   ar
    46    24    25    1
    47    24    18   ar
    48    17    12    1
    49    11     5   ar
    50    49    41   ar
    51    39    34   ar
    52    49    44   ar
    53     3     4    1
    54    43    50    1
    55    32    33    1
@<TRIPOS>MOLECULE
*****
 50 55 0 0 0
SMALL
GASTEIGER

@<TRIPOS>ATOM
      1 C          58.8388   82.7838   12.8619 C.2     1  UNL1        0.2483
      2 O          57.6604   82.8211   13.3108 O.2     1  UNL1       -0.2701
      3 N          59.2844   81.6309   12.1311 N.am    1  UNL1       -0.2945
      4 H          60.1391   81.7122   11.5348 H       1  UNL1        0.1501
      5 C          61.5049   86.0948   13.5458 C.ar    1  UNL1        0.0502
      6 C          61.9503   84.9479   12.8712 C.ar    1  UNL1        0.0148
      7 C          61.0830   83.8755   12.6493 C.ar    1  UNL1        0.0080
      8 C          59.7493   83.9306   13.0919 C.ar    1  UNL1        0.0808
      9 C          59.3051   85.0808   13.7736 C.ar    1  UNL1        0.1457
     10 F          58.0219   85.1838   14.2042 F       1  UNL1       -0.2040
     11 C          60.1769   86.1520   13.9930 C.ar    1  UNL1        0.0443
     12 N          63.6748   89.5984   14.3128 N.pl3   1  UNL1       -0.3034
     13 C          63.0344   89.4511   13.0033 C.3     1  UNL1        0.1123
     14 C          62.9340   87.9676   12.6400 C.3     1  UNL1        0.1122
     15 N          62.3939   87.2044   13.7744 N.pl3   1  UNL1       -0.3040
     16 C          63.0261   87.3759   15.0903 C.3     1  UNL1        0.1122
     17 C          63.1045   88.8610   15.4429 C.3     1  UNL1        0.1123
     18 C          67.4012   91.6268   14.7377 C.ar    1  UNL1       -0.0110
     19 C          66.5622   91.3953   15.8445 C.ar    1  UNL1       -0.0021
     20 C          65.3499   90.7267   15.6976 C.ar    1  UNL1        0.0151
     21 C          64.9384   90.2708   14.4427 C.ar    1  UNL1        0.0594
     22 C          65.7624   90.4798   13.3221 C.ar    1  UNL1        0.0811
     23 CL         65.2680   89.8490   11.7487 Cl      1  UNL1       -0.0801
     24 C          66.9919   91.1569   13.4627 C.ar    1  UNL1        0.0654
     25 CL         67.9980   91.3951   12.0282 Cl      1  UNL1       -0.0817
     26 C          68.6758   93.2301   16.2130 C.3     1  UNL1        0.0047
     27 C          68.7194   92.3660   14.9460 C.3     1  UNL1        0.0232
     28 C          69.9004   91.3878   14.9870 C.3     1  UNL1        0.0047
     29 C          58.4988   80.3947   12.0704 C.3     1  UNL1        0.1535
     30 C          58.3282   79.9666   10.6385 C.2     1  UNL1        0.2443
     31 O          57.5299   79.0283   10.3696 O.2     1  UNL1       -0.2730
     32 N          59.1204   80.5673    9.6005 N.am    1  UNL1       -0.2825
     33 H          59.9821   81.0880    9.8808 H       1  UNL1        0.1549
     34 C          58.8499   80.4213    8.1961 C.ar    1  UNL1        0.0535
     35 C          59.8494   80.0228    7.2919 C.ar    1  UNL1        0.0353
     36 C          59.5329   79.8682    5.9398 C.ar    1  UNL1        0.1002
     37 N          58.2637   80.0883    5.5061 N.ar    1  UNL1       -0.2422
     38 C          57.2733   80.4564    6.3610 C.ar    1  UNL1        0.1002
     39 C          57.5464   80.6209    7.7210 C.ar    1  UNL1        0.0353
     40 C          59.1752   79.2791   12.8847 C.3     1  UNL1        0.0569
     41 C          60.4890   79.7423   13.4449 C.ar    1  UNL1       -0.0017
     42 C          60.9078   79.6413   14.7685 C.ar    1  UNL1        0.0681
     43 N          62.1843   80.0708   14.8939 N.ar    1  UNL1       -0.3523
     44 C          62.5782   80.4302   13.6598 C.ar    1  UNL1        0.0563
     45 C          63.8291   80.9145   13.2796 C.ar    1  UNL1        0.0170
     46 C          64.0353   81.2060   11.9186 C.ar    1  UNL1        0.0015
     47 C          63.0002   81.0050   10.9785 C.ar    1  UNL1        0.0001
     48 C          61.7486   80.5123   11.3907 C.ar    1  UNL1        0.0012
     49 C          61.5724   80.2388   12.7473 C.ar    1  UNL1        0.0131
     50 H          62.7512   80.0976   15.7704 H       1  UNL1        0.1660
@<TRIPOS>BOND
     1    26    27    1
     2    27    28    1
     3    27    18    1
     4    18    19   ar
     5    19    20   ar
     6    20    21   ar
     7    21    12    1
     8    12    13    1
     9    13    14    1
    10    14    15    1
    11    15     5    1
    12     5     6   ar
    13     6     7   ar
    14     7     8   ar
    15     8     1    1
    16     1     2    2
    17     1     3   am
    18     3    29    1
    19    29    40    1
    20    40    41    1
    21    41    42   ar
    22    42    43   ar
    23    43    44   ar
    24    44    45   ar
    25    45    46   ar
    26    46    47   ar
    27    47    48   ar
    28    48    49   ar
    29    29    30    1
    30    30    31    2
    31    30    32   am
    32    32    34    1
    33    34    35   ar
    34    35    36   ar
    35    36    37   ar
    36    37    38   ar
    37    38    39   ar
    38     8     9   ar
    39     9    10    1
    40     9    11   ar
    41    15    16    1
    42    16    17    1
    43    21    22   ar
    44    22    23    1
    45    22    24   ar
    46    24    25    1
    47    24    18   ar
    48    17    12    1
    49    11     5   ar
    50    49    41   ar
    51    39    34   ar
    52    49    44   ar
    53     3     4    1
    54    43    50    1
    55    32    33    1
@<TRIPOS>MOLECULE
*****
 50 55 0 0 0
SMALL
GASTEIGER

@<TRIPOS>ATOM
      1 C          59.8026   84.7683    8.7532 C.2     1  UNL1        0.2483
      2 O          58.9035   85.2440    8.0071 O.2     1  UNL1       -0.2701
      3 N          59.9841   83.3460    8.8289 N.am    1  UNL1       -0.2945
      4 H          60.8812   82.9727    9.2144 H       1  UNL1        0.1501
      5 C          62.2787   87.4224   11.0692 C.ar    1  UNL1        0.0502
      6 C          61.9138   86.1651   11.5740 C.ar    1  UNL1        0.0148
      7 C          61.1116   85.3052   10.8202 C.ar    1  UNL1        0.0080
      8 C          60.6626   85.6824    9.5420 C.ar    1  UNL1        0.0808
      9 C          61.0256   86.9473    9.0387 C.ar    1  UNL1        0.1457
     10 F          60.6282   87.3462    7.8035 F       1  UNL1       -0.2040
     11 C          61.8292   87.8045    9.7968 C.ar    1  UNL1        0.0443
     12 N          64.2850   90.3138   13.3466 N.pl3   1  UNL1       -0.3034
     13 C          64.1215   90.5521   11.9102 C.3     1  UNL1        0.1123
     14 C          64.0525   89.2152   11.1681 C.3     1  UNL1        0.1122
     15 N          63.1082   88.3114   11.8408 N.pl3   1  UNL1       -0.3040
     16 C          63.2635   88.0963   13.2866 C.3     1  UNL1        0.1122
     17 C          63.3157   89.4403   14.0124 C.3     1  UNL1        0.1123
     18 C          67.7705   91.6364   15.4162 C.ar    1  UNL1       -0.0110
     19 C          66.5213   91.5565   16.0608 C.ar    1  UNL1       -0.0021
     20 C          65.3895   91.1177   15.3790 C.ar    1  UNL1        0.0151
     21 C          65.4704   90.7472   14.0342 C.ar    1  UNL1        0.0594
     22 C          66.7083   90.8077   13.3693 C.ar    1  UNL1        0.0811
     23 CL         66.8193   90.2810   11.6875 Cl      1  UNL1       -0.0801
     24 C          67.8594   91.2518   14.0531 C.ar    1  UNL1        0.0654
     25 CL         69.3958   91.3092   13.1795 Cl      1  UNL1       -0.0817
     26 C          70.2032   91.2298   15.9531 C.3     1  UNL1        0.0047
     27 C          68.9828   92.1254   16.2027 C.3     1  UNL1        0.0232
     28 C          69.2989   93.5904   15.8754 C.3     1  UNL1        0.0047
     29 C          59.0239   82.4053    8.2439 C.3     1  UNL1        0.1535
     30 C          59.5268   80.9964    8.4015 C.2     1  UNL1        0.2443
     31 O          59.4101   80.1919    7.4376 O.2     1  UNL1       -0.2730
     32 N          60.0638   80.5522    9.6585 N.am    1  UNL1       -0.2825
     33 H          59.8499   81.1186   10.5105 H       1  UNL1        0.1549
     34 C          60.8015   79.3304    9.8311 C.ar    1  UNL1        0.0535
     35 C          62.0153   79.1027    9.1602 C.ar    1  UNL1        0.0353
     36 C          62.7106   77.9109    9.3799 C.ar    1  UNL1        0.1002
     37 N          62.2223   76.9855   10.2476 N.ar    1  UNL1       -0.2422
     38 C          61.0608   77.1872   10.9239 C.ar    1  UNL1        0.1002
     39 C          60.3349   78.3656   10.7345 C.ar    1  UNL1        0.0353
     40 C          57.6427   82.5565    8.9032 C.3     1  UNL1        0.0569
     41 C          57.7288   82.3465   10.3875 C.ar    1  UNL1       -0.0017
     42 C          57.9198   81.1338   11.0435 C.ar    1  UNL1        0.0681
     43 N          58.0451   81.3322   12.3755 N.ar    1  UNL1       -0.3523
     44 C          57.9472   82.6596   12.5642 C.ar    1  UNL1        0.0563
     45 C          58.0399   83.3507   13.7716 C.ar    1  UNL1        0.0170
     46 C          57.9336   84.7533   13.7362 C.ar    1  UNL1        0.0015
     47 C          57.7439   85.4261   12.5086 C.ar    1  UNL1        0.0001
     48 C          57.6568   84.7027   11.3051 C.ar    1  UNL1        0.0012
     49 C          57.7592   83.3131   11.3732 C.ar    1  UNL1        0.0131
     50 H          58.2051   80.6011   13.1038 H       1  UNL1        0.1660
@<TRIPOS>BOND
     1    26    27    1
     2    27    28    1
     3    27    18    1
     4    18    19   ar
     5    19    20   ar
     6    20    21   ar
     7    21    12    1
     8    12    13    1
     9    13    14    1
    10    14    15    1
    11    15     5    1
    12     5     6   ar
    13     6     7   ar
    14     7     8   ar
    15     8     1    1
    16     1     2    2
    17     1     3   am
    18     3    29    1
    19    29    40    1
    20    40    41    1
    21    41    42   ar
    22    42    43   ar
    23    43    44   ar
    24    44    45   ar
    25    45    46   ar
    26    46    47   ar
    27    47    48   ar
    28    48    49   ar
    29    29    30    1
    30    30    31    2
    31    30    32   am
    32    32    34    1
    33    34    35   ar
    34    35    36   ar
    35    36    37   ar
    36    37    38   ar
    37    38    39   ar
    38     8     9   ar
    39     9    10    1
    40     9    11   ar
    41    15    16    1
    42    16    17    1
    43    21    22   ar
    44    22    23    1
    45    22    24   ar
    46    24    25    1
    47    24    18   ar
    48    17    12    1
    49    11     5   ar
    50    49    41   ar
    51    39    34   ar
    52    49    44   ar
    53     3     4    1
    54    43    50    1
    55    32    33    1
@<TRIPOS>MOLECULE
*****
 50 55 0 0 0
SMALL
GASTEIGER

@<TRIPOS>ATOM
      1 C          59.5997   84.1114    8.8191 C.2     1  UNL1        0.2483
      2 O          58.4756   84.4717    8.3742 O.2     1  UNL1       -0.2701
      3 N          60.0283   82.7516    8.6489 N.am    1  UNL1       -0.2945
      4 H          61.0427   82.5256    8.7615 H       1  UNL1        0.1501
      5 C          62.0939   86.9719   10.8524 C.ar    1  UNL1        0.0502
      6 C          61.6976   85.7883   11.4933 C.ar    1  UNL1        0.0148
      7 C          60.8895   84.8610   10.8310 C.ar    1  UNL1        0.0080
      8 C          60.4660   85.0954    9.5106 C.ar    1  UNL1        0.0808
      9 C          60.8607   86.2867    8.8704 C.ar    1  UNL1        0.1457
     10 F          60.4886   86.5467    7.5910 F       1  UNL1       -0.2040
     11 C          61.6700   87.2117    9.5373 C.ar    1  UNL1        0.0443
     12 N          64.1052   90.0412   12.8789 N.pl3   1  UNL1       -0.3034
     13 C          63.8150   90.2237   11.4544 C.3     1  UNL1        0.1123
     14 C          63.7642   88.8617   10.7577 C.3     1  UNL1        0.1122
     15 N          62.9296   87.9296   11.5294 N.pl3   1  UNL1       -0.3040
     16 C          63.2110   87.7700   12.9634 C.3     1  UNL1        0.1122
     17 C          63.2433   89.1377   13.6450 C.3     1  UNL1        0.1123
     18 C          67.7231   91.5523   14.5547 C.ar    1  UNL1       -0.0110
     19 C          67.6069   91.2909   13.1761 C.ar    1  UNL1       -0.0021
     20 C          66.4197   90.8034   12.6365 C.ar    1  UNL1        0.0151
     21 C          65.3145   90.5610   13.4561 C.ar    1  UNL1        0.0594
     22 C          65.4004   90.8232   14.8353 C.ar    1  UNL1        0.0811
     23 CL         63.9831   90.5736   15.8585 Cl      1  UNL1       -0.0801
     24 C          66.6000   91.3168   15.3897 C.ar    1  UNL1        0.0654
     25 CL         66.6630   91.6356   17.1278 Cl      1  UNL1       -0.0817
     26 C          68.8250   93.3359   15.9604 C.3     1  UNL1        0.0047
     27 C          69.0444   92.0835   15.1018 C.3     1  UNL1        0.0232
     28 C          69.7913   90.9998   15.8897 C.3     1  UNL1        0.0047
     29 C          59.1221   81.7022    8.1728 C.3     1  UNL1        0.1535
     30 C          59.7928   80.3599    8.2788 C.2     1  UNL1        0.2443
     31 O          59.7126   79.5558    7.3109 O.2     1  UNL1       -0.2730
     32 N          60.4513   79.9701    9.4955 N.am    1  UNL1       -0.2825
     33 H          60.2245   80.5002   10.3671 H       1  UNL1        0.1549
     34 C          61.3340   78.8407    9.6058 C.ar    1  UNL1        0.0535
     35 C          62.5820   78.8165    8.9598 C.ar    1  UNL1        0.0353
     36 C          63.4178   77.7081    9.1179 C.ar    1  UNL1        0.1002
     37 N          63.0313   76.6677    9.9027 N.ar    1  UNL1       -0.2422
     38 C          61.8384   76.6724   10.5539 C.ar    1  UNL1        0.1002
     39 C          60.9732   77.7615   10.4241 C.ar    1  UNL1        0.0353
     40 C          57.8108   81.7093    8.9763 C.3     1  UNL1        0.0569
     41 C          58.0781   81.5428   10.4445 C.ar    1  UNL1       -0.0017
     42 C          58.1648   82.5590   11.3918 C.ar    1  UNL1        0.0681
     43 N          58.3177   82.0379   12.6305 N.ar    1  UNL1       -0.3523
     44 C          58.3160   80.7026   12.4746 C.ar    1  UNL1        0.0563
     45 C          58.4215   79.7351   13.4729 C.ar    1  UNL1        0.0170
     46 C          58.3703   78.3831   13.0863 C.ar    1  UNL1        0.0015
     47 C          58.2120   78.0327   11.7269 C.ar    1  UNL1        0.0001
     48 C          58.1053   79.0308   10.7412 C.ar    1  UNL1        0.0012
     49 C          58.1662   80.3618   11.1546 C.ar    1  UNL1        0.0131
     50 H          58.4003   82.5688   13.5259 H       1  UNL1        0.1660
@<TRIPOS>BOND
     1    26    27    1
     2    27    28    1
     3    27    18    1
     4    18    19   ar
     5    19    20   ar
     6    20    21   ar
     7    21    12    1
     8    12    13    1
     9    13    14    1
    10    14    15    1
    11    15     5    1
    12     5     6   ar
    13     6     7   ar
    14     7     8   ar
    15     8     1    1
    16     1     2    2
    17     1     3   am
    18     3    29    1
    19    29    40    1
    20    40    41    1
    21    41    42   ar
    22    42    43   ar
    23    43    44   ar
    24    44    45   ar
    25    45    46   ar
    26    46    47   ar
    27    47    48   ar
    28    48    49   ar
    29    29    30    1
    30    30    31    2
    31    30    32   am
    32    32    34    1
    33    34    35   ar
    34    35    36   ar
    35    36    37   ar
    36    37    38   ar
    37    38    39   ar
    38     8     9   ar
    39     9    10    1
    40     9    11   ar
    41    15    16    1
    42    16    17    1
    43    21    22   ar
    44    22    23    1
    45    22    24   ar
    46    24    25    1
    47    24    18   ar
    48    17    12    1
    49    11     5   ar
    50    49    41   ar
    51    39    34   ar
    52    49    44   ar
    53     3     4    1
    54    43    50    1
    55    32    33    1
@<TRIPOS>MOLECULE
*****
 50 55 0 0 0
SMALL
GASTEIGER

@<TRIPOS>ATOM
      1 C          59.0220   90.3256    5.0072 C.2     1  UNL1        0.2483
      2 O          57.9777   91.0065    4.8146 O.2     1  UNL1       -0.2701
      3 N          60.2448   90.7000    4.3541 N.am    1  UNL1       -0.2945
      4 H          61.1475   90.3202    4.7195 H       1  UNL1        0.1501
      5 C          58.9075   86.8888    7.5983 C.ar    1  UNL1        0.0502
      6 C          60.1335   87.4611    7.2262 C.ar    1  UNL1        0.0148
      7 C          60.1680   88.5770    6.3866 C.ar    1  UNL1        0.0080
      8 C          58.9760   89.1482    5.9065 C.ar    1  UNL1        0.0808
      9 C          57.7461   88.5693    6.2770 C.ar    1  UNL1        0.1457
     10 F          56.5706   89.0972    5.8502 F       1  UNL1       -0.2040
     11 C          57.7166   87.4525    7.1181 C.ar    1  UNL1        0.0443
     12 N          58.3798   83.7630   10.3411 N.pl3   1  UNL1       -0.3034
     13 C          59.0443   84.9852   10.8008 C.3     1  UNL1        0.1123
     14 C          59.7632   85.6562    9.6278 C.3     1  UNL1        0.1122
     15 N          58.8662   85.7404    8.4662 N.pl3   1  UNL1       -0.3040
     16 C          58.1840   84.5150    8.0258 C.3     1  UNL1        0.1122
     17 C          57.4601   83.8670    9.2056 C.3     1  UNL1        0.1123
     18 C          59.5458   79.9657   11.8908 C.ar    1  UNL1       -0.0110
     19 C          58.5866   80.7615   12.5458 C.ar    1  UNL1       -0.0021
     20 C          58.2072   81.9975   12.0293 C.ar    1  UNL1        0.0151
     21 C          58.7745   82.4764   10.8456 C.ar    1  UNL1        0.0594
     22 C          59.7276   81.6968   10.1659 C.ar    1  UNL1        0.0811
     23 CL         60.3974   82.2773    8.6387 Cl      1  UNL1       -0.0801
     24 C          60.1176   80.4436   10.6831 C.ar    1  UNL1        0.0654
     25 CL         61.3166   79.4951    9.7944 Cl      1  UNL1       -0.0817
     26 C          60.5381   78.7932   13.8939 C.3     1  UNL1        0.0047
     27 C          59.9324   78.6193   12.4951 C.3     1  UNL1        0.0232
     28 C          58.7321   77.6646   12.5298 C.3     1  UNL1        0.0047
     29 C          60.2847   91.7134    3.2956 C.3     1  UNL1        0.1535
     30 C          61.6870   91.8479    2.7684 C.2     1  UNL1        0.2443
     31 O          62.4272   90.8280    2.7265 O.2     1  UNL1       -0.2730
     32 N          62.2009   93.1354    2.3888 N.am    1  UNL1       -0.2825
     33 H          61.6996   93.9847    2.7347 H       1  UNL1        0.1549
     34 C          63.4115   93.3285    1.6377 C.ar    1  UNL1        0.0535
     35 C          64.6759   93.1113    2.2116 C.ar    1  UNL1        0.0353
     36 C          65.8240   93.2858    1.4346 C.ar    1  UNL1        0.1002
     37 N          65.7163   93.6492    0.1293 N.ar    1  UNL1       -0.2422
     38 C          64.5062   93.8479   -0.4567 C.ar    1  UNL1        0.1002
     39 C          63.3333   93.6828    0.2839 C.ar    1  UNL1        0.0353
     40 C          59.3181   91.3491    2.1562 C.3     1  UNL1        0.0569
     41 C          59.7274   92.0094    0.8712 C.ar    1  UNL1       -0.0017
     42 C          59.2394   93.2103    0.3641 C.ar    1  UNL1        0.0681
     43 N          59.9031   93.5508   -0.7642 N.ar    1  UNL1       -0.3523
     44 C          60.8131   92.5821   -0.9665 C.ar    1  UNL1        0.0563
     45 C          61.7516   92.5057   -1.9947 C.ar    1  UNL1        0.0170
     46 C          62.6326   91.4086   -2.0005 C.ar    1  UNL1        0.0015
     47 C          62.5596   90.4264   -0.9878 C.ar    1  UNL1        0.0001
     48 C          61.6039   90.5310    0.0392 C.ar    1  UNL1        0.0012
     49 C          60.7402   91.6263    0.0143 C.ar    1  UNL1        0.0131
     50 H          59.7495   94.4041   -1.3461 H       1  UNL1        0.1660
@<TRIPOS>BOND
     1    26    27    1
     2    27    28    1
     3    27    18    1
     4    18    19   ar
     5    19    20   ar
     6    20    21   ar
     7    21    12    1
     8    12    13    1
     9    13    14    1
    10    14    15    1
    11    15     5    1
    12     5     6   ar
    13     6     7   ar
    14     7     8   ar
    15     8     1    1
    16     1     2    2
    17     1     3   am
    18     3    29    1
    19    29    40    1
    20    40    41    1
    21    41    42   ar
    22    42    43   ar
    23    43    44   ar
    24    44    45   ar
    25    45    46   ar
    26    46    47   ar
    27    47    48   ar
    28    48    49   ar
    29    29    30    1
    30    30    31    2
    31    30    32   am
    32    32    34    1
    33    34    35   ar
    34    35    36   ar
    35    36    37   ar
    36    37    38   ar
    37    38    39   ar
    38     8     9   ar
    39     9    10    1
    40     9    11   ar
    41    15    16    1
    42    16    17    1
    43    21    22   ar
    44    22    23    1
    45    22    24   ar
    46    24    25    1
    47    24    18   ar
    48    17    12    1
    49    11     5   ar
    50    49    41   ar
    51    39    34   ar
    52    49    44   ar
    53     3     4    1
    54    43    50    1
    55    32    33    1
@<TRIPOS>MOLECULE
*****
 50 55 0 0 0
SMALL
GASTEIGER

@<TRIPOS>ATOM
      1 C          59.4945   89.9195    5.5107 C.2     1  UNL1        0.2483
      2 O          58.3557   90.4357    5.3427 O.2     1  UNL1       -0.2701
      3 N          60.6129   90.4036    4.7515 N.am    1  UNL1       -0.2945
      4 H          61.5796   90.1792    5.0801 H       1  UNL1        0.1501
      5 C          60.0176   86.7163    8.3399 C.ar    1  UNL1        0.0502
      6 C          61.0744   87.5933    8.0519 C.ar    1  UNL1        0.0148
      7 C          60.9018   88.6327    7.1347 C.ar    1  UNL1        0.0080
      8 C          59.6658   88.8207    6.4907 C.ar    1  UNL1        0.0808
      9 C          58.6073   87.9361    6.7772 C.ar    1  UNL1        0.1457
     10 F          57.3925   88.0898    6.1912 F       1  UNL1       -0.2040
     11 C          58.7847   86.8974    7.6964 C.ar    1  UNL1        0.0443
     12 N          60.0570   83.4357   10.9493 N.pl3   1  UNL1       -0.3034
     13 C          59.3039   84.6286   11.3449 C.3     1  UNL1        0.1123
     14 C          59.9372   85.8727   10.7173 C.3     1  UNL1        0.1122
     15 N          60.1892   85.6451    9.2870 N.pl3   1  UNL1       -0.3040
     16 C          60.9242   84.4337    8.8958 C.3     1  UNL1        0.1122
     17 C          60.2697   83.2011    9.5190 C.3     1  UNL1        0.1123
     18 C          62.1407   81.0991   13.8439 C.ar    1  UNL1       -0.0110
     19 C          62.5005   82.4353   13.5837 C.ar    1  UNL1       -0.0021
     20 C          61.8106   83.1929   12.6412 C.ar    1  UNL1        0.0151
     21 C          60.7429   82.6396   11.9297 C.ar    1  UNL1        0.0594
     22 C          60.3564   81.3102   12.1777 C.ar    1  UNL1        0.0811
     23 CL         58.9684   80.6335   11.3211 Cl      1  UNL1       -0.0801
     24 C          61.0507   80.5360   13.1307 C.ar    1  UNL1        0.0654
     25 CL         60.5290   78.8701   13.4131 Cl      1  UNL1       -0.0817
     26 C          64.2093   79.7196   14.2796 C.3     1  UNL1        0.0047
     27 C          62.9270   80.3067   14.8837 C.3     1  UNL1        0.0232
     28 C          63.2421   81.1690   16.1127 C.3     1  UNL1        0.0047
     29 C          60.4493   91.3272    3.6248 C.3     1  UNL1        0.1535
     30 C          61.7809   91.5794    2.9722 C.2     1  UNL1        0.2443
     31 O          62.7287   90.7743    3.1808 O.2     1  UNL1       -0.2730
     32 N          61.9917   92.7620    2.1830 N.am    1  UNL1       -0.2825
     33 H          61.3180   93.5530    2.2958 H       1  UNL1        0.1549
     34 C          63.1208   92.9590    1.3153 C.ar    1  UNL1        0.0535
     35 C          64.3812   92.4125    1.6123 C.ar    1  UNL1        0.0353
     36 C          65.4429   92.6080    0.7253 C.ar    1  UNL1        0.1002
     37 N          65.2528   93.3099   -0.4231 N.ar    1  UNL1       -0.2422
     38 C          64.0407   93.8337   -0.7447 C.ar    1  UNL1        0.1002
     39 C          62.9522   93.6604    0.1136 C.ar    1  UNL1        0.0353
     40 C          59.4501   90.7643    2.6000 C.3     1  UNL1        0.0569
     41 C          59.9274   91.0018    1.1963 C.ar    1  UNL1       -0.0017
     42 C          60.8101   90.2033    0.4746 C.ar    1  UNL1        0.0681
     43 N          60.9385   90.6654   -0.7901 N.ar    1  UNL1       -0.3523
     44 C          60.1358   91.7403   -0.8762 C.ar    1  UNL1        0.0563
     45 C          59.9125   92.5408   -1.9956 C.ar    1  UNL1        0.0170
     46 C          59.0044   93.6082   -1.8701 C.ar    1  UNL1        0.0015
     47 C          58.3441   93.8460   -0.6440 C.ar    1  UNL1        0.0001
     48 C          58.5870   93.0198    0.4684 C.ar    1  UNL1        0.0012
     49 C          59.4973   91.9738    0.3149 C.ar    1  UNL1        0.0131
     50 H          61.5280   90.2553   -1.5483 H       1  UNL1        0.1660
@<TRIPOS>BOND
     1    26    27    1
     2    27    28    1
     3    27    18    1
     4    18    19   ar
     5    19    20   ar
     6    20    21   ar
     7    21    12    1
     8    12    13    1
     9    13    14    1
    10    14    15    1
    11    15     5    1
    12     5     6   ar
    13     6     7   ar
    14     7     8   ar
    15     8     1    1
    16     1     2    2
    17     1     3   am
    18     3    29    1
    19    29    40    1
    20    40    41    1
    21    41    42   ar
    22    42    43   ar
    23    43    44   ar
    24    44    45   ar
    25    45    46   ar
    26    46    47   ar
    27    47    48   ar
    28    48    49   ar
    29    29    30    1
    30    30    31    2
    31    30    32   am
    32    32    34    1
    33    34    35   ar
    34    35    36   ar
    35    36    37   ar
    36    37    38   ar
    37    38    39   ar
    38     8     9   ar
    39     9    10    1
    40     9    11   ar
    41    15    16    1
    42    16    17    1
    43    21    22   ar
    44    22    23    1
    45    22    24   ar
    46    24    25    1
    47    24    18   ar
    48    17    12    1
    49    11     5   ar
    50    49    41   ar
    51    39    34   ar
    52    49    44   ar
    53     3     4    1
    54    43    50    1
    55    32    33    1
