@<TRIPOS>MOLECULE
*****
 47 52 0 0 0
SMALL
GASTEIGER

@<TRIPOS>ATOM
      1 C          61.2680   89.4666    9.2719 C.ar    1  UNL1        0.0702
      2 C          60.5197   90.1849   10.2118 C.ar    1  UNL1        0.0191
      3 C          60.4899   89.7796   11.5469 C.ar    1  UNL1        0.0356
      4 C          61.2072   88.6377   11.9415 C.ar    1  UNL1        0.1318
      5 N          61.8995   87.9346   11.0018 N.ar    1  UNL1       -0.2279
      6 C          61.9454   88.3127    9.6970 C.ar    1  UNL1        0.1149
      7 N          61.1973   88.1802   13.3102 N.pl3   1  UNL1       -0.2932
      8 C          60.6306   86.8595   13.6200 C.3     1  UNL1        0.0923
      9 C          60.1747   86.7934   15.0805 C.3     1  UNL1        0.0253
     10 C          61.3252   87.1004   16.0739 C.3     1  UNL1        0.0495
     11 C          62.3615   88.1179   15.4956 C.3     1  UNL1        0.0528
     12 C          61.7542   89.0082   14.3925 C.3     1  UNL1        0.0947
     13 C          63.0154   88.9782   16.5969 C.3     1  UNL1        0.1389
     14 O          62.8500   90.3485   16.3364 O.3     1  UNL1       -0.3819
     15 H          62.1095   90.6701   16.9136 H       1  UNL1        0.2104
     16 C          62.0279   85.8023   16.5168 C.3     1  UNL1        0.2055
     17 O          63.2697   85.6601   15.8292 O.3     1  UNL1       -0.4755
     18 C          63.5312   84.6852   14.8554 C.ar    1  UNL1        0.1388
     19 C          63.9751   85.0120   13.5612 C.ar    1  UNL1        0.0369
     20 C          64.2246   84.0024   12.6299 C.ar    1  UNL1        0.0033
     21 C          64.0305   82.6625   12.9735 C.ar    1  UNL1        0.0066
     22 C          63.5768   82.3163   14.2586 C.ar    1  UNL1        0.0785
     23 C          63.3396   83.3402   15.1945 C.ar    1  UNL1        0.0433
     24 C          63.3696   80.8986   14.6433 C.2     1  UNL1        0.3381
     25 O          62.7546   80.1230   13.8638 O.2     1  UNL1       -0.2451
     26 O          63.8521   80.3856   15.8469 O.3     1  UNL1       -0.4771
     27 H          64.4410   80.9210   16.4713 H       1  UNL1        0.2954
     28 C          60.0830   90.0447    7.1025 C.2     1  UNL1        0.2839
     29 O          58.9822   89.5820    7.5060 O.2     1  UNL1       -0.2665
     30 N          61.2702   89.8828    7.8954 N.am    1  UNL1       -0.2766
     31 H          62.1953   89.9922    7.4212 H       1  UNL1        0.1553
     32 C          57.6307   91.0778    5.3157 C.3     1  UNL1        0.0345
     33 C          59.0953   91.1727    5.0102 C.ar    1  UNL1        0.0202
     34 C          60.1631   90.7194    5.7929 C.ar    1  UNL1        0.1946
     35 O          61.3090   90.9840    5.1909 O.2     1  UNL1       -0.4492
     36 C          61.0396   91.5849    4.0577 C.ar    1  UNL1        0.1452
     37 C          61.9468   92.0418    3.1083 C.ar    1  UNL1        0.0375
     38 C          61.4382   92.6651    1.9557 C.ar    1  UNL1        0.0031
     39 C          60.0380   92.8217    1.7696 C.ar    1  UNL1        0.0002
     40 C          59.1485   92.3416    2.7607 C.ar    1  UNL1        0.0028
     41 C          59.6880   91.7278    3.8921 C.ar    1  UNL1        0.0337
     42 C          59.5124   93.4820    0.5478 C.ar    1  UNL1        0.0000
     43 C          58.1625   93.3315    0.1772 C.ar    1  UNL1        0.0000
     44 C          57.6702   93.9544   -0.9737 C.ar    1  UNL1        0.0000
     45 C          58.5166   94.7335   -1.7657 C.ar    1  UNL1        0.0000
     46 C          59.8575   94.8911   -1.4085 C.ar    1  UNL1        0.0000
     47 C          60.3555   94.2697   -0.2591 C.ar    1  UNL1        0.0000
@<TRIPOS>BOND
     1    32    33    1
     2    33    34   ar
     3    34    28    1
     4    28    29    2
     5    28    30   am
     6    30     1    1
     7     1     2   ar
     8     2     3   ar
     9     3     4   ar
    10     4     7    1
    11     7     8    1
    12     8     9    1
    13     9    10    1
    14    10    16    1
    15    16    17    1
    16    17    18    1
    17    18    19   ar
    18    19    20   ar
    19    20    21   ar
    20    21    22   ar
    21    22    24    1
    22    24    25    2
    23    24    26    1
    24    22    23   ar
    25    10    11    1
    26    11    13    1
    27    13    14    1
    28    11    12    1
    29     4     5   ar
    30     5     6   ar
    31    34    35   ar
    32    35    36   ar
    33    36    37   ar
    34    37    38   ar
    35    38    39   ar
    36    39    42    1
    37    42    43   ar
    38    43    44   ar
    39    44    45   ar
    40    45    46   ar
    41    46    47   ar
    42    39    40   ar
    43    40    41   ar
    44    41    33   ar
    45     6     1   ar
    46    41    36   ar
    47    12     7    1
    48    47    42   ar
    49    23    18   ar
    50    30    31    1
    51    26    27    1
    52    14    15    1
@<TRIPOS>MOLECULE
*****
 47 52 0 0 0
SMALL
GASTEIGER

@<TRIPOS>ATOM
      1 C          59.9959   90.9640    5.6321 C.ar    1  UNL1        0.0702
      2 C          61.0696   91.2003    4.7657 C.ar    1  UNL1        0.0191
      3 C          60.8581   91.8255    3.5361 C.ar    1  UNL1        0.0356
      4 C          59.5574   92.2072    3.1664 C.ar    1  UNL1        0.1318
      5 N          58.5234   91.9347    4.0111 N.ar    1  UNL1       -0.2279
      6 C          58.7064   91.3301    5.2145 C.ar    1  UNL1        0.1149
      7 N          59.2941   92.8496    1.9012 N.pl3   1  UNL1       -0.2932
      8 C          60.0698   94.0413    1.5276 C.3     1  UNL1        0.0923
      9 C          59.3020   94.8925    0.5122 C.3     1  UNL1        0.0253
     10 C          58.9373   94.0991   -0.7693 C.3     1  UNL1        0.0495
     11 C          58.6828   92.5833   -0.4844 C.3     1  UNL1        0.0528
     12 C          58.2735   92.3240    0.9797 C.3     1  UNL1        0.0947
     13 C          57.6563   91.9682   -1.4582 C.3     1  UNL1        0.1389
     14 O          56.3421   92.2913   -1.0820 O.3     1  UNL1       -0.3819
     15 H          56.0412   93.0309   -1.6715 H       1  UNL1        0.2104
     16 C          60.0226   94.2738   -1.8495 C.3     1  UNL1        0.2055
     17 O          61.0487   93.2986   -1.6730 O.3     1  UNL1       -0.4755
     18 C          62.3088   93.5635   -1.1172 C.ar    1  UNL1        0.1388
     19 C          63.3185   94.2399   -1.8255 C.ar    1  UNL1        0.0369
     20 C          64.5550   94.4817   -1.2244 C.ar    1  UNL1        0.0033
     21 C          64.8008   94.0498    0.0810 C.ar    1  UNL1        0.0066
     22 C          63.8081   93.3625    0.8017 C.ar    1  UNL1        0.0785
     23 C          62.5606   93.1340    0.1916 C.ar    1  UNL1        0.0433
     24 C          64.0491   92.9006    2.1906 C.2     1  UNL1        0.3381
     25 O          63.8921   93.7004    3.1513 O.2     1  UNL1       -0.2451
     26 O          64.4336   91.5902    2.4731 O.3     1  UNL1       -0.4771
     27 H          64.4782   90.8697    1.7644 H       1  UNL1        0.2954
     28 C          59.6485   89.0308    7.2404 C.2     1  UNL1        0.2839
     29 O          58.6994   88.5534    6.5620 O.2     1  UNL1       -0.2665
     30 N          60.2258   90.2977    6.8855 N.am    1  UNL1       -0.2766
     31 H          60.7782   90.8058    7.6130 H       1  UNL1        0.1553
     32 C          60.5113   90.3064   10.0514 C.3     1  UNL1        0.0345
     33 C          60.5193   88.8603    9.6567 C.ar    1  UNL1        0.0202
     34 C          60.1425   88.3074    8.4276 C.ar    1  UNL1        0.1946
     35 O          60.2857   86.9944    8.4596 O.2     1  UNL1       -0.4492
     36 C          60.7366   86.6671    9.6460 C.ar    1  UNL1        0.1452
     37 C          61.0287   85.3913   10.1152 C.ar    1  UNL1        0.0375
     38 C          61.5035   85.2651   11.4322 C.ar    1  UNL1        0.0031
     39 C          61.6786   86.4095   12.2564 C.ar    1  UNL1        0.0002
     40 C          61.3698   87.6906   11.7394 C.ar    1  UNL1        0.0028
     41 C          60.9010   87.7790   10.4278 C.ar    1  UNL1        0.0337
     42 C          62.1808   86.2637   13.6463 C.ar    1  UNL1        0.0000
     43 C          61.3360   85.7856   14.6661 C.ar    1  UNL1        0.0000
     44 C          61.8114   85.6492   15.9739 C.ar    1  UNL1        0.0000
     45 C          63.1321   85.9865   16.2785 C.ar    1  UNL1        0.0000
     46 C          63.9802   86.4613   15.2757 C.ar    1  UNL1        0.0000
     47 C          63.5098   86.6005   13.9662 C.ar    1  UNL1        0.0000
@<TRIPOS>BOND
     1    32    33    1
     2    33    34   ar
     3    34    28    1
     4    28    29    2
     5    28    30   am
     6    30     1    1
     7     1     2   ar
     8     2     3   ar
     9     3     4   ar
    10     4     7    1
    11     7     8    1
    12     8     9    1
    13     9    10    1
    14    10    16    1
    15    16    17    1
    16    17    18    1
    17    18    19   ar
    18    19    20   ar
    19    20    21   ar
    20    21    22   ar
    21    22    24    1
    22    24    25    2
    23    24    26    1
    24    22    23   ar
    25    10    11    1
    26    11    13    1
    27    13    14    1
    28    11    12    1
    29     4     5   ar
    30     5     6   ar
    31    34    35   ar
    32    35    36   ar
    33    36    37   ar
    34    37    38   ar
    35    38    39   ar
    36    39    42    1
    37    42    43   ar
    38    43    44   ar
    39    44    45   ar
    40    45    46   ar
    41    46    47   ar
    42    39    40   ar
    43    40    41   ar
    44    41    33   ar
    45     6     1   ar
    46    41    36   ar
    47    12     7    1
    48    47    42   ar
    49    23    18   ar
    50    30    31    1
    51    26    27    1
    52    14    15    1
