@<TRIPOS>MOLECULE
*****
 45 50 0 0 0
SMALL
GASTEIGER

@<TRIPOS>ATOM
      1 C           9.9171   76.2490   23.1530 C.ar    1  UNL1        0.0751
      2 C          10.9127   76.4855   22.1936 C.ar    1  UNL1        0.0196
      3 C          12.2052   76.8299   22.5904 C.ar    1  UNL1        0.0356
      4 C          12.5091   76.9263   23.9578 C.ar    1  UNL1        0.1323
      5 N          11.5280   76.6798   24.8698 N.ar    1  UNL1       -0.2227
      6 C          10.2618   76.3407   24.5122 C.ar    1  UNL1        0.1301
      7 BR          8.9784   76.0314   25.8966 Br      1  UNL1       -0.0267
      8 N          13.8401   77.2592   24.4088 N.pl3   1  UNL1       -0.2932
      9 C          14.1285   77.4462   25.8410 C.3     1  UNL1        0.0923
     10 C          15.3458   78.3645   26.0548 C.3     1  UNL1        0.0252
     11 C          15.3905   79.4957   25.0039 C.3     1  UNL1        0.0472
     12 C          15.4804   78.9124   23.5664 C.3     1  UNL1        0.0252
     13 C          14.9230   77.4835   23.4418 C.3     1  UNL1        0.0923
     14 C          14.2018   80.4666   25.1892 C.3     1  UNL1        0.2054
     15 O          13.1979   80.2521   24.1931 O.3     1  UNL1       -0.4755
     16 C          11.8165   80.0939   24.4093 C.ar    1  UNL1        0.1388
     17 C          10.8590   80.1430   23.3758 C.ar    1  UNL1        0.0369
     18 C           9.5050   79.9650   23.6633 C.ar    1  UNL1        0.0033
     19 C           9.0868   79.7436   24.9760 C.ar    1  UNL1        0.0066
     20 C          10.0215   79.7078   26.0247 C.ar    1  UNL1        0.0785
     21 C          11.3860   79.8768   25.7251 C.ar    1  UNL1        0.0433
     22 C           9.5640   79.4723   27.4158 C.2     1  UNL1        0.3381
     23 O          10.2986   78.8335   28.2155 O.2     1  UNL1       -0.2451
     24 O           8.3258   79.9264   27.8691 O.3     1  UNL1       -0.4771
     25 H           7.6431   80.3524   27.2559 H       1  UNL1        0.2954
     26 C           7.7702   76.6185   21.8588 C.2     1  UNL1        0.2840
     27 O           8.2234   77.6578   21.3089 O.2     1  UNL1       -0.2665
     28 N           8.5904   75.8577   22.7622 N.am    1  UNL1       -0.2763
     29 H           8.2079   74.9777   23.1706 H       1  UNL1        0.1553
     30 C           6.7839   73.6861   20.9091 C.3     1  UNL1        0.0345
     31 C           5.9720   74.9309   21.1017 C.ar    1  UNL1        0.0202
     32 C           6.3980   76.1937   21.5321 C.ar    1  UNL1        0.1946
     33 O           5.3630   77.0085   21.6357 O.2     1  UNL1       -0.4492
     34 C           4.2917   76.3471   21.2713 C.ar    1  UNL1        0.1452
     35 C           2.9837   76.8167   21.2217 C.ar    1  UNL1        0.0375
     36 C           1.9791   75.9279   20.8002 C.ar    1  UNL1        0.0031
     37 C           2.2947   74.5904   20.4371 C.ar    1  UNL1        0.0002
     38 C           3.6394   74.1528   20.5029 C.ar    1  UNL1        0.0028
     39 C           4.6096   75.0625   20.9237 C.ar    1  UNL1        0.0337
     40 C           1.2254   73.6604   19.9933 C.ar    1  UNL1        0.0000
     41 C           1.0785   72.3976   20.5984 C.ar    1  UNL1        0.0000
     42 C           0.0713   71.5236   20.1776 C.ar    1  UNL1        0.0000
     43 C          -0.7989   71.8986   19.1518 C.ar    1  UNL1        0.0000
     44 C          -0.6638   73.1485   18.5437 C.ar    1  UNL1        0.0000
     45 C           0.3422   74.0263   18.9597 C.ar    1  UNL1        0.0000
@<TRIPOS>BOND
     1    30    31    1
     2    31    32   ar
     3    32    26    1
     4    26    27    2
     5    26    28   am
     6    28     1    1
     7     1     2   ar
     8     2     3   ar
     9     3     4   ar
    10     4     8    1
    11     8     9    1
    12     9    10    1
    13    10    11    1
    14    11    14    1
    15    14    15    1
    16    15    16    1
    17    16    17   ar
    18    17    18   ar
    19    18    19   ar
    20    19    20   ar
    21    20    22    1
    22    22    23    2
    23    22    24    1
    24    20    21   ar
    25    11    12    1
    26    12    13    1
    27     4     5   ar
    28     5     6   ar
    29     6     7    1
    30    32    33   ar
    31    33    34   ar
    32    34    35   ar
    33    35    36   ar
    34    36    37   ar
    35    37    40    1
    36    40    41   ar
    37    41    42   ar
    38    42    43   ar
    39    43    44   ar
    40    44    45   ar
    41    37    38   ar
    42    38    39   ar
    43    39    31   ar
    44     6     1   ar
    45    39    34   ar
    46    13     8    1
    47    45    40   ar
    48    21    16   ar
    49    28    29    1
    50    24    25    1
@<TRIPOS>MOLECULE
*****
 45 50 0 0 0
SMALL
GASTEIGER

@<TRIPOS>ATOM
      1 C           8.2662   77.7456   23.3869 C.ar    1  UNL1        0.0751
      2 C           8.8860   78.9569   23.0455 C.ar    1  UNL1        0.0196
      3 C          10.0960   79.3199   23.6375 C.ar    1  UNL1        0.0356
      4 C          10.6987   78.4596   24.5693 C.ar    1  UNL1        0.1323
      5 N          10.0832   77.2836   24.8746 N.ar    1  UNL1       -0.2227
      6 C           8.9061   76.9037   24.3123 C.ar    1  UNL1        0.1301
      7 BR          8.1457   75.2293   24.8394 Br      1  UNL1       -0.0267
      8 N          11.9614   78.7897   25.1877 N.pl3   1  UNL1       -0.2932
      9 C          12.8369   79.8254   24.6131 C.3     1  UNL1        0.0923
     10 C          14.3095   79.5953   24.9993 C.3     1  UNL1        0.0252
     11 C          14.6537   78.0900   25.0391 C.3     1  UNL1        0.0472
     12 C          13.7673   77.3469   26.0768 C.3     1  UNL1        0.0252
     13 C          12.4312   78.0525   26.3683 C.3     1  UNL1        0.0923
     14 C          14.5775   77.4704   23.6249 C.3     1  UNL1        0.2054
     15 O          13.9700   76.1758   23.6588 O.3     1  UNL1       -0.4755
     16 C          12.7967   75.7777   22.9916 C.ar    1  UNL1        0.1388
     17 C          12.0892   76.6117   22.1022 C.ar    1  UNL1        0.0369
     18 C          10.9383   76.1445   21.4660 C.ar    1  UNL1        0.0033
     19 C          10.4747   74.8511   21.7093 C.ar    1  UNL1        0.0066
     20 C          11.1539   74.0079   22.6050 C.ar    1  UNL1        0.0785
     21 C          12.3199   74.4824   23.2339 C.ar    1  UNL1        0.0433
     22 C          10.6504   72.6354   22.8556 C.2     1  UNL1        0.3381
     23 O          11.3644   71.8141   23.4903 O.2     1  UNL1       -0.2451
     24 O           9.4044   72.2138   22.3926 O.3     1  UNL1       -0.4771
     25 H           8.8255   72.7830   21.7889 H       1  UNL1        0.2954
     26 C           6.9259   77.0249   21.3610 C.2     1  UNL1        0.2840
     27 O           7.9468   77.0323   20.6223 O.2     1  UNL1       -0.2665
     28 N           7.0384   77.3396   22.7595 N.am    1  UNL1       -0.2763
     29 H           6.1868   77.2840   23.3587 H       1  UNL1        0.1553
     30 C           4.9293   74.6450   22.2686 C.3     1  UNL1        0.0345
     31 C           4.7739   75.6195   21.1408 C.ar    1  UNL1        0.0202
     32 C           5.6299   76.6613   20.7624 C.ar    1  UNL1        0.1946
     33 O           5.1030   77.3357   19.7556 O.2     1  UNL1       -0.4492
     34 C           3.9620   76.7702   19.4454 C.ar    1  UNL1        0.1452
     35 C           3.0757   77.1481   18.4427 C.ar    1  UNL1        0.0375
     36 C           1.8983   76.3960   18.2848 C.ar    1  UNL1        0.0031
     37 C           1.6254   75.2839   19.1270 C.ar    1  UNL1        0.0002
     38 C           2.5545   74.9339   20.1362 C.ar    1  UNL1        0.0028
     39 C           3.7124   75.7015   20.2624 C.ar    1  UNL1        0.0337
     40 C           0.3787   74.4967   18.9511 C.ar    1  UNL1        0.0000
     41 C          -0.8640   75.1446   18.8158 C.ar    1  UNL1        0.0000
     42 C          -2.0364   74.4006   18.6514 C.ar    1  UNL1        0.0000
     43 C          -1.9827   73.0054   18.6193 C.ar    1  UNL1        0.0000
     44 C          -0.7563   72.3508   18.7522 C.ar    1  UNL1        0.0000
     45 C           0.4193   73.0897   18.9179 C.ar    1  UNL1        0.0000
@<TRIPOS>BOND
     1    30    31    1
     2    31    32   ar
     3    32    26    1
     4    26    27    2
     5    26    28   am
     6    28     1    1
     7     1     2   ar
     8     2     3   ar
     9     3     4   ar
    10     4     8    1
    11     8     9    1
    12     9    10    1
    13    10    11    1
    14    11    14    1
    15    14    15    1
    16    15    16    1
    17    16    17   ar
    18    17    18   ar
    19    18    19   ar
    20    19    20   ar
    21    20    22    1
    22    22    23    2
    23    22    24    1
    24    20    21   ar
    25    11    12    1
    26    12    13    1
    27     4     5   ar
    28     5     6   ar
    29     6     7    1
    30    32    33   ar
    31    33    34   ar
    32    34    35   ar
    33    35    36   ar
    34    36    37   ar
    35    37    40    1
    36    40    41   ar
    37    41    42   ar
    38    42    43   ar
    39    43    44   ar
    40    44    45   ar
    41    37    38   ar
    42    38    39   ar
    43    39    31   ar
    44     6     1   ar
    45    39    34   ar
    46    13     8    1
    47    45    40   ar
    48    21    16   ar
    49    28    29    1
    50    24    25    1
@<TRIPOS>MOLECULE
*****
 45 50 0 0 0
SMALL
GASTEIGER

@<TRIPOS>ATOM
      1 C          13.1833   83.5439   24.9330 C.ar    1  UNL1        0.0751
      2 C          13.2665   84.0841   23.6411 C.ar    1  UNL1        0.0196
      3 C          14.0083   85.2427   23.4089 C.ar    1  UNL1        0.0356
      4 C          14.6834   85.8600   24.4742 C.ar    1  UNL1        0.1323
      5 N          14.5969   85.3089   25.7167 N.ar    1  UNL1       -0.2227
      6 C          13.8839   84.1808   25.9713 C.ar    1  UNL1        0.1301
      7 BR         13.8388   83.5197   27.7659 Br      1  UNL1       -0.0267
      8 N          15.4787   87.0480   24.2704 N.pl3   1  UNL1       -0.2932
      9 C          14.9632   88.3763   24.6437 C.3     1  UNL1        0.0923
     10 C          15.6282   89.4913   23.8158 C.3     1  UNL1        0.0252
     11 C          15.8880   89.0363   22.3627 C.3     1  UNL1        0.0472
     12 C          16.8236   87.7960   22.3300 C.3     1  UNL1        0.0252
     13 C          16.7956   86.9648   23.6246 C.3     1  UNL1        0.0923
     14 C          14.5566   88.8093   21.6106 C.3     1  UNL1        0.2054
     15 O          14.7856   88.2891   20.2980 O.3     1  UNL1       -0.4755
     16 C          14.2726   87.0922   19.7645 C.ar    1  UNL1        0.1388
     17 C          12.8948   86.8457   19.5965 C.ar    1  UNL1        0.0369
     18 C          12.4587   85.6386   19.0484 C.ar    1  UNL1        0.0033
     19 C          13.3816   84.6635   18.6681 C.ar    1  UNL1        0.0066
     20 C          14.7590   84.8802   18.8421 C.ar    1  UNL1        0.0785
     21 C          15.1913   86.1044   19.3849 C.ar    1  UNL1        0.0433
     22 C          15.7297   83.8353   18.4345 C.2     1  UNL1        0.3381
     23 O          16.2197   83.8562   17.2741 O.2     1  UNL1       -0.2451
     24 O          16.1106   82.8090   19.2984 O.3     1  UNL1       -0.4771
     25 H          15.6805   82.6699   20.2034 H       1  UNL1        0.2954
     26 C          12.9958   81.0171   24.9638 C.2     1  UNL1        0.2840
     27 O          14.1918   80.8753   24.5932 O.2     1  UNL1       -0.2665
     28 N          12.4537   82.3309   25.1826 N.am    1  UNL1       -0.2763
     29 H          11.4750   82.4206   25.5312 H       1  UNL1        0.1553
     30 C          10.2338   80.1885   23.4946 C.3     1  UNL1        0.0345
     31 C          10.9783   79.4583   24.5709 C.ar    1  UNL1        0.0202
     32 C          12.1840   79.8091   25.1910 C.ar    1  UNL1        0.1946
     33 O          12.5440   78.8666   26.0443 O.2     1  UNL1       -0.4492
     34 C          11.6222   77.9350   26.0279 C.ar    1  UNL1        0.1452
     35 C          11.5915   76.7621   26.7742 C.ar    1  UNL1        0.0375
     36 C          10.4993   75.8948   26.5958 C.ar    1  UNL1        0.0031
     37 C           9.4601   76.2105   25.6789 C.ar    1  UNL1        0.0002
     38 C           9.5310   77.4150   24.9383 C.ar    1  UNL1        0.0028
     39 C          10.6282   78.2518   25.1427 C.ar    1  UNL1        0.0337
     40 C           8.3113   75.2871   25.4987 C.ar    1  UNL1        0.0000
     41 C           7.4949   74.9383   26.5915 C.ar    1  UNL1        0.0000
     42 C           6.4144   74.0676   26.4189 C.ar    1  UNL1        0.0000
     43 C           6.1362   73.5370   25.1574 C.ar    1  UNL1        0.0000
     44 C           6.9382   73.8754   24.0654 C.ar    1  UNL1        0.0000
     45 C           8.0206   74.7448   24.2323 C.ar    1  UNL1        0.0000
@<TRIPOS>BOND
     1    30    31    1
     2    31    32   ar
     3    32    26    1
     4    26    27    2
     5    26    28   am
     6    28     1    1
     7     1     2   ar
     8     2     3   ar
     9     3     4   ar
    10     4     8    1
    11     8     9    1
    12     9    10    1
    13    10    11    1
    14    11    14    1
    15    14    15    1
    16    15    16    1
    17    16    17   ar
    18    17    18   ar
    19    18    19   ar
    20    19    20   ar
    21    20    22    1
    22    22    23    2
    23    22    24    1
    24    20    21   ar
    25    11    12    1
    26    12    13    1
    27     4     5   ar
    28     5     6   ar
    29     6     7    1
    30    32    33   ar
    31    33    34   ar
    32    34    35   ar
    33    35    36   ar
    34    36    37   ar
    35    37    40    1
    36    40    41   ar
    37    41    42   ar
    38    42    43   ar
    39    43    44   ar
    40    44    45   ar
    41    37    38   ar
    42    38    39   ar
    43    39    31   ar
    44     6     1   ar
    45    39    34   ar
    46    13     8    1
    47    45    40   ar
    48    21    16   ar
    49    28    29    1
    50    24    25    1
@<TRIPOS>MOLECULE
*****
 45 50 0 0 0
SMALL
GASTEIGER

@<TRIPOS>ATOM
      1 C          13.6306   83.0307   25.9576 C.ar    1  UNL1        0.0751
      2 C          13.8227   83.0915   27.3458 C.ar    1  UNL1        0.0196
      3 C          14.1682   84.2973   27.9566 C.ar    1  UNL1        0.0356
      4 C          14.3105   85.4554   27.1754 C.ar    1  UNL1        0.1323
      5 N          14.1066   85.3728   25.8314 N.ar    1  UNL1       -0.2227
      6 C          13.7675   84.2128   25.2104 C.ar    1  UNL1        0.1301
      7 BR         13.5207   84.2359   23.3135 Br      1  UNL1       -0.0267
      8 N          14.6460   86.7267   27.7730 N.pl3   1  UNL1       -0.2932
      9 C          13.7372   87.3734   28.7348 C.3     1  UNL1        0.0923
     10 C          13.9372   88.8999   28.7593 C.3     1  UNL1        0.0252
     11 C          14.2468   89.4509   27.3500 C.3     1  UNL1        0.0472
     12 C          15.5413   88.8099   26.7771 C.3     1  UNL1        0.0252
     13 C          15.8726   87.4353   27.3840 C.3     1  UNL1        0.0923
     14 C          13.0266   89.2880   26.4149 C.3     1  UNL1        0.2054
     15 O          13.1691   88.1406   25.5727 O.3     1  UNL1       -0.4755
     16 C          13.3196   88.1355   24.1736 C.ar    1  UNL1        0.1388
     17 C          12.2941   88.5100   23.2818 C.ar    1  UNL1        0.0369
     18 C          12.5195   88.4924   21.9046 C.ar    1  UNL1        0.0033
     19 C          13.7587   88.0983   21.3987 C.ar    1  UNL1        0.0066
     20 C          14.7902   87.7044   22.2678 C.ar    1  UNL1        0.0785
     21 C          14.5588   87.7357   23.6555 C.ar    1  UNL1        0.0433
     22 C          16.1027   87.2870   21.7173 C.2     1  UNL1        0.3381
     23 O          16.5940   86.1751   22.0480 O.2     1  UNL1       -0.2451
     24 O          16.8273   88.1013   20.8474 O.3     1  UNL1       -0.4771
     25 H          16.5451   89.0465   20.6225 H       1  UNL1        0.2954
     26 C          11.8738   81.3665   25.2061 C.2     1  UNL1        0.2840
     27 O          10.9346   82.0957   25.6235 O.2     1  UNL1       -0.2665
     28 N          13.2388   81.8048   25.3174 N.am    1  UNL1       -0.2763
     29 H          13.9949   81.2033   24.9252 H       1  UNL1        0.1553
     30 C          13.2719   78.4942   25.7252 C.3     1  UNL1        0.0345
     31 C          12.1519   78.8358   24.7899 C.ar    1  UNL1        0.0202
     32 C          11.5353   80.0759   24.5818 C.ar    1  UNL1        0.1946
     33 O          10.5410   79.9471   23.7210 O.2     1  UNL1       -0.4492
     34 C          10.4967   78.6933   23.3416 C.ar    1  UNL1        0.1452
     35 C           9.6104   78.1130   22.4407 C.ar    1  UNL1        0.0375
     36 C           9.7414   76.7378   22.1792 C.ar    1  UNL1        0.0031
     37 C          10.7502   75.9671   22.8185 C.ar    1  UNL1        0.0002
     38 C          11.6314   76.5975   23.7298 C.ar    1  UNL1        0.0028
     39 C          11.4729   77.9636   23.9633 C.ar    1  UNL1        0.0337
     40 C          10.8793   74.5153   22.5346 C.ar    1  UNL1        0.0000
     41 C           9.7443   73.6821   22.5349 C.ar    1  UNL1        0.0000
     42 C           9.8692   72.3152   22.2683 C.ar    1  UNL1        0.0000
     43 C          11.1242   71.7653   21.9981 C.ar    1  UNL1        0.0000
     44 C          12.2577   72.5811   21.9946 C.ar    1  UNL1        0.0000
     45 C          12.1389   73.9486   22.2615 C.ar    1  UNL1        0.0000
@<TRIPOS>BOND
     1    30    31    1
     2    31    32   ar
     3    32    26    1
     4    26    27    2
     5    26    28   am
     6    28     1    1
     7     1     2   ar
     8     2     3   ar
     9     3     4   ar
    10     4     8    1
    11     8     9    1
    12     9    10    1
    13    10    11    1
    14    11    14    1
    15    14    15    1
    16    15    16    1
    17    16    17   ar
    18    17    18   ar
    19    18    19   ar
    20    19    20   ar
    21    20    22    1
    22    22    23    2
    23    22    24    1
    24    20    21   ar
    25    11    12    1
    26    12    13    1
    27     4     5   ar
    28     5     6   ar
    29     6     7    1
    30    32    33   ar
    31    33    34   ar
    32    34    35   ar
    33    35    36   ar
    34    36    37   ar
    35    37    40    1
    36    40    41   ar
    37    41    42   ar
    38    42    43   ar
    39    43    44   ar
    40    44    45   ar
    41    37    38   ar
    42    38    39   ar
    43    39    31   ar
    44     6     1   ar
    45    39    34   ar
    46    13     8    1
    47    45    40   ar
    48    21    16   ar
    49    28    29    1
    50    24    25    1
@<TRIPOS>MOLECULE
*****
 45 50 0 0 0
SMALL
GASTEIGER

@<TRIPOS>ATOM
      1 C          11.8870   81.1005   25.1816 C.ar    1  UNL1        0.0751
      2 C          11.3311   82.3805   25.0391 C.ar    1  UNL1        0.0196
      3 C          12.1256   83.4513   24.6283 C.ar    1  UNL1        0.0356
      4 C          13.4843   83.2390   24.3450 C.ar    1  UNL1        0.1323
      5 N          13.9972   81.9845   24.4792 N.ar    1  UNL1       -0.2227
      6 C          13.2468   80.9233   24.8752 C.ar    1  UNL1        0.1301
      7 BR         14.0972   79.2168   25.0319 Br      1  UNL1       -0.0267
      8 N          14.3344   84.3171   23.8968 N.pl3   1  UNL1       -0.2932
      9 C          14.3436   85.6134   24.5959 C.3     1  UNL1        0.0923
     10 C          14.7816   86.7547   23.6597 C.3     1  UNL1        0.0252
     11 C          14.2481   86.5440   22.2255 C.3     1  UNL1        0.0472
     12 C          14.7756   85.2096   21.6292 C.3     1  UNL1        0.0252
     13 C          15.1613   84.1659   22.6920 C.3     1  UNL1        0.0923
     14 C          12.7065   86.6546   22.1899 C.3     1  UNL1        0.2054
     15 O          12.2026   86.4432   20.8680 O.3     1  UNL1       -0.4755
     16 C          12.1419   87.3892   19.8280 C.ar    1  UNL1        0.1388
     17 C          11.1914   88.4292   19.7799 C.ar    1  UNL1        0.0369
     18 C          11.1990   89.3396   18.7222 C.ar    1  UNL1        0.0033
     19 C          12.1426   89.2248   17.7007 C.ar    1  UNL1        0.0066
     20 C          13.0887   88.1861   17.7187 C.ar    1  UNL1        0.0785
     21 C          13.0818   87.2789   18.7944 C.ar    1  UNL1        0.0433
     22 C          14.0861   88.0746   16.6265 C.2     1  UNL1        0.3381
     23 O          14.1901   86.9966   15.9828 O.2     1  UNL1       -0.2451
     24 O          14.9337   89.1312   16.2947 O.3     1  UNL1       -0.4771
     25 H          14.9780   89.9854   16.8349 H       1  UNL1        0.2954
     26 C           9.9084   79.5542   24.8427 C.2     1  UNL1        0.2840
     27 O           9.5811   80.1286   23.7699 O.2     1  UNL1       -0.2665
     28 N          11.0747   79.9795   25.5684 N.am    1  UNL1       -0.2763
     29 H          11.3494   79.4602   26.4299 H       1  UNL1        0.1553
     30 C           8.2722   79.3312   27.6261 C.3     1  UNL1        0.0345
     31 C           8.3930   78.3202   26.5266 C.ar    1  UNL1        0.0202
     32 C           9.0853   78.4270   25.3140 C.ar    1  UNL1        0.1946
     33 O           8.8911   77.3416   24.5858 O.2     1  UNL1       -0.4492
     34 C           8.1292   76.5264   25.2734 C.ar    1  UNL1        0.1452
     35 C           7.6780   75.2672   24.8930 C.ar    1  UNL1        0.0375
     36 C           6.8608   74.5597   25.7921 C.ar    1  UNL1        0.0031
     37 C           6.5081   75.1181   27.0508 C.ar    1  UNL1        0.0002
     38 C           6.9885   76.4037   27.3981 C.ar    1  UNL1        0.0028
     39 C           7.7983   77.0754   26.4822 C.ar    1  UNL1        0.0337
     40 C           5.6444   74.3617   27.9926 C.ar    1  UNL1        0.0000
     41 C           5.3440   73.0065   27.7573 C.ar    1  UNL1        0.0000
     42 C           4.5295   72.2971   28.6453 C.ar    1  UNL1        0.0000
     43 C           4.0074   72.9296   29.7757 C.ar    1  UNL1        0.0000
     44 C           4.2981   74.2734   30.0204 C.ar    1  UNL1        0.0000
     45 C           5.1113   74.9881   29.1353 C.ar    1  UNL1        0.0000
@<TRIPOS>BOND
     1    30    31    1
     2    31    32   ar
     3    32    26    1
     4    26    27    2
     5    26    28   am
     6    28     1    1
     7     1     2   ar
     8     2     3   ar
     9     3     4   ar
    10     4     8    1
    11     8     9    1
    12     9    10    1
    13    10    11    1
    14    11    14    1
    15    14    15    1
    16    15    16    1
    17    16    17   ar
    18    17    18   ar
    19    18    19   ar
    20    19    20   ar
    21    20    22    1
    22    22    23    2
    23    22    24    1
    24    20    21   ar
    25    11    12    1
    26    12    13    1
    27     4     5   ar
    28     5     6   ar
    29     6     7    1
    30    32    33   ar
    31    33    34   ar
    32    34    35   ar
    33    35    36   ar
    34    36    37   ar
    35    37    40    1
    36    40    41   ar
    37    41    42   ar
    38    42    43   ar
    39    43    44   ar
    40    44    45   ar
    41    37    38   ar
    42    38    39   ar
    43    39    31   ar
    44     6     1   ar
    45    39    34   ar
    46    13     8    1
    47    45    40   ar
    48    21    16   ar
    49    28    29    1
    50    24    25    1
@<TRIPOS>MOLECULE
*****
 45 50 0 0 0
SMALL
GASTEIGER

@<TRIPOS>ATOM
      1 C           9.6638   79.7157   24.3274 C.ar    1  UNL1        0.0751
      2 C           9.2466   79.1146   23.1305 C.ar    1  UNL1        0.0196
      3 C           8.4695   77.9563   23.1580 C.ar    1  UNL1        0.0356
      4 C           8.0950   77.4006   24.3920 C.ar    1  UNL1        0.1323
      5 N           8.5024   78.0101   25.5398 N.ar    1  UNL1       -0.2227
      6 C           9.2577   79.1395   25.5430 C.ar    1  UNL1        0.1301
      7 BR          9.7691   79.8862   27.2284 Br      1  UNL1       -0.0267
      8 N           7.2735   76.2149   24.4623 N.pl3   1  UNL1       -0.2932
      9 C           7.8752   74.8910   24.6963 C.3     1  UNL1        0.0923
     10 C           6.9923   73.7635   24.1304 C.3     1  UNL1        0.0252
     11 C           6.3121   74.1884   22.8103 C.3     1  UNL1        0.0472
     12 C           5.4108   75.4354   23.0285 C.3     1  UNL1        0.0252
     13 C           5.8242   76.2947   24.2361 C.3     1  UNL1        0.0923
     14 C           7.3593   74.3878   21.6907 C.3     1  UNL1        0.2054
     15 O           8.3050   73.3148   21.6693 O.3     1  UNL1       -0.4755
     16 C           9.6329   73.3525   22.1335 C.ar    1  UNL1        0.1388
     17 C          10.4468   72.2074   22.2496 C.ar    1  UNL1        0.0369
     18 C          11.7605   72.3224   22.7065 C.ar    1  UNL1        0.0033
     19 C          12.2773   73.5699   23.0582 C.ar    1  UNL1        0.0066
     20 C          11.4791   74.7228   22.9670 C.ar    1  UNL1        0.0785
     21 C          10.1592   74.6001   22.4946 C.ar    1  UNL1        0.0433
     22 C          12.0401   76.0429   23.3445 C.2     1  UNL1        0.3381
     23 O          13.0507   76.4888   22.7387 O.2     1  UNL1       -0.2451
     24 O          11.4889   76.8093   24.3710 O.3     1  UNL1       -0.4771
     25 H          10.7457   76.4690   24.9671 H       1  UNL1        0.2954
     26 C          11.8340   80.9859   24.6391 C.2     1  UNL1        0.2840
     27 O          12.4734   79.9290   24.8885 O.2     1  UNL1       -0.2665
     28 N          10.4337   80.9294   24.3172 N.am    1  UNL1       -0.2763
     29 H           9.9369   81.8128   24.0718 H       1  UNL1        0.1553
     30 C          13.1206   82.4858   27.2021 C.3     1  UNL1        0.0345
     31 C          13.1012   82.9274   25.7702 C.ar    1  UNL1        0.0202
     32 C          12.5613   82.2668   24.6597 C.ar    1  UNL1        0.1946
     33 O          12.8082   82.9564   23.5598 O.2     1  UNL1       -0.4492
     34 C          13.4584   84.0416   23.9024 C.ar    1  UNL1        0.1452
     35 C          13.9138   85.0545   23.0655 C.ar    1  UNL1        0.0375
     36 C          14.5970   86.1358   23.6494 C.ar    1  UNL1        0.0031
     37 C          14.8141   86.1882   25.0532 C.ar    1  UNL1        0.0002
     38 C          14.3345   85.1352   25.8689 C.ar    1  UNL1        0.0028
     39 C          13.6596   84.0799   25.2552 C.ar    1  UNL1        0.0337
     40 C          15.5369   87.3351   25.6590 C.ar    1  UNL1        0.0000
     41 C          16.6348   87.9190   24.9985 C.ar    1  UNL1        0.0000
     42 C          17.3141   88.9983   25.5721 C.ar    1  UNL1        0.0000
     43 C          16.9067   89.5067   26.8073 C.ar    1  UNL1        0.0000
     44 C          15.8191   88.9365   27.4725 C.ar    1  UNL1        0.0000
     45 C          15.1366   87.8564   26.9042 C.ar    1  UNL1        0.0000
@<TRIPOS>BOND
     1    30    31    1
     2    31    32   ar
     3    32    26    1
     4    26    27    2
     5    26    28   am
     6    28     1    1
     7     1     2   ar
     8     2     3   ar
     9     3     4   ar
    10     4     8    1
    11     8     9    1
    12     9    10    1
    13    10    11    1
    14    11    14    1
    15    14    15    1
    16    15    16    1
    17    16    17   ar
    18    17    18   ar
    19    18    19   ar
    20    19    20   ar
    21    20    22    1
    22    22    23    2
    23    22    24    1
    24    20    21   ar
    25    11    12    1
    26    12    13    1
    27     4     5   ar
    28     5     6   ar
    29     6     7    1
    30    32    33   ar
    31    33    34   ar
    32    34    35   ar
    33    35    36   ar
    34    36    37   ar
    35    37    40    1
    36    40    41   ar
    37    41    42   ar
    38    42    43   ar
    39    43    44   ar
    40    44    45   ar
    41    37    38   ar
    42    38    39   ar
    43    39    31   ar
    44     6     1   ar
    45    39    34   ar
    46    13     8    1
    47    45    40   ar
    48    21    16   ar
    49    28    29    1
    50    24    25    1
@<TRIPOS>MOLECULE
*****
 45 50 0 0 0
SMALL
GASTEIGER

@<TRIPOS>ATOM
      1 C          13.1252   83.1606   24.4098 C.ar    1  UNL1        0.0751
      2 C          13.0577   84.2445   23.5220 C.ar    1  UNL1        0.0196
      3 C          13.5773   85.4868   23.8870 C.ar    1  UNL1        0.0356
      4 C          14.1811   85.6444   25.1448 C.ar    1  UNL1        0.1323
      5 N          14.2452   84.5734   25.9838 N.ar    1  UNL1       -0.2227
      6 C          13.7495   83.3521   25.6540 C.ar    1  UNL1        0.1301
      7 BR         13.8972   81.9361   26.9318 Br      1  UNL1       -0.0267
      8 N          14.7496   86.9084   25.5509 N.pl3   1  UNL1       -0.2932
      9 C          13.9296   87.9201   26.2390 C.3     1  UNL1        0.0923
     10 C          14.4872   89.3389   26.0223 C.3     1  UNL1        0.0252
     11 C          15.0625   89.5075   24.5988 C.3     1  UNL1        0.0472
     12 C          16.2164   88.4982   24.3450 C.3     1  UNL1        0.0252
     13 C          16.1438   87.2397   25.2274 C.3     1  UNL1        0.0923
     14 C          13.9409   89.4228   23.5382 C.3     1  UNL1        0.2054
     15 O          14.4152   88.8217   22.3299 O.3     1  UNL1       -0.4755
     16 C          13.6692   88.0406   21.4280 C.ar    1  UNL1        0.1388
     17 C          12.3273   88.3123   21.0924 C.ar    1  UNL1        0.0369
     18 C          11.6532   87.5002   20.1793 C.ar    1  UNL1        0.0033
     19 C          12.2990   86.4095   19.5958 C.ar    1  UNL1        0.0066
     20 C          13.6308   86.1093   19.9283 C.ar    1  UNL1        0.0785
     21 C          14.3073   86.9395   20.8412 C.ar    1  UNL1        0.0433
     22 C          14.3058   84.9466   19.3016 C.2     1  UNL1        0.3381
     23 O          13.7957   84.3997   18.2878 O.2     1  UNL1       -0.2451
     24 O          15.4926   84.4225   19.8130 O.3     1  UNL1       -0.4771
     25 H          15.9011   84.7430   20.6813 H       1  UNL1        0.2954
     26 C          11.3738   81.3313   24.4944 C.2     1  UNL1        0.2840
     27 O          10.6102   82.0286   25.2146 O.2     1  UNL1       -0.2665
     28 N          12.6277   81.8650   24.0355 N.am    1  UNL1       -0.2763
     29 H          13.2218   81.2847   23.4049 H       1  UNL1        0.1553
     30 C          13.0375   78.5698   24.7770 C.3     1  UNL1        0.0345
     31 C          11.6629   78.7827   24.2194 C.ar    1  UNL1        0.0202
     32 C          10.9372   79.9761   24.1167 C.ar    1  UNL1        0.1946
     33 O           9.7339   79.7323   23.6281 O.2     1  UNL1       -0.4492
     34 C           9.6504   78.4470   23.3857 C.ar    1  UNL1        0.1452
     35 C           8.5647   77.7537   22.8620 C.ar    1  UNL1        0.0375
     36 C           8.6916   76.3646   22.6854 C.ar    1  UNL1        0.0031
     37 C           9.8949   75.6926   23.0335 C.ar    1  UNL1        0.0002
     38 C          10.9759   76.4366   23.5646 C.ar    1  UNL1        0.0028
     39 C          10.8147   77.8130   23.7240 C.ar    1  UNL1        0.0337
     40 C          10.0178   74.2252   22.8427 C.ar    1  UNL1        0.0000
     41 C           8.8995   73.4558   22.4687 C.ar    1  UNL1        0.0000
     42 C           9.0180   72.0739   22.2908 C.ar    1  UNL1        0.0000
     43 C          10.2504   71.4455   22.4825 C.ar    1  UNL1        0.0000
     44 C          11.3672   72.1975   22.8534 C.ar    1  UNL1        0.0000
     45 C          11.2543   73.5796   23.0337 C.ar    1  UNL1        0.0000
@<TRIPOS>BOND
     1    30    31    1
     2    31    32   ar
     3    32    26    1
     4    26    27    2
     5    26    28   am
     6    28     1    1
     7     1     2   ar
     8     2     3   ar
     9     3     4   ar
    10     4     8    1
    11     8     9    1
    12     9    10    1
    13    10    11    1
    14    11    14    1
    15    14    15    1
    16    15    16    1
    17    16    17   ar
    18    17    18   ar
    19    18    19   ar
    20    19    20   ar
    21    20    22    1
    22    22    23    2
    23    22    24    1
    24    20    21   ar
    25    11    12    1
    26    12    13    1
    27     4     5   ar
    28     5     6   ar
    29     6     7    1
    30    32    33   ar
    31    33    34   ar
    32    34    35   ar
    33    35    36   ar
    34    36    37   ar
    35    37    40    1
    36    40    41   ar
    37    41    42   ar
    38    42    43   ar
    39    43    44   ar
    40    44    45   ar
    41    37    38   ar
    42    38    39   ar
    43    39    31   ar
    44     6     1   ar
    45    39    34   ar
    46    13     8    1
    47    45    40   ar
    48    21    16   ar
    49    28    29    1
    50    24    25    1
@<TRIPOS>MOLECULE
*****
 45 50 0 0 0
SMALL
GASTEIGER

@<TRIPOS>ATOM
      1 C           9.9872   79.9306   23.8174 C.ar    1  UNL1        0.0751
      2 C           9.7072   79.5142   22.5075 C.ar    1  UNL1        0.0196
      3 C           8.9965   78.3353   22.2802 C.ar    1  UNL1        0.0356
      4 C           8.5505   77.5723   23.3713 C.ar    1  UNL1        0.1323
      5 N           8.8245   78.0045   24.6335 N.ar    1  UNL1       -0.2227
      6 C           9.5124   79.1490   24.8843 C.ar    1  UNL1        0.1301
      7 BR          9.8366   79.6338   26.7062 Br      1  UNL1       -0.0267
      8 N           7.7936   76.3577   23.1778 N.pl3   1  UNL1       -0.2932
      9 C           6.3216   76.3831   23.1328 C.3     1  UNL1        0.0923
     10 C           5.7223   75.0259   23.5448 C.3     1  UNL1        0.0252
     11 C           6.5465   74.3640   24.6710 C.3     1  UNL1        0.0472
     12 C           8.0114   74.1190   24.2141 C.3     1  UNL1        0.0252
     13 C           8.4740   75.0589   23.0871 C.3     1  UNL1        0.0923
     14 C           6.4500   75.1835   25.9783 C.3     1  UNL1        0.2054
     15 O           6.1554   74.3416   27.0966 O.3     1  UNL1       -0.4755
     16 C           6.0797   74.7301   28.4470 C.ar    1  UNL1        0.1388
     17 C           6.9914   74.2966   29.4311 C.ar    1  UNL1        0.0369
     18 C           6.8617   74.7334   30.7502 C.ar    1  UNL1        0.0033
     19 C           5.8256   75.5972   31.1075 C.ar    1  UNL1        0.0066
     20 C           4.8950   76.0287   30.1472 C.ar    1  UNL1        0.0785
     21 C           5.0393   75.5929   28.8170 C.ar    1  UNL1        0.0433
     22 C           3.7979   76.9464   30.5400 C.2     1  UNL1        0.3381
     23 O           2.6001   76.6067   30.3477 O.2     1  UNL1       -0.2451
     24 O           4.0518   78.1946   31.1077 O.3     1  UNL1       -0.4771
     25 H           4.9852   78.5750   31.1942 H       1  UNL1        0.2954
     26 C          12.0883   81.2299   24.3815 C.2     1  UNL1        0.2840
     27 O          12.7926   80.1849   24.3825 O.2     1  UNL1       -0.2665
     28 N          10.6862   81.1610   24.0697 N.am    1  UNL1       -0.2763
     29 H          10.1342   82.0448   24.0325 H       1  UNL1        0.1553
     30 C          12.9406   82.3879   27.2808 C.3     1  UNL1        0.0345
     31 C          13.0930   83.0280   25.9344 C.ar    1  UNL1        0.0202
     32 C          12.7415   82.5162   24.6791 C.ar    1  UNL1        0.1946
     33 O          13.1002   83.3624   23.7297 O.2     1  UNL1       -0.4492
     34 C          13.6434   84.4070   24.3056 C.ar    1  UNL1        0.1452
     35 C          14.1569   85.5420   23.6875 C.ar    1  UNL1        0.0375
     36 C          14.7004   86.5493   24.5042 C.ar    1  UNL1        0.0031
     37 C          14.7230   86.4079   25.9184 C.ar    1  UNL1        0.0002
     38 C          14.1904   85.2356   26.5067 C.ar    1  UNL1        0.0028
     39 C          13.6579   84.2584   25.6656 C.ar    1  UNL1        0.0337
     40 C          15.2994   87.4783   26.7710 C.ar    1  UNL1        0.0000
     41 C          16.3186   88.3153   26.2780 C.ar    1  UNL1        0.0000
     42 C          16.8603   89.3216   27.0837 C.ar    1  UNL1        0.0000
     43 C          16.3921   89.5047   28.3866 C.ar    1  UNL1        0.0000
     44 C          15.3814   88.6813   28.8873 C.ar    1  UNL1        0.0000
     45 C          14.8367   87.6726   28.0865 C.ar    1  UNL1        0.0000
@<TRIPOS>BOND
     1    30    31    1
     2    31    32   ar
     3    32    26    1
     4    26    27    2
     5    26    28   am
     6    28     1    1
     7     1     2   ar
     8     2     3   ar
     9     3     4   ar
    10     4     8    1
    11     8     9    1
    12     9    10    1
    13    10    11    1
    14    11    14    1
    15    14    15    1
    16    15    16    1
    17    16    17   ar
    18    17    18   ar
    19    18    19   ar
    20    19    20   ar
    21    20    22    1
    22    22    23    2
    23    22    24    1
    24    20    21   ar
    25    11    12    1
    26    12    13    1
    27     4     5   ar
    28     5     6   ar
    29     6     7    1
    30    32    33   ar
    31    33    34   ar
    32    34    35   ar
    33    35    36   ar
    34    36    37   ar
    35    37    40    1
    36    40    41   ar
    37    41    42   ar
    38    42    43   ar
    39    43    44   ar
    40    44    45   ar
    41    37    38   ar
    42    38    39   ar
    43    39    31   ar
    44     6     1   ar
    45    39    34   ar
    46    13     8    1
    47    45    40   ar
    48    21    16   ar
    49    28    29    1
    50    24    25    1
@<TRIPOS>MOLECULE
*****
 45 50 0 0 0
SMALL
GASTEIGER

@<TRIPOS>ATOM
      1 C          13.9516   82.9947   26.4387 C.ar    1  UNL1        0.0751
      2 C          14.1450   83.1506   27.8192 C.ar    1  UNL1        0.0196
      3 C          14.2948   84.4237   28.3698 C.ar    1  UNL1        0.0356
      4 C          14.2381   85.5518   27.5357 C.ar    1  UNL1        0.1323
      5 N          14.0370   85.3745   26.2003 N.ar    1  UNL1       -0.2227
      6 C          13.8859   84.1472   25.6375 C.ar    1  UNL1        0.1301
      7 BR         13.6197   84.0413   23.7460 Br      1  UNL1       -0.0267
      8 N          14.3673   86.8872   28.0703 N.pl3   1  UNL1       -0.2932
      9 C          13.1907   87.7616   28.2131 C.3     1  UNL1        0.0923
     10 C          13.5879   89.2490   28.1847 C.3     1  UNL1        0.0252
     11 C          14.7463   89.5046   27.1954 C.3     1  UNL1        0.0472
     12 C          16.0042   88.6830   27.5918 C.3     1  UNL1        0.0252
     13 C          15.6872   87.4272   28.4226 C.3     1  UNL1        0.0923
     14 C          14.2927   89.2512   25.7394 C.3     1  UNL1        0.2054
     15 O          14.8774   88.0555   25.2155 O.3     1  UNL1       -0.4755
     16 C          14.8416   87.6152   23.8795 C.ar    1  UNL1        0.1388
     17 C          15.9258   86.9763   23.2441 C.ar    1  UNL1        0.0369
     18 C          15.8140   86.5549   21.9183 C.ar    1  UNL1        0.0033
     19 C          14.6314   86.7677   21.2089 C.ar    1  UNL1        0.0066
     20 C          13.5438   87.4178   21.8162 C.ar    1  UNL1        0.0785
     21 C          13.6603   87.8296   23.1568 C.ar    1  UNL1        0.0433
     22 C          12.2924   87.6386   21.0510 C.2     1  UNL1        0.3381
     23 O          11.4277   86.7245   20.9901 O.2     1  UNL1       -0.2451
     24 O          12.0454   88.8333   20.3753 O.3     1  UNL1       -0.4771
     25 H          12.7370   89.5670   20.2938 H       1  UNL1        0.2954
     26 C          12.4696   81.1599   25.5122 C.2     1  UNL1        0.2840
     27 O          11.4324   81.8628   25.6468 O.2     1  UNL1       -0.2665
     28 N          13.7590   81.6929   25.8604 N.am    1  UNL1       -0.2763
     29 H          14.6067   81.1075   25.6989 H       1  UNL1        0.1553
     30 C           9.7526   79.4298   25.1988 C.3     1  UNL1        0.0345
     31 C          11.1569   79.0406   24.8492 C.ar    1  UNL1        0.0202
     32 C          12.3284   79.7986   24.9672 C.ar    1  UNL1        0.1946
     33 O          13.3559   79.1197   24.4882 O.2     1  UNL1       -0.4492
     34 C          12.9157   77.9517   24.0886 C.ar    1  UNL1        0.1452
     35 C          13.6539   76.9176   23.5233 C.ar    1  UNL1        0.0375
     36 C          12.9732   75.7416   23.1621 C.ar    1  UNL1        0.0031
     37 C          11.5725   75.6173   23.3696 C.ar    1  UNL1        0.0002
     38 C          10.8588   76.6947   23.9475 C.ar    1  UNL1        0.0028
     39 C          11.5673   77.8450   24.2949 C.ar    1  UNL1        0.0337
     40 C          10.8639   74.3705   22.9844 C.ar    1  UNL1        0.0000
     41 C           9.4893   74.3931   22.6804 C.ar    1  UNL1        0.0000
     42 C           8.8246   73.2172   22.3190 C.ar    1  UNL1        0.0000
     43 C           9.5217   72.0087   22.2559 C.ar    1  UNL1        0.0000
     44 C          10.8854   71.9731   22.5549 C.ar    1  UNL1        0.0000
     45 C          11.5552   73.1457   22.9179 C.ar    1  UNL1        0.0000
@<TRIPOS>BOND
     1    30    31    1
     2    31    32   ar
     3    32    26    1
     4    26    27    2
     5    26    28   am
     6    28     1    1
     7     1     2   ar
     8     2     3   ar
     9     3     4   ar
    10     4     8    1
    11     8     9    1
    12     9    10    1
    13    10    11    1
    14    11    14    1
    15    14    15    1
    16    15    16    1
    17    16    17   ar
    18    17    18   ar
    19    18    19   ar
    20    19    20   ar
    21    20    22    1
    22    22    23    2
    23    22    24    1
    24    20    21   ar
    25    11    12    1
    26    12    13    1
    27     4     5   ar
    28     5     6   ar
    29     6     7    1
    30    32    33   ar
    31    33    34   ar
    32    34    35   ar
    33    35    36   ar
    34    36    37   ar
    35    37    40    1
    36    40    41   ar
    37    41    42   ar
    38    42    43   ar
    39    43    44   ar
    40    44    45   ar
    41    37    38   ar
    42    38    39   ar
    43    39    31   ar
    44     6     1   ar
    45    39    34   ar
    46    13     8    1
    47    45    40   ar
    48    21    16   ar
    49    28    29    1
    50    24    25    1
