@<TRIPOS>MOLECULE
*****
 45 50 0 0 0
SMALL
GASTEIGER

@<TRIPOS>ATOM
      1 C          62.8658   89.6814    9.9093 C.3     1  UNL1        0.0325
      2 C          62.0709   88.4109   10.0416 C.ar    1  UNL1       -0.0041
      3 C          62.0795   87.7086   11.2563 C.ar    1  UNL1        0.0313
      4 C          61.3414   86.5225   11.3844 C.ar    1  UNL1        0.1315
      5 N          60.6104   86.0757   10.3276 N.ar    1  UNL1       -0.2279
      6 C          60.5812   86.7302    9.1384 C.ar    1  UNL1        0.1146
      7 C          61.3056   87.9195    8.9639 C.ar    1  UNL1        0.0661
      8 N          61.3136   85.7949   12.6267 N.pl3   1  UNL1       -0.2933
      9 C          62.4585   85.9032   13.5431 C.3     1  UNL1        0.0923
     10 C          62.4047   84.8326   14.6448 C.3     1  UNL1        0.0252
     11 C          61.8857   83.5043   14.0636 C.3     1  UNL1        0.0472
     12 C          60.4326   83.6633   13.5467 C.3     1  UNL1        0.0252
     13 C          60.1030   85.0919   13.0741 C.3     1  UNL1        0.0923
     14 C          62.0166   82.3641   15.0922 C.3     1  UNL1        0.2054
     15 O          62.4445   81.1551   14.4594 O.3     1  UNL1       -0.4755
     16 C          61.9277   80.6031   13.2756 C.ar    1  UNL1        0.1388
     17 C          62.5408   80.7706   12.0195 C.ar    1  UNL1        0.0369
     18 C          61.9767   80.1932   10.8801 C.ar    1  UNL1        0.0033
     19 C          60.7964   79.4539   10.9755 C.ar    1  UNL1        0.0066
     20 C          60.1609   79.2886   12.2178 C.ar    1  UNL1        0.0785
     21 C          60.7350   79.8731   13.3605 C.ar    1  UNL1        0.0433
     22 C          58.9064   78.5113   12.3262 C.2     1  UNL1        0.3381
     23 O          58.6099   77.9241   13.4019 O.2     1  UNL1       -0.2451
     24 O          58.0401   78.4211   11.2396 O.3     1  UNL1       -0.4771
     25 H          57.1789   77.8916   11.3034 H       1  UNL1        0.2954
     26 N          61.3115   88.5933    7.6931 N.am    1  UNL1       -0.2769
     27 C          60.1341   88.7827    6.8899 C.2     1  UNL1        0.2839
     28 O          59.0260   88.3145    7.2657 O.2     1  UNL1       -0.2665
     29 H          62.2232   88.9629    7.3478 H       1  UNL1        0.1553
     30 C          60.1931   89.4963    5.6023 C.ar    1  UNL1        0.1946
     31 O          61.3357   89.7518    4.9896 O.2     1  UNL1       -0.4492
     32 C          61.0639   90.3983    3.8824 C.ar    1  UNL1        0.1452
     33 C          61.9659   90.8705    2.9353 C.ar    1  UNL1        0.0375
     34 C          61.4521   91.5432    1.8127 C.ar    1  UNL1        0.0031
     35 C          60.0523   91.7321    1.6536 C.ar    1  UNL1        0.0002
     36 C          59.1688   91.2335    2.6409 C.ar    1  UNL1        0.0028
     37 C          59.7142   90.5730    3.7419 C.ar    1  UNL1        0.0337
     38 C          59.1228   89.9814    4.8398 C.ar    1  UNL1        0.0202
     39 C          57.6532   89.8604    5.1071 C.3     1  UNL1        0.0345
     40 C          59.5208   92.4442    0.4638 C.ar    1  UNL1        0.0000
     41 C          58.1481   92.3956    0.1544 C.ar    1  UNL1        0.0000
     42 C          57.6507   93.0662   -0.9673 C.ar    1  UNL1        0.0000
     43 C          58.5147   93.7917   -1.7906 C.ar    1  UNL1        0.0000
     44 C          59.8783   93.8478   -1.4944 C.ar    1  UNL1        0.0000
     45 C          60.3814   93.1784   -0.3746 C.ar    1  UNL1        0.0000
@<TRIPOS>BOND
     1     1     2    1
     2     2     3   ar
     3     3     4   ar
     4     4     8    1
     5     8     9    1
     6     9    10    1
     7    10    11    1
     8    11    14    1
     9    14    15    1
    10    15    16    1
    11    16    17   ar
    12    17    18   ar
    13    18    19   ar
    14    19    20   ar
    15    20    22    1
    16    22    23    2
    17    22    24    1
    18    20    21   ar
    19    11    12    1
    20    12    13    1
    21     4     5   ar
    22     5     6   ar
    23     6     7   ar
    24     7    26    1
    25    26    27   am
    26    27    28    2
    27    27    30    1
    28    30    31   ar
    29    31    32   ar
    30    32    33   ar
    31    33    34   ar
    32    34    35   ar
    33    35    40    1
    34    40    41   ar
    35    41    42   ar
    36    42    43   ar
    37    43    44   ar
    38    44    45   ar
    39    35    36   ar
    40    36    37   ar
    41    37    38   ar
    42    38    39    1
    43     7     2   ar
    44    38    30   ar
    45    13     8    1
    46    37    32   ar
    47    21    16   ar
    48    45    40   ar
    49    24    25    1
    50    26    29    1
@<TRIPOS>MOLECULE
*****
 45 50 0 0 0
SMALL
GASTEIGER

@<TRIPOS>ATOM
      1 C          63.2119   89.6835    9.8840 C.3     1  UNL1        0.0325
      2 C          62.2521   88.5530   10.1377 C.ar    1  UNL1       -0.0041
      3 C          62.2754   87.8846   11.3712 C.ar    1  UNL1        0.0313
      4 C          61.3837   86.8287   11.6123 C.ar    1  UNL1        0.1315
      5 N          60.4928   86.4761   10.6466 N.ar    1  UNL1       -0.2279
      6 C          60.4445   87.1009    9.4422 C.ar    1  UNL1        0.1146
      7 C          61.3185   88.1610    9.1561 C.ar    1  UNL1        0.0661
      8 N          61.3702   86.1416   12.8776 N.pl3   1  UNL1       -0.2933
      9 C          62.5611   86.2061   13.7377 C.3     1  UNL1        0.0923
     10 C          62.4943   85.1741   14.8750 C.3     1  UNL1        0.0252
     11 C          61.8693   83.8638   14.3612 C.3     1  UNL1        0.0472
     12 C          60.4058   84.0970   13.9052 C.3     1  UNL1        0.0252
     13 C          60.1415   85.5286   13.4016 C.3     1  UNL1        0.0923
     14 C          61.9790   82.7489   15.4196 C.3     1  UNL1        0.2054
     15 O          62.3383   81.5049   14.8123 O.3     1  UNL1       -0.4755
     16 C          62.1477   81.1452   13.4679 C.ar    1  UNL1        0.1388
     17 C          61.2451   80.1442   13.0620 C.ar    1  UNL1        0.0369
     18 C          61.1008   79.8356   11.7079 C.ar    1  UNL1        0.0033
     19 C          61.8564   80.5100   10.7471 C.ar    1  UNL1        0.0066
     20 C          62.7742   81.5014   11.1336 C.ar    1  UNL1        0.0785
     21 C          62.9138   81.8063   12.4991 C.ar    1  UNL1        0.0433
     22 C          63.5831   82.2166   10.1217 C.2     1  UNL1        0.3381
     23 O          64.8230   82.0066   10.0305 O.2     1  UNL1       -0.2451
     24 O          62.9816   83.1296    9.2592 O.3     1  UNL1       -0.4771
     25 H          63.5262   83.6245    8.5630 H       1  UNL1        0.2954
     26 N          61.2997   88.7977    7.8665 N.am    1  UNL1       -0.2769
     27 C          60.1585   88.7850    6.9918 C.2     1  UNL1        0.2839
     28 O          59.1137   88.1611    7.3191 O.2     1  UNL1       -0.2665
     29 H          62.1640   89.2948    7.5617 H       1  UNL1        0.1553
     30 C          60.1871   89.4688    5.6871 C.ar    1  UNL1        0.1946
     31 O          61.3107   89.6710    5.0216 O.2     1  UNL1       -0.4492
     32 C          61.0142   90.3033    3.9125 C.ar    1  UNL1        0.1452
     33 C          61.8907   90.7234    2.9180 C.ar    1  UNL1        0.0375
     34 C          61.3530   91.3899    1.8030 C.ar    1  UNL1        0.0031
     35 C          59.9549   91.6245    1.6985 C.ar    1  UNL1        0.0002
     36 C          59.0977   91.1782    2.7328 C.ar    1  UNL1        0.0028
     37 C          59.6665   90.5223    3.8246 C.ar    1  UNL1        0.0337
     38 C          59.1025   89.9751    4.9594 C.ar    1  UNL1        0.0202
     39 C          57.6423   89.9115    5.2906 C.3     1  UNL1        0.0345
     40 C          59.3979   92.3296    0.5161 C.ar    1  UNL1        0.0000
     41 C          60.2090   93.1826   -0.2564 C.ar    1  UNL1        0.0000
     42 C          59.6816   93.8461   -1.3685 C.ar    1  UNL1        0.0000
     43 C          58.3425   93.6661   -1.7222 C.ar    1  UNL1        0.0000
     44 C          57.5276   92.8226   -0.9641 C.ar    1  UNL1        0.0000
     45 C          58.0495   92.1572    0.1495 C.ar    1  UNL1        0.0000
@<TRIPOS>BOND
     1     1     2    1
     2     2     3   ar
     3     3     4   ar
     4     4     8    1
     5     8     9    1
     6     9    10    1
     7    10    11    1
     8    11    14    1
     9    14    15    1
    10    15    16    1
    11    16    17   ar
    12    17    18   ar
    13    18    19   ar
    14    19    20   ar
    15    20    22    1
    16    22    23    2
    17    22    24    1
    18    20    21   ar
    19    11    12    1
    20    12    13    1
    21     4     5   ar
    22     5     6   ar
    23     6     7   ar
    24     7    26    1
    25    26    27   am
    26    27    28    2
    27    27    30    1
    28    30    31   ar
    29    31    32   ar
    30    32    33   ar
    31    33    34   ar
    32    34    35   ar
    33    35    40    1
    34    40    41   ar
    35    41    42   ar
    36    42    43   ar
    37    43    44   ar
    38    44    45   ar
    39    35    36   ar
    40    36    37   ar
    41    37    38   ar
    42    38    39    1
    43     7     2   ar
    44    38    30   ar
    45    13     8    1
    46    37    32   ar
    47    21    16   ar
    48    45    40   ar
    49    24    25    1
    50    26    29    1
