@<TRIPOS>MOLECULE
*****
 42 46 0 0 0
SMALL
GASTEIGER

@<TRIPOS>ATOM
      1 C          -9.3311  -10.5777   33.3159 C.3     1  UNL1        0.1332
      2 N          -9.5322  -11.5452   32.2375 N.ar    1  UNL1       -0.2977
      3 C         -10.6422  -12.2874   31.9681 C.ar    1  UNL1        0.2018
      4 N         -10.5263  -13.0600   30.8548 N.ar    1  UNL1       -0.2135
      5 C          -9.2881  -12.7750   30.4163 C.ar    1  UNL1        0.0999
      6 C          -8.6574  -13.2798   29.2717 C.ar    1  UNL1        0.0282
      7 C          -7.3608  -12.8035   28.9502 C.ar    1  UNL1        0.0888
      8 C          -6.7636  -11.8601   29.8222 C.ar    1  UNL1        0.1401
      9 C          -7.4055  -11.3868   30.9433 C.ar    1  UNL1        0.0327
     10 C          -8.6880  -11.8576   31.2366 C.ar    1  UNL1        0.0789
     11 C          -6.5279  -10.4276   31.6683 C.3     1  UNL1        0.0709
     12 C          -5.2544  -10.3770   30.7614 C.3     1  UNL1        0.1375
     13 C          -5.0572   -8.9801   30.1570 C.3     1  UNL1        0.0439
     14 C          -3.9988  -10.8095   31.5301 C.3     1  UNL1        0.0439
     15 O          -5.5041  -11.3093   29.7078 O.3     1  UNL1       -0.4824
     16 C          -6.6654  -13.3067   27.7469 C.2     1  UNL1        0.2525
     17 O          -5.6618  -12.6763   27.3163 O.2     1  UNL1       -0.2697
     18 N          -7.1193  -14.4949   27.0728 N.am    1  UNL1       -0.2803
     19 H          -7.9779  -14.9761   27.4201 H       1  UNL1        0.1552
     20 C          -6.5061  -15.0274   25.8871 C.ar    1  UNL1        0.0505
     21 C          -5.2057  -15.5307   25.9602 C.ar    1  UNL1        0.0144
     22 C          -4.5809  -16.0401   24.8241 C.ar    1  UNL1       -0.0006
     23 C          -5.2362  -16.0474   23.5818 C.ar    1  UNL1        0.0109
     24 C          -6.5423  -15.4907   23.4792 C.ar    1  UNL1        0.0710
     25 C          -7.1599  -14.9904   24.6455 C.ar    1  UNL1        0.0183
     26 C          -7.2949  -15.4504   22.1609 C.3     1  UNL1        0.4184
     27 F          -6.6396  -14.6804   21.2150 F       1  UNL1       -0.1659
     28 F          -7.4230  -16.7277   21.6471 F       1  UNL1       -0.1659
     29 F          -8.5504  -14.9061   22.3613 F       1  UNL1       -0.1659
     30 C          -4.4773  -16.6079   22.3992 C.3     1  UNL1        0.1635
     31 O          -3.7513  -15.5909   21.7646 O.3     1  UNL1       -0.3772
     32 H          -4.4048  -15.0574   21.2421 H       1  UNL1        0.2109
     33 N         -11.8576  -12.2103   32.7294 N.pl3   1  UNL1       -0.2814
     34 H         -12.2774  -11.2726   32.9109 H       1  UNL1        0.1551
     35 C         -12.6198  -13.3757   33.0842 C.ar    1  UNL1        0.0889
     36 C         -13.7804  -13.7190   32.3625 C.ar    1  UNL1        0.1543
     37 F         -14.1857  -12.9704   31.3058 F       1  UNL1       -0.2028
     38 C         -14.5082  -14.8632   32.7025 C.ar    1  UNL1        0.0310
     39 C         -14.0839  -15.6787   33.7527 C.ar    1  UNL1        0.0033
     40 C         -12.9259  -15.3573   34.4635 C.ar    1  UNL1        0.0128
     41 C         -12.1884  -14.2145   34.1319 C.ar    1  UNL1        0.0733
     42 CL        -10.7498  -13.8368   35.0713 Cl      1  UNL1       -0.0809
@<TRIPOS>BOND
     1     1     2    1
     2     2     3   ar
     3     3    33    1
     4    33    35    1
     5    35    36   ar
     6    36    37    1
     7    36    38   ar
     8    38    39   ar
     9    39    40   ar
    10    40    41   ar
    11    41    42    1
    12     3     4   ar
    13     4     5   ar
    14     5     6   ar
    15     6     7   ar
    16     7    16    1
    17    16    17    2
    18    16    18   am
    19    18    20    1
    20    20    21   ar
    21    21    22   ar
    22    22    23   ar
    23    23    30    1
    24    30    31    1
    25    23    24   ar
    26    24    26    1
    27    26    27    1
    28    26    28    1
    29    26    29    1
    30    24    25   ar
    31     7     8   ar
    32     8     9   ar
    33     9    10   ar
    34     9    11    1
    35    11    12    1
    36    12    13    1
    37    12    14    1
    38    12    15    1
    39    10     2   ar
    40    41    35   ar
    41    10     5   ar
    42    25    20   ar
    43    15     8    1
    44    33    34    1
    45    18    19    1
    46    31    32    1
@<TRIPOS>MOLECULE
*****
 42 46 0 0 0
SMALL
GASTEIGER

@<TRIPOS>ATOM
      1 C          -9.1242  -10.3234   31.9602 C.3     1  UNL1        0.1332
      2 N          -9.3712  -11.5613   31.2212 N.ar    1  UNL1       -0.2977
      3 C         -10.4462  -12.3935   31.3075 C.ar    1  UNL1        0.2018
      4 N         -10.3972  -13.4413   30.4419 N.ar    1  UNL1       -0.2135
      5 C          -9.2397  -13.2406   29.7888 C.ar    1  UNL1        0.0999
      6 C          -8.7039  -14.0195   28.7550 C.ar    1  UNL1        0.0282
      7 C          -7.4896  -13.6002   28.1540 C.ar    1  UNL1        0.0888
      8 C          -6.8711  -12.4272   28.6525 C.ar    1  UNL1        0.1401
      9 C          -7.4183  -11.6855   29.6740 C.ar    1  UNL1        0.0327
     10 C          -8.6221  -12.1068   30.2447 C.ar    1  UNL1        0.0789
     11 C          -6.5393  -10.5271   29.9924 C.3     1  UNL1        0.0709
     12 C          -5.3813  -10.6808   28.9522 C.3     1  UNL1        0.1375
     13 C          -5.3561   -9.5020   27.9697 C.3     1  UNL1        0.0439
     14 C          -4.0197  -10.8299   29.6440 C.3     1  UNL1        0.0439
     15 O          -5.6762  -11.8799   28.2334 O.3     1  UNL1       -0.4824
     16 C          -6.8964  -14.3914   27.0555 C.2     1  UNL1        0.2525
     17 O          -5.7070  -14.7944   27.1699 O.2     1  UNL1       -0.2697
     18 N          -7.6563  -14.7012   25.8729 N.am    1  UNL1       -0.2803
     19 H          -8.6237  -14.3206   25.7798 H       1  UNL1        0.1552
     20 C          -7.1367  -15.4451   24.7584 C.ar    1  UNL1        0.0505
     21 C          -5.8845  -15.1093   24.2399 C.ar    1  UNL1        0.0144
     22 C          -5.3619  -15.8036   23.1511 C.ar    1  UNL1       -0.0006
     23 C          -6.0844  -16.8441   22.5441 C.ar    1  UNL1        0.0109
     24 C          -7.3843  -17.1646   23.0275 C.ar    1  UNL1        0.0710
     25 C          -7.8889  -16.4553   24.1385 C.ar    1  UNL1        0.0183
     26 C          -8.2233  -18.2645   22.4013 C.3     1  UNL1        0.4184
     27 F          -8.5030  -18.0068   21.0700 F       1  UNL1       -0.1659
     28 F          -7.5496  -19.4704   22.4631 F       1  UNL1       -0.1659
     29 F          -9.4245  -18.3724   23.0783 F       1  UNL1       -0.1659
     30 C          -5.4454  -17.5346   21.3594 C.3     1  UNL1        0.1635
     31 O          -5.7256  -16.8305   20.1805 O.3     1  UNL1       -0.3772
     32 H          -6.6667  -17.0362   19.9424 H       1  UNL1        0.2109
     33 N         -11.5722  -12.1556   32.1666 N.pl3   1  UNL1       -0.2814
     34 H         -12.0893  -11.2538   32.0782 H       1  UNL1        0.1551
     35 C         -12.1326  -13.1803   33.0039 C.ar    1  UNL1        0.0889
     36 C         -13.3467  -13.8049   32.6555 C.ar    1  UNL1        0.1543
     37 F         -13.9959  -13.4681   31.5125 F       1  UNL1       -0.2028
     38 C         -13.8781  -14.8125   33.4659 C.ar    1  UNL1        0.0310
     39 C         -13.2038  -15.2136   34.6203 C.ar    1  UNL1        0.0033
     40 C         -11.9914  -14.6133   34.9659 C.ar    1  UNL1        0.0128
     41 C         -11.4491  -13.6038   34.1619 C.ar    1  UNL1        0.0733
     42 CL         -9.9317  -12.8599   34.6505 Cl      1  UNL1       -0.0809
@<TRIPOS>BOND
     1     1     2    1
     2     2     3   ar
     3     3    33    1
     4    33    35    1
     5    35    36   ar
     6    36    37    1
     7    36    38   ar
     8    38    39   ar
     9    39    40   ar
    10    40    41   ar
    11    41    42    1
    12     3     4   ar
    13     4     5   ar
    14     5     6   ar
    15     6     7   ar
    16     7    16    1
    17    16    17    2
    18    16    18   am
    19    18    20    1
    20    20    21   ar
    21    21    22   ar
    22    22    23   ar
    23    23    30    1
    24    30    31    1
    25    23    24   ar
    26    24    26    1
    27    26    27    1
    28    26    28    1
    29    26    29    1
    30    24    25   ar
    31     7     8   ar
    32     8     9   ar
    33     9    10   ar
    34     9    11    1
    35    11    12    1
    36    12    13    1
    37    12    14    1
    38    12    15    1
    39    10     2   ar
    40    41    35   ar
    41    10     5   ar
    42    25    20   ar
    43    15     8    1
    44    33    34    1
    45    18    19    1
    46    31    32    1
@<TRIPOS>MOLECULE
*****
 42 46 0 0 0
SMALL
GASTEIGER

@<TRIPOS>ATOM
      1 C          -8.9145  -10.3186   32.2189 C.3     1  UNL1        0.1332
      2 N          -9.2415  -11.5324   31.4710 N.ar    1  UNL1       -0.2977
      3 C         -10.3295  -12.3400   31.6103 C.ar    1  UNL1        0.2018
      4 N         -10.3646  -13.3680   30.7205 N.ar    1  UNL1       -0.2135
      5 C          -9.2479  -13.1800   29.9965 C.ar    1  UNL1        0.0999
      6 C          -8.8016  -13.9470   28.9125 C.ar    1  UNL1        0.0282
      7 C          -7.6193  -13.5432   28.2414 C.ar    1  UNL1        0.0888
      8 C          -6.9393  -12.3975   28.7233 C.ar    1  UNL1        0.1401
      9 C          -7.3986  -11.6671   29.7950 C.ar    1  UNL1        0.0327
     10 C          -8.5727  -12.0726   30.4351 C.ar    1  UNL1        0.0789
     11 C          -6.4711  -10.5383   30.0796 C.3     1  UNL1        0.0709
     12 C          -5.3885  -10.6953   28.9615 C.3     1  UNL1        0.1375
     13 C          -5.3979   -9.4946   28.0057 C.3     1  UNL1        0.0439
     14 C          -3.9886  -10.8935   29.5578 C.3     1  UNL1        0.0439
     15 O          -5.7610  -11.8696   28.2378 O.3     1  UNL1       -0.4824
     16 C          -7.1203  -14.3223   27.0888 C.2     1  UNL1        0.2525
     17 O          -5.9018  -14.6453   27.0548 O.2     1  UNL1       -0.2697
     18 N          -8.0032  -14.7099   26.0200 N.am    1  UNL1       -0.2803
     19 H          -8.9978  -14.3945   26.0466 H       1  UNL1        0.1552
     20 C          -7.5824  -15.4471   24.8603 C.ar    1  UNL1        0.0505
     21 C          -8.3358  -16.5454   24.4411 C.ar    1  UNL1        0.0144
     22 C          -7.9442  -17.2871   23.3289 C.ar    1  UNL1       -0.0006
     23 C          -6.7808  -16.9572   22.6143 C.ar    1  UNL1        0.0109
     24 C          -5.9734  -15.8725   23.0591 C.ar    1  UNL1        0.0710
     25 C          -6.3956  -15.1284   24.1816 C.ar    1  UNL1        0.0183
     26 C          -4.6940  -15.4793   22.3419 C.3     1  UNL1        0.4184
     27 F          -4.8614  -15.4448   20.9679 F       1  UNL1       -0.1659
     28 F          -4.2890  -14.2209   22.7474 F       1  UNL1       -0.1659
     29 F          -3.7012  -16.3981   22.6297 F       1  UNL1       -0.1659
     30 C          -6.4249  -17.8251   21.4274 C.3     1  UNL1        0.1635
     31 O          -7.5531  -18.0279   20.6211 O.3     1  UNL1       -0.3772
     32 H          -8.1209  -18.6946   21.0876 H       1  UNL1        0.2109
     33 N         -11.3899  -12.0953   32.5475 N.pl3   1  UNL1       -0.2814
     34 H         -11.7215  -11.1158   32.6857 H       1  UNL1        0.1551
     35 C         -12.1410  -13.1587   33.1559 C.ar    1  UNL1        0.0889
     36 C         -13.3669  -13.5775   32.6014 C.ar    1  UNL1        0.1543
     37 F         -13.8481  -13.0020   31.4707 F       1  UNL1       -0.2028
     38 C         -14.0846  -14.6235   33.1888 C.ar    1  UNL1        0.0310
     39 C         -13.5863  -15.2667   34.3229 C.ar    1  UNL1        0.0033
     40 C         -12.3644  -14.8712   34.8707 C.ar    1  UNL1        0.0128
     41 C         -11.6363  -13.8255   34.2909 C.ar    1  UNL1        0.0733
     42 CL        -10.1139  -13.3459   35.0304 Cl      1  UNL1       -0.0809
@<TRIPOS>BOND
     1     1     2    1
     2     2     3   ar
     3     3    33    1
     4    33    35    1
     5    35    36   ar
     6    36    37    1
     7    36    38   ar
     8    38    39   ar
     9    39    40   ar
    10    40    41   ar
    11    41    42    1
    12     3     4   ar
    13     4     5   ar
    14     5     6   ar
    15     6     7   ar
    16     7    16    1
    17    16    17    2
    18    16    18   am
    19    18    20    1
    20    20    21   ar
    21    21    22   ar
    22    22    23   ar
    23    23    30    1
    24    30    31    1
    25    23    24   ar
    26    24    26    1
    27    26    27    1
    28    26    28    1
    29    26    29    1
    30    24    25   ar
    31     7     8   ar
    32     8     9   ar
    33     9    10   ar
    34     9    11    1
    35    11    12    1
    36    12    13    1
    37    12    14    1
    38    12    15    1
    39    10     2   ar
    40    41    35   ar
    41    10     5   ar
    42    25    20   ar
    43    15     8    1
    44    33    34    1
    45    18    19    1
    46    31    32    1
@<TRIPOS>MOLECULE
*****
 42 46 0 0 0
SMALL
GASTEIGER

@<TRIPOS>ATOM
      1 C          -8.7348  -10.2663   32.2661 C.3     1  UNL1        0.1332
      2 N          -9.0889  -11.4799   31.5302 N.ar    1  UNL1       -0.2977
      3 C         -10.1751  -12.2833   31.7039 C.ar    1  UNL1        0.2018
      4 N         -10.2411  -13.3123   30.8171 N.ar    1  UNL1       -0.2135
      5 C          -9.1463  -13.1295   30.0591 C.ar    1  UNL1        0.0999
      6 C          -8.7360  -13.8997   28.9631 C.ar    1  UNL1        0.0282
      7 C          -7.5731  -13.5011   28.2558 C.ar    1  UNL1        0.0888
      8 C          -6.8746  -12.3574   28.7151 C.ar    1  UNL1        0.1401
      9 C          -7.2984  -11.6238   29.7992 C.ar    1  UNL1        0.0327
     10 C          -8.4539  -12.0240   30.4753 C.ar    1  UNL1        0.0789
     11 C          -6.3585  -10.4980   30.0538 C.3     1  UNL1        0.0709
     12 C          -5.3110  -10.6606   28.9035 C.3     1  UNL1        0.1375
     13 C          -5.3450   -9.4612   27.9466 C.3     1  UNL1        0.0439
     14 C          -3.8944  -10.8633   29.4572 C.3     1  UNL1        0.0439
     15 O          -5.7096  -11.8345   28.1931 O.3     1  UNL1       -0.4824
     16 C          -7.1123  -14.2837   27.0897 C.2     1  UNL1        0.2525
     17 O          -5.8951  -14.6046   27.0152 O.2     1  UNL1       -0.2697
     18 N          -8.0305  -14.6771   26.0533 N.am    1  UNL1       -0.2803
     19 H          -9.0242  -14.3634   26.1127 H       1  UNL1        0.1552
     20 C          -7.6481  -15.4178   24.8825 C.ar    1  UNL1        0.0505
     21 C          -8.3999  -16.5328   24.5065 C.ar    1  UNL1        0.0144
     22 C          -8.0445  -17.2782   23.3846 C.ar    1  UNL1       -0.0006
     23 C          -6.9196  -16.9352   22.6166 C.ar    1  UNL1        0.0109
     24 C          -6.1126  -15.8326   23.0160 C.ar    1  UNL1        0.0710
     25 C          -6.4981  -15.0853   24.1495 C.ar    1  UNL1        0.0183
     26 C          -4.8730  -15.4243   22.2398 C.3     1  UNL1        0.4184
     27 F          -4.3293  -14.2440   22.7178 F       1  UNL1       -0.1659
     28 F          -3.9035  -16.4049   22.3416 F       1  UNL1       -0.1659
     29 F          -5.2010  -15.2369   20.9093 F       1  UNL1       -0.1659
     30 C          -6.6010  -17.8080   21.4228 C.3     1  UNL1        0.1635
     31 O          -7.7700  -18.0867   20.7018 O.3     1  UNL1       -0.3772
     32 H          -8.2672  -18.7724   21.2188 H       1  UNL1        0.2109
     33 N         -11.2056  -12.0334   32.6724 N.pl3   1  UNL1       -0.2814
     34 H         -11.4922  -11.0474   32.8572 H       1  UNL1        0.1551
     35 C         -11.9895  -13.0885   33.2531 C.ar    1  UNL1        0.0889
     36 C         -11.5060  -13.8132   34.3606 C.ar    1  UNL1        0.1543
     37 F         -10.3038  -13.5126   34.9136 F       1  UNL1       -0.2028
     38 C         -12.2807  -14.8276   34.9310 C.ar    1  UNL1        0.0310
     39 C         -13.5429  -15.1222   34.4132 C.ar    1  UNL1        0.0033
     40 C         -14.0390  -14.3990   33.3267 C.ar    1  UNL1        0.0128
     41 C         -13.2728  -13.3805   32.7476 C.ar    1  UNL1        0.0733
     42 CL        -13.9292  -12.5130   31.3651 Cl      1  UNL1       -0.0809
@<TRIPOS>BOND
     1     1     2    1
     2     2     3   ar
     3     3    33    1
     4    33    35    1
     5    35    36   ar
     6    36    37    1
     7    36    38   ar
     8    38    39   ar
     9    39    40   ar
    10    40    41   ar
    11    41    42    1
    12     3     4   ar
    13     4     5   ar
    14     5     6   ar
    15     6     7   ar
    16     7    16    1
    17    16    17    2
    18    16    18   am
    19    18    20    1
    20    20    21   ar
    21    21    22   ar
    22    22    23   ar
    23    23    30    1
    24    30    31    1
    25    23    24   ar
    26    24    26    1
    27    26    27    1
    28    26    28    1
    29    26    29    1
    30    24    25   ar
    31     7     8   ar
    32     8     9   ar
    33     9    10   ar
    34     9    11    1
    35    11    12    1
    36    12    13    1
    37    12    14    1
    38    12    15    1
    39    10     2   ar
    40    41    35   ar
    41    10     5   ar
    42    25    20   ar
    43    15     8    1
    44    33    34    1
    45    18    19    1
    46    31    32    1
@<TRIPOS>MOLECULE
*****
 42 46 0 0 0
SMALL
GASTEIGER

@<TRIPOS>ATOM
      1 C          -9.2087  -10.2556   34.3452 C.3     1  UNL1        0.1332
      2 N          -8.5931  -10.4339   33.0304 N.ar    1  UNL1       -0.2977
      3 C          -7.4623   -9.8506   32.5439 C.ar    1  UNL1        0.2018
      4 N          -7.1256  -10.2691   31.2944 N.ar    1  UNL1       -0.2135
      5 C          -8.0924  -11.1556   31.0013 C.ar    1  UNL1        0.0999
      6 C          -8.2181  -11.9169   29.8319 C.ar    1  UNL1        0.0282
      7 C          -9.2859  -12.8459   29.7430 C.ar    1  UNL1        0.0888
      8 C         -10.1841  -12.9335   30.8352 C.ar    1  UNL1        0.1401
      9 C         -10.0388  -12.1678   31.9691 C.ar    1  UNL1        0.0327
     10 C          -8.9727  -11.2676   32.0440 C.ar    1  UNL1        0.0789
     11 C         -11.1368  -12.4633   32.9297 C.3     1  UNL1        0.0709
     12 C         -11.9501  -13.5746   32.1878 C.3     1  UNL1        0.1375
     13 C         -11.9016  -14.9040   32.9530 C.3     1  UNL1        0.0439
     14 C         -13.4044  -13.1452   31.9529 C.3     1  UNL1        0.0439
     15 O         -11.2999  -13.7394   30.9262 O.3     1  UNL1       -0.4824
     16 C          -9.4478  -13.6725   28.5284 C.2     1  UNL1        0.2525
     17 O         -10.4109  -13.4297   27.7516 O.2     1  UNL1       -0.2697
     18 N          -8.5264  -14.7373   28.2301 N.am    1  UNL1       -0.2803
     19 H          -7.7624  -14.9495   28.9089 H       1  UNL1        0.1552
     20 C          -8.6359  -15.5937   27.0812 C.ar    1  UNL1        0.0505
     21 C          -9.0972  -16.9010   27.2477 C.ar    1  UNL1        0.0144
     22 C          -9.2004  -17.7581   26.1544 C.ar    1  UNL1       -0.0006
     23 C          -8.8321  -17.3335   24.8671 C.ar    1  UNL1        0.0109
     24 C          -8.3110  -16.0210   24.6883 C.ar    1  UNL1        0.0710
     25 C          -8.2259  -15.1665   25.8084 C.ar    1  UNL1        0.0183
     26 C          -7.8764  -15.5101   23.3259 C.3     1  UNL1        0.4184
     27 F          -6.8045  -16.2276   22.8227 F       1  UNL1       -0.1659
     28 F          -8.9171  -15.6207   22.4223 F       1  UNL1       -0.1659
     29 F          -7.4944  -14.1849   23.4290 F       1  UNL1       -0.1659
     30 C          -8.9648  -18.3347   23.7408 C.3     1  UNL1        0.1635
     31 O          -9.4882  -19.5410   24.2254 O.3     1  UNL1       -0.3772
     32 H          -8.7502  -20.0003   24.7040 H       1  UNL1        0.2109
     33 N          -6.6458   -8.9413   33.2982 N.pl3   1  UNL1       -0.2814
     34 H          -6.4974   -9.1249   34.3145 H       1  UNL1        0.1551
     35 C          -5.8708   -7.9037   32.6755 C.ar    1  UNL1        0.0889
     36 C          -4.5496   -7.6482   33.0935 C.ar    1  UNL1        0.1543
     37 F          -3.9772   -8.3919   34.0736 F       1  UNL1       -0.2028
     38 C          -3.7955   -6.6483   32.4723 C.ar    1  UNL1        0.0310
     39 C          -4.3432   -5.9033   31.4268 C.ar    1  UNL1        0.0033
     40 C          -5.6454   -6.1595   30.9932 C.ar    1  UNL1        0.0128
     41 C          -6.4100   -7.1587   31.6069 C.ar    1  UNL1        0.0733
     42 CL         -8.0542   -7.4292   31.0428 Cl      1  UNL1       -0.0809
@<TRIPOS>BOND
     1     1     2    1
     2     2     3   ar
     3     3    33    1
     4    33    35    1
     5    35    36   ar
     6    36    37    1
     7    36    38   ar
     8    38    39   ar
     9    39    40   ar
    10    40    41   ar
    11    41    42    1
    12     3     4   ar
    13     4     5   ar
    14     5     6   ar
    15     6     7   ar
    16     7    16    1
    17    16    17    2
    18    16    18   am
    19    18    20    1
    20    20    21   ar
    21    21    22   ar
    22    22    23   ar
    23    23    30    1
    24    30    31    1
    25    23    24   ar
    26    24    26    1
    27    26    27    1
    28    26    28    1
    29    26    29    1
    30    24    25   ar
    31     7     8   ar
    32     8     9   ar
    33     9    10   ar
    34     9    11    1
    35    11    12    1
    36    12    13    1
    37    12    14    1
    38    12    15    1
    39    10     2   ar
    40    41    35   ar
    41    10     5   ar
    42    25    20   ar
    43    15     8    1
    44    33    34    1
    45    18    19    1
    46    31    32    1
@<TRIPOS>MOLECULE
*****
 42 46 0 0 0
SMALL
GASTEIGER

@<TRIPOS>ATOM
      1 C          -9.2908  -10.3195   34.2338 C.3     1  UNL1        0.1332
      2 N          -8.5935  -10.4650   32.9562 N.ar    1  UNL1       -0.2977
      3 C          -7.4473   -9.8526   32.5479 C.ar    1  UNL1        0.2018
      4 N          -7.0275  -10.2446   31.3150 N.ar    1  UNL1       -0.2135
      5 C          -7.9571  -11.1445   30.9507 C.ar    1  UNL1        0.0999
      6 C          -7.9968  -11.8891   29.7647 C.ar    1  UNL1        0.0282
      7 C          -9.0386  -12.8368   29.5974 C.ar    1  UNL1        0.0888
      8 C          -9.9990  -12.9589   30.6317 C.ar    1  UNL1        0.1401
      9 C          -9.9377  -12.2089   31.7836 C.ar    1  UNL1        0.0327
     10 C          -8.8963  -11.2899   31.9364 C.ar    1  UNL1        0.0789
     11 C         -11.0855  -12.5406   32.6714 C.3     1  UNL1        0.0709
     12 C         -11.8302  -13.6550   31.8651 C.3     1  UNL1        0.1375
     13 C         -11.8015  -14.9954   32.6121 C.3     1  UNL1        0.0439
     14 C         -13.2760  -13.2496   31.5489 C.3     1  UNL1        0.0439
     15 O         -11.1020  -13.7872   30.6429 O.3     1  UNL1       -0.4824
     16 C          -9.1104  -13.6467   28.3631 C.2     1  UNL1        0.2525
     17 O         -10.2147  -13.7423   27.7619 O.2     1  UNL1       -0.2697
     18 N          -7.9448  -14.3173   27.8495 N.am    1  UNL1       -0.2803
     19 H          -7.0516  -14.2609   28.3866 H       1  UNL1        0.1552
     20 C          -7.9470  -15.1379   26.6698 C.ar    1  UNL1        0.0505
     21 C          -7.0776  -14.8270   25.6223 C.ar    1  UNL1        0.0144
     22 C          -7.0678  -15.5962   24.4609 C.ar    1  UNL1       -0.0006
     23 C          -7.9371  -16.6893   24.3117 C.ar    1  UNL1        0.0109
     24 C          -8.8656  -16.9884   25.3483 C.ar    1  UNL1        0.0710
     25 C          -8.8500  -16.2023   26.5204 C.ar    1  UNL1        0.0183
     26 C          -9.8447  -18.1438   25.2383 C.3     1  UNL1        0.4184
     27 F          -9.2571  -19.2682   24.6837 F       1  UNL1       -0.1659
     28 F         -10.3144  -18.4904   26.4918 F       1  UNL1       -0.1659
     29 F         -10.9074  -17.7747   24.4338 F       1  UNL1       -0.1659
     30 C          -7.8667  -17.4606   23.0121 C.3     1  UNL1        0.1635
     31 O          -8.6577  -16.8382   22.0370 O.3     1  UNL1       -0.3772
     32 H          -9.6011  -17.0575   22.2524 H       1  UNL1        0.2109
     33 N          -6.6960   -8.9402   33.3637 N.pl3   1  UNL1       -0.2814
     34 H          -6.6485   -9.1089   34.3922 H       1  UNL1        0.1551
     35 C          -5.8519   -7.9213   32.8031 C.ar    1  UNL1        0.0889
     36 C          -4.5604   -7.6971   33.3202 C.ar    1  UNL1        0.1543
     37 F          -4.0815   -8.4540   34.3395 F       1  UNL1       -0.2028
     38 C          -3.7381   -6.7153   32.7596 C.ar    1  UNL1        0.0310
     39 C          -4.1874   -5.9576   31.6770 C.ar    1  UNL1        0.0033
     40 C          -5.4588   -6.1830   31.1457 C.ar    1  UNL1        0.0128
     41 C          -6.2910   -7.1638   31.6981 C.ar    1  UNL1        0.0733
     42 CL         -7.8938   -7.3952   31.0109 Cl      1  UNL1       -0.0809
@<TRIPOS>BOND
     1     1     2    1
     2     2     3   ar
     3     3    33    1
     4    33    35    1
     5    35    36   ar
     6    36    37    1
     7    36    38   ar
     8    38    39   ar
     9    39    40   ar
    10    40    41   ar
    11    41    42    1
    12     3     4   ar
    13     4     5   ar
    14     5     6   ar
    15     6     7   ar
    16     7    16    1
    17    16    17    2
    18    16    18   am
    19    18    20    1
    20    20    21   ar
    21    21    22   ar
    22    22    23   ar
    23    23    30    1
    24    30    31    1
    25    23    24   ar
    26    24    26    1
    27    26    27    1
    28    26    28    1
    29    26    29    1
    30    24    25   ar
    31     7     8   ar
    32     8     9   ar
    33     9    10   ar
    34     9    11    1
    35    11    12    1
    36    12    13    1
    37    12    14    1
    38    12    15    1
    39    10     2   ar
    40    41    35   ar
    41    10     5   ar
    42    25    20   ar
    43    15     8    1
    44    33    34    1
    45    18    19    1
    46    31    32    1
@<TRIPOS>MOLECULE
*****
 42 46 0 0 0
SMALL
GASTEIGER

@<TRIPOS>ATOM
      1 C          -8.1407   -9.4255   32.3842 C.3     1  UNL1        0.1332
      2 N          -7.5773  -10.1535   31.2475 N.ar    1  UNL1       -0.2977
      3 C          -6.3863   -9.9445   30.6203 C.ar    1  UNL1        0.2018
      4 N          -6.1305  -10.8330   29.6228 N.ar    1  UNL1       -0.2135
      5 C          -7.2134  -11.6290   29.6415 C.ar    1  UNL1        0.0999
      6 C          -7.4607  -12.7426   28.8281 C.ar    1  UNL1        0.0282
      7 C          -8.6459  -13.4895   29.0488 C.ar    1  UNL1        0.0888
      8 C          -9.5290  -13.0506   30.0660 C.ar    1  UNL1        0.1401
      9 C          -9.2622  -11.9486   30.8454 C.ar    1  UNL1        0.0327
     10 C          -8.0830  -11.2331   30.6222 C.ar    1  UNL1        0.0789
     11 C         -10.3737  -11.7230   31.8095 C.3     1  UNL1        0.0709
     12 C         -11.3425  -12.9110   31.4982 C.3     1  UNL1        0.1375
     13 C         -11.4615  -13.8607   32.6979 C.3     1  UNL1        0.0439
     14 C         -12.7290  -12.4096   31.0730 C.3     1  UNL1        0.0439
     15 O         -10.7420  -13.6118   30.4073 O.3     1  UNL1       -0.4824
     16 C          -8.9388  -14.6750   28.2161 C.2     1  UNL1        0.2525
     17 O          -9.4530  -15.6891   28.7612 O.2     1  UNL1       -0.2697
     18 N          -8.6456  -14.6797   26.8068 N.am    1  UNL1       -0.2803
     19 H          -8.1796  -13.8465   26.3848 H       1  UNL1        0.1552
     20 C          -8.8827  -15.8033   25.9426 C.ar    1  UNL1        0.0505
     21 C          -9.0848  -17.0649   26.5059 C.ar    1  UNL1        0.0144
     22 C          -9.3028  -18.1746   25.6925 C.ar    1  UNL1       -0.0006
     23 C          -9.3113  -18.0534   24.2931 C.ar    1  UNL1        0.0109
     24 C          -9.0553  -16.7842   23.7017 C.ar    1  UNL1        0.0710
     25 C          -8.8481  -15.6720   24.5455 C.ar    1  UNL1        0.0183
     26 C          -9.0309  -16.5924   22.1955 C.3     1  UNL1        0.4184
     27 F          -8.1533  -17.4669   21.5773 F       1  UNL1       -0.1659
     28 F         -10.2888  -16.8162   21.6669 F       1  UNL1       -0.1659
     29 F          -8.6295  -15.3023   21.8999 F       1  UNL1       -0.1659
     30 C          -9.5430  -19.3131   23.4880 C.3     1  UNL1        0.1635
     31 O          -9.5860  -20.4279   24.3362 O.3     1  UNL1       -0.3772
     32 H          -8.6487  -20.6253   24.5954 H       1  UNL1        0.2109
     33 N          -5.4415   -8.9383   31.0171 N.pl3   1  UNL1       -0.2814
     34 H          -4.4278   -9.1839   31.0429 H       1  UNL1        0.1551
     35 C          -5.8109   -7.5606   31.1919 C.ar    1  UNL1        0.0889
     36 C          -6.4483   -6.8530   30.1532 C.ar    1  UNL1        0.1543
     37 F          -6.7463   -7.4652   28.9794 F       1  UNL1       -0.2028
     38 C          -6.8198   -5.5177   30.3356 C.ar    1  UNL1        0.0310
     39 C          -6.5709   -4.8797   31.5517 C.ar    1  UNL1        0.0033
     40 C          -5.9554   -5.5763   32.5936 C.ar    1  UNL1        0.0128
     41 C          -5.5794   -6.9140   32.4231 C.ar    1  UNL1        0.0733
     42 CL         -4.7848   -7.7435   33.7554 Cl      1  UNL1       -0.0809
@<TRIPOS>BOND
     1     1     2    1
     2     2     3   ar
     3     3    33    1
     4    33    35    1
     5    35    36   ar
     6    36    37    1
     7    36    38   ar
     8    38    39   ar
     9    39    40   ar
    10    40    41   ar
    11    41    42    1
    12     3     4   ar
    13     4     5   ar
    14     5     6   ar
    15     6     7   ar
    16     7    16    1
    17    16    17    2
    18    16    18   am
    19    18    20    1
    20    20    21   ar
    21    21    22   ar
    22    22    23   ar
    23    23    30    1
    24    30    31    1
    25    23    24   ar
    26    24    26    1
    27    26    27    1
    28    26    28    1
    29    26    29    1
    30    24    25   ar
    31     7     8   ar
    32     8     9   ar
    33     9    10   ar
    34     9    11    1
    35    11    12    1
    36    12    13    1
    37    12    14    1
    38    12    15    1
    39    10     2   ar
    40    41    35   ar
    41    10     5   ar
    42    25    20   ar
    43    15     8    1
    44    33    34    1
    45    18    19    1
    46    31    32    1
