@<TRIPOS>MOLECULE
*****
 29 33 0 0 0
SMALL
GASTEIGER

@<TRIPOS>ATOM
      1 C         -22.7469   -8.3124  -11.4481 C.3     1  UNL1        0.0645
      2 C         -23.8183   -8.6088  -12.5819 C.3     1  UNL1        0.0217
      3 C         -23.2247   -8.9304  -13.9630 C.3     1  UNL1        0.0346
      4 C         -22.3200  -10.2019  -13.9462 C.3     1  UNL1        0.1252
      5 C         -21.6896  -10.4042  -12.5418 C.3     1  UNL1        0.0346
      6 C         -21.4162   -9.0488  -11.8822 C.3     1  UNL1        0.0217
      7 O         -21.2308  -10.0255  -14.8639 O.3     1  UNL1       -0.3527
      8 C         -21.6163  -10.1361  -16.2319 C.3     1  UNL1        0.1472
      9 C         -22.0394  -11.5710  -16.5837 C.3     1  UNL1        0.0597
     10 C         -23.0057  -12.0328  -15.5518 C.ar    1  UNL1       -0.0045
     11 C         -23.9002  -13.0777  -15.5651 C.ar    1  UNL1        0.0151
     12 C         -24.2035  -14.0242  -16.5414 C.ar    1  UNL1        0.0308
     13 C         -25.1989  -14.9736  -16.2439 C.ar    1  UNL1        0.1402
     14 F         -25.5278  -15.9145  -17.1628 F       1  UNL1       -0.2042
     15 C         -25.8592  -14.9510  -14.9939 C.ar    1  UNL1        0.0311
     16 C         -25.5305  -13.9803  -14.0291 C.ar    1  UNL1        0.0193
     17 C         -24.5394  -13.0536  -14.3482 C.ar    1  UNL1        0.0563
     18 N         -24.0806  -12.0496  -13.5748 N.ar    1  UNL1       -0.3549
     19 C         -23.1226  -11.4388  -14.3148 C.ar    1  UNL1        0.0544
     20 H         -24.4051  -11.8045  -12.6138 H       1  UNL1        0.1657
     21 C         -22.4808   -6.7799  -11.2965 C.ar    1  UNL1       -0.0093
     22 C         -21.1911   -6.2728  -10.9920 C.ar    1  UNL1       -0.0030
     23 C         -20.9581   -4.8995  -10.8774 C.ar    1  UNL1       -0.0003
     24 C         -21.9913   -3.9915  -11.0891 C.ar    1  UNL1       -0.0000
     25 C         -23.2571   -4.4533  -11.4366 C.ar    1  UNL1       -0.0003
     26 C         -23.4993   -5.8245  -11.5537 C.ar    1  UNL1       -0.0030
     27 C         -24.7307   -8.9098  -10.0233 C.3     1  UNL1        0.0898
     28 N         -23.2579   -8.8989  -10.1561 N.3     1  UNL1       -0.2693
     29 C         -22.6644   -8.3323   -8.9246 C.3     1  UNL1        0.0898
@<TRIPOS>BOND
     1    27    28    1
     2    28    29    1
     3     1    28    1
     4     1    21    1
     5    21    22   ar
     6    22    23   ar
     7    23    24   ar
     8    24    25   ar
     9    25    26   ar
    10     1     2    1
    11     2     3    1
    12     3     4    1
    13     4     5    1
    14     5     6    1
    15     4     7    1
    16     7     8    1
    17     8     9    1
    18     9    10    1
    19    10    11   ar
    20    11    12   ar
    21    12    13   ar
    22    13    14    1
    23    13    15   ar
    24    15    16   ar
    25    16    17   ar
    26    17    18   ar
    27    18    19   ar
    28     6     1    1
    29    19    10   ar
    30    26    21   ar
    31    19     4    1
    32    17    11   ar
    33    18    20    1
@<TRIPOS>MOLECULE
*****
 29 33 0 0 0
SMALL
GASTEIGER

@<TRIPOS>ATOM
      1 C         -24.6683   -9.2774  -12.4781 C.3     1  UNL1        0.0645
      2 C         -23.1257   -9.1264  -12.8230 C.3     1  UNL1        0.0217
      3 C         -22.3063   -8.3408  -11.7865 C.3     1  UNL1        0.0346
      4 C         -22.3220   -9.0099  -10.3766 C.3     1  UNL1        0.1252
      5 C         -23.6282   -9.8244  -10.1741 C.3     1  UNL1        0.0346
      6 C         -24.7930   -9.1508  -10.9066 C.3     1  UNL1        0.0217
      7 O         -22.3112   -7.9925   -9.3647 O.3     1  UNL1       -0.3527
      8 C         -21.0450   -7.3556   -9.2122 C.3     1  UNL1        0.1472
      9 C         -19.9944   -8.3203   -8.6400 C.3     1  UNL1        0.0597
     10 C         -20.0463   -9.5795   -9.4295 C.ar    1  UNL1       -0.0045
     11 C         -19.1384  -10.6071   -9.5389 C.ar    1  UNL1        0.0151
     12 C         -17.8820  -10.7969   -8.9675 C.ar    1  UNL1        0.0308
     13 C         -17.1854  -11.9744   -9.2976 C.ar    1  UNL1        0.1402
     14 F         -15.9596  -12.2028   -8.7657 F       1  UNL1       -0.2042
     15 C         -17.7551  -12.9194  -10.1816 C.ar    1  UNL1        0.0311
     16 C         -19.0264  -12.6971  -10.7434 C.ar    1  UNL1        0.0193
     17 C         -19.6958  -11.5243  -10.3978 C.ar    1  UNL1        0.0563
     18 N         -20.9101  -11.1218  -10.8222 N.ar    1  UNL1       -0.3549
     19 C         -21.1273   -9.9338  -10.2057 C.ar    1  UNL1        0.0544
     20 H         -21.5373  -11.6261  -11.4864 H       1  UNL1        0.1657
     21 C         -25.5224   -8.1664  -13.1700 C.ar    1  UNL1       -0.0093
     22 C         -26.9250   -8.0739  -12.9760 C.ar    1  UNL1       -0.0030
     23 C         -27.6780   -7.0653  -13.5833 C.ar    1  UNL1       -0.0003
     24 C         -27.0566   -6.1053  -14.3764 C.ar    1  UNL1       -0.0000
     25 C         -25.6761   -6.1386  -14.5483 C.ar    1  UNL1       -0.0003
     26 C         -24.9151   -7.1432  -13.9448 C.ar    1  UNL1       -0.0030
     27 C         -24.2234  -11.7521  -12.4972 C.3     1  UNL1        0.0898
     28 N         -25.1145  -10.6493  -12.9178 N.3     1  UNL1       -0.2693
     29 C         -25.4086  -10.7876  -14.3614 C.3     1  UNL1        0.0898
@<TRIPOS>BOND
     1    27    28    1
     2    28    29    1
     3     1    28    1
     4     1    21    1
     5    21    22   ar
     6    22    23   ar
     7    23    24   ar
     8    24    25   ar
     9    25    26   ar
    10     1     2    1
    11     2     3    1
    12     3     4    1
    13     4     5    1
    14     5     6    1
    15     4     7    1
    16     7     8    1
    17     8     9    1
    18     9    10    1
    19    10    11   ar
    20    11    12   ar
    21    12    13   ar
    22    13    14    1
    23    13    15   ar
    24    15    16   ar
    25    16    17   ar
    26    17    18   ar
    27    18    19   ar
    28     6     1    1
    29    19    10   ar
    30    26    21   ar
    31    19     4    1
    32    17    11   ar
    33    18    20    1
@<TRIPOS>MOLECULE
*****
 29 33 0 0 0
SMALL
GASTEIGER

@<TRIPOS>ATOM
      1 C         -23.3111   -7.9736  -11.3859 C.3     1  UNL1        0.0645
      2 C         -22.7499   -8.5024  -12.7739 C.3     1  UNL1        0.0217
      3 C         -21.7010   -9.6206  -12.6624 C.3     1  UNL1        0.0346
      4 C         -22.2579  -10.8983  -11.9603 C.3     1  UNL1        0.1252
      5 C         -23.3957  -10.5253  -10.9719 C.3     1  UNL1        0.0346
      6 C         -23.1277   -9.1523  -10.3473 C.3     1  UNL1        0.0217
      7 O         -21.2184  -11.5061  -11.1797 O.3     1  UNL1       -0.3527
      8 C         -20.2398  -12.1832  -11.9647 C.3     1  UNL1        0.1472
      9 C         -20.8288  -13.4265  -12.6496 C.3     1  UNL1        0.0597
     10 C         -22.0975  -13.0285  -13.3157 C.ar    1  UNL1       -0.0045
     11 C         -22.8295  -13.6550  -14.2974 C.ar    1  UNL1        0.0151
     12 C         -22.6186  -14.8436  -14.9930 C.ar    1  UNL1        0.0308
     13 C         -23.5679  -15.2082  -15.9660 C.ar    1  UNL1        0.1402
     14 F         -23.4052  -16.3564  -16.6681 F       1  UNL1       -0.2042
     15 C         -24.6889  -14.3839  -16.2169 C.ar    1  UNL1        0.0311
     16 C         -24.8723  -13.1881  -15.4977 C.ar    1  UNL1        0.0193
     17 C         -23.9189  -12.8518  -14.5380 C.ar    1  UNL1        0.0563
     18 N         -23.9051  -11.7597  -13.7482 N.ar    1  UNL1       -0.3549
     19 C         -22.7918  -11.8862  -12.9846 C.ar    1  UNL1        0.0544
     20 H         -24.6071  -10.9877  -13.7393 H       1  UNL1        0.1657
     21 C         -22.5338   -6.7090  -10.8968 C.ar    1  UNL1       -0.0093
     22 C         -22.2737   -6.4783   -9.5212 C.ar    1  UNL1       -0.0030
     23 C         -21.5609   -5.3545   -9.0944 C.ar    1  UNL1       -0.0003
     24 C         -21.0631   -4.4442  -10.0219 C.ar    1  UNL1       -0.0000
     25 C         -21.2588   -4.6658  -11.3817 C.ar    1  UNL1       -0.0003
     26 C         -21.9701   -5.7868  -11.8177 C.ar    1  UNL1       -0.0030
     27 C         -25.6577   -8.2632  -10.5301 C.3     1  UNL1        0.0898
     28 N         -24.7778   -7.6684  -11.5593 N.3     1  UNL1       -0.2693
     29 C         -25.3321   -7.9624  -12.8995 C.3     1  UNL1        0.0898
@<TRIPOS>BOND
     1    27    28    1
     2    28    29    1
     3     1    28    1
     4     1    21    1
     5    21    22   ar
     6    22    23   ar
     7    23    24   ar
     8    24    25   ar
     9    25    26   ar
    10     1     2    1
    11     2     3    1
    12     3     4    1
    13     4     5    1
    14     5     6    1
    15     4     7    1
    16     7     8    1
    17     8     9    1
    18     9    10    1
    19    10    11   ar
    20    11    12   ar
    21    12    13   ar
    22    13    14    1
    23    13    15   ar
    24    15    16   ar
    25    16    17   ar
    26    17    18   ar
    27    18    19   ar
    28     6     1    1
    29    19    10   ar
    30    26    21   ar
    31    19     4    1
    32    17    11   ar
    33    18    20    1
@<TRIPOS>MOLECULE
*****
 29 33 0 0 0
SMALL
GASTEIGER

@<TRIPOS>ATOM
      1 C         -24.2485   -7.3390  -12.8980 C.3     1  UNL1        0.0645
      2 C         -24.1044   -8.3917  -11.7182 C.3     1  UNL1        0.0217
      3 C         -23.8382   -9.8364  -12.1708 C.3     1  UNL1        0.0346
      4 C         -22.5096   -9.9777  -12.9773 C.3     1  UNL1        0.1252
      5 C         -22.1691   -8.6487  -13.7043 C.3     1  UNL1        0.0346
      6 C         -23.4543   -7.9320  -14.1305 C.3     1  UNL1        0.0217
      7 O         -22.6734  -10.9736  -13.9975 O.3     1  UNL1       -0.3527
      8 C         -22.6833  -12.3072  -13.4938 C.3     1  UNL1        0.1472
      9 C         -21.3081  -12.7097  -12.9382 C.3     1  UNL1        0.0597
     10 C         -20.8440  -11.6287  -12.0285 C.ar    1  UNL1       -0.0045
     11 C         -19.8662  -11.6294  -11.0610 C.ar    1  UNL1        0.0151
     12 C         -19.0116  -12.6328  -10.6094 C.ar    1  UNL1        0.0308
     13 C         -18.1145  -12.3098   -9.5742 C.ar    1  UNL1        0.1402
     14 F         -17.2633  -13.2535   -9.1023 F       1  UNL1       -0.2042
     15 C         -18.0966  -11.0081   -9.0224 C.ar    1  UNL1        0.0311
     16 C         -18.9743  -10.0169   -9.5001 C.ar    1  UNL1        0.0193
     17 C         -19.8506  -10.3625  -10.5276 C.ar    1  UNL1        0.0563
     18 N         -20.7656   -9.5707  -11.1214 N.ar    1  UNL1       -0.3549
     19 C         -21.3586  -10.3516  -12.0579 C.ar    1  UNL1        0.0544
     20 H         -20.9660   -8.5717  -10.8959 H       1  UNL1        0.1657
     21 C         -25.7453   -7.1158  -13.2884 C.ar    1  UNL1       -0.0093
     22 C         -26.1333   -6.1164  -14.2179 C.ar    1  UNL1       -0.0030
     23 C         -27.4722   -5.9367  -14.5758 C.ar    1  UNL1       -0.0003
     24 C         -28.4587   -6.7611  -14.0429 C.ar    1  UNL1       -0.0000
     25 C         -28.1067   -7.7822  -13.1655 C.ar    1  UNL1       -0.0003
     26 C         -26.7705   -7.9694  -12.8021 C.ar    1  UNL1       -0.0030
     27 C         -22.4053   -6.2104  -11.6130 C.3     1  UNL1        0.0898
     28 N         -23.6114   -6.0465  -12.4530 N.3     1  UNL1       -0.2693
     29 C         -24.5253   -5.0795  -11.8054 C.3     1  UNL1        0.0898
@<TRIPOS>BOND
     1    27    28    1
     2    28    29    1
     3     1    28    1
     4     1    21    1
     5    21    22   ar
     6    22    23   ar
     7    23    24   ar
     8    24    25   ar
     9    25    26   ar
    10     1     2    1
    11     2     3    1
    12     3     4    1
    13     4     5    1
    14     5     6    1
    15     4     7    1
    16     7     8    1
    17     8     9    1
    18     9    10    1
    19    10    11   ar
    20    11    12   ar
    21    12    13   ar
    22    13    14    1
    23    13    15   ar
    24    15    16   ar
    25    16    17   ar
    26    17    18   ar
    27    18    19   ar
    28     6     1    1
    29    19    10   ar
    30    26    21   ar
    31    19     4    1
    32    17    11   ar
    33    18    20    1
@<TRIPOS>MOLECULE
*****
 29 33 0 0 0
SMALL
GASTEIGER

@<TRIPOS>ATOM
      1 C         -22.3421   -9.5791  -11.4839 C.3     1  UNL1        0.0645
      2 C         -22.2248   -8.0726  -11.9716 C.3     1  UNL1        0.0217
      3 C         -21.8338   -7.9006  -13.4482 C.3     1  UNL1        0.0346
      4 C         -22.8712   -8.5410  -14.4225 C.3     1  UNL1        0.1252
      5 C         -23.6013   -9.7281  -13.7382 C.3     1  UNL1        0.0346
      6 C         -22.6561  -10.4455  -12.7692 C.3     1  UNL1        0.0217
      7 O         -22.1862   -9.0818  -15.5618 O.3     1  UNL1       -0.3527
      8 C         -21.7231   -8.0870  -16.4718 C.3     1  UNL1        0.1472
      9 C         -22.8919   -7.3740  -17.1696 C.3     1  UNL1        0.0597
     10 C         -23.8676   -6.9589  -16.1268 C.ar    1  UNL1       -0.0045
     11 C         -24.8919   -6.0420  -16.1716 C.ar    1  UNL1        0.0151
     12 C         -25.3367   -5.1999  -17.1886 C.ar    1  UNL1        0.0308
     13 C         -26.4247   -4.3531  -16.9065 C.ar    1  UNL1        0.1402
     14 F         -26.8927   -3.5164  -17.8650 F       1  UNL1       -0.2042
     15 C         -27.0315   -4.3682  -15.6295 C.ar    1  UNL1        0.0311
     16 C         -26.5573   -5.2299  -14.6227 C.ar    1  UNL1        0.0193
     17 C         -25.4803   -6.0600  -14.9293 C.ar    1  UNL1        0.0563
     18 N         -24.8773   -6.9495  -14.1156 N.ar    1  UNL1       -0.3549
     19 C         -23.8990   -7.5132  -14.8665 C.ar    1  UNL1        0.0544
     20 H         -25.1205   -7.1491  -13.1207 H       1  UNL1        0.1657
     21 C         -21.0155  -10.0728  -10.8215 C.ar    1  UNL1       -0.0093
     22 C         -20.5362  -11.3955  -11.0061 C.ar    1  UNL1       -0.0030
     23 C         -19.3387  -11.8226  -10.4258 C.ar    1  UNL1       -0.0003
     24 C         -18.5707  -10.9418   -9.6701 C.ar    1  UNL1       -0.0000
     25 C         -18.9877   -9.6239   -9.5093 C.ar    1  UNL1       -0.0003
     26 C         -20.1834   -9.1879  -10.0861 C.ar    1  UNL1       -0.0030
     27 C         -24.4043   -8.5045  -10.5272 C.3     1  UNL1        0.0898
     28 N         -23.4926   -9.6689  -10.5130 N.3     1  UNL1       -0.2693
     29 C         -23.1190   -9.9747   -9.1142 C.3     1  UNL1        0.0898
@<TRIPOS>BOND
     1    27    28    1
     2    28    29    1
     3     1    28    1
     4     1    21    1
     5    21    22   ar
     6    22    23   ar
     7    23    24   ar
     8    24    25   ar
     9    25    26   ar
    10     1     2    1
    11     2     3    1
    12     3     4    1
    13     4     5    1
    14     5     6    1
    15     4     7    1
    16     7     8    1
    17     8     9    1
    18     9    10    1
    19    10    11   ar
    20    11    12   ar
    21    12    13   ar
    22    13    14    1
    23    13    15   ar
    24    15    16   ar
    25    16    17   ar
    26    17    18   ar
    27    18    19   ar
    28     6     1    1
    29    19    10   ar
    30    26    21   ar
    31    19     4    1
    32    17    11   ar
    33    18    20    1
@<TRIPOS>MOLECULE
*****
 29 33 0 0 0
SMALL
GASTEIGER

@<TRIPOS>ATOM
      1 C         -22.6625   -8.5873  -13.1151 C.3     1  UNL1        0.0645
      2 C         -23.7514   -8.6870  -14.2663 C.3     1  UNL1        0.0217
      3 C         -25.2057   -8.7653  -13.7746 C.3     1  UNL1        0.0346
      4 C         -25.6295   -7.5089  -12.9514 C.3     1  UNL1        0.1252
      5 C         -24.3966   -6.8720  -12.2549 C.3     1  UNL1        0.0346
      6 C         -23.3902   -7.9574  -11.8600 C.3     1  UNL1        0.0217
      7 O         -26.5324   -7.9035  -11.9081 O.3     1  UNL1       -0.3527
      8 C         -27.8404   -8.2208  -12.3778 C.3     1  UNL1        0.1472
      9 C         -28.5658   -6.9745  -12.9092 C.3     1  UNL1        0.0597
     10 C         -27.6469   -6.2685  -13.8413 C.ar    1  UNL1       -0.0045
     11 C         -27.9005   -5.3137  -14.7985 C.ar    1  UNL1        0.0151
     12 C         -29.0866   -4.7137  -15.2159 C.ar    1  UNL1        0.0308
     13 C         -29.0086   -3.7621  -16.2498 C.ar    1  UNL1        0.1402
     14 F         -30.1364   -3.1514  -16.6891 F       1  UNL1       -0.2042
     15 C         -27.7620   -3.4402  -16.8342 C.ar    1  UNL1        0.0311
     16 C         -26.5817   -4.0657  -16.3906 C.ar    1  UNL1        0.0193
     17 C         -26.6867   -5.0023  -15.3637 C.ar    1  UNL1        0.0563
     18 N         -25.6885   -5.7108  -14.7994 N.ar    1  UNL1       -0.3549
     19 C         -26.2850   -6.4726  -13.8494 C.ar    1  UNL1        0.0544
     20 H         -24.6767   -5.6729  -15.0521 H       1  UNL1        0.1657
     21 C         -22.0877   -9.9929  -12.7456 C.ar    1  UNL1       -0.0093
     22 C         -22.0514  -11.0551  -13.6856 C.ar    1  UNL1       -0.0030
     23 C         -21.5177  -12.3030  -13.3525 C.ar    1  UNL1       -0.0003
     24 C         -20.9805  -12.5225  -12.0875 C.ar    1  UNL1       -0.0000
     25 C         -20.9566  -11.4876  -11.1576 C.ar    1  UNL1       -0.0003
     26 C         -21.4877  -10.2365  -11.4819 C.ar    1  UNL1       -0.0030
     27 C         -20.9962   -8.0091  -14.9072 C.3     1  UNL1        0.0898
     28 N         -21.5656   -7.6658  -13.5862 N.3     1  UNL1       -0.2693
     29 C         -20.4622   -7.4502  -12.6241 C.3     1  UNL1        0.0898
@<TRIPOS>BOND
     1    27    28    1
     2    28    29    1
     3     1    28    1
     4     1    21    1
     5    21    22   ar
     6    22    23   ar
     7    23    24   ar
     8    24    25   ar
     9    25    26   ar
    10     1     2    1
    11     2     3    1
    12     3     4    1
    13     4     5    1
    14     5     6    1
    15     4     7    1
    16     7     8    1
    17     8     9    1
    18     9    10    1
    19    10    11   ar
    20    11    12   ar
    21    12    13   ar
    22    13    14    1
    23    13    15   ar
    24    15    16   ar
    25    16    17   ar
    26    17    18   ar
    27    18    19   ar
    28     6     1    1
    29    19    10   ar
    30    26    21   ar
    31    19     4    1
    32    17    11   ar
    33    18    20    1
@<TRIPOS>MOLECULE
*****
 29 33 0 0 0
SMALL
GASTEIGER

@<TRIPOS>ATOM
      1 C         -22.3711   -6.6071  -11.1971 C.3     1  UNL1        0.0645
      2 C         -22.4998   -7.6102   -9.9731 C.3     1  UNL1        0.0217
      3 C         -21.8710   -8.9939  -10.2034 C.3     1  UNL1        0.0346
      4 C         -20.3368   -8.9176  -10.4791 C.3     1  UNL1        0.1252
      5 C         -19.9664   -7.5569  -11.1286 C.3     1  UNL1        0.0346
      6 C         -21.1071   -7.0697  -12.0277 C.3     1  UNL1        0.0217
      7 O         -19.9694   -9.9360  -11.4210 O.3     1  UNL1       -0.3527
      8 C         -19.9545  -11.2479  -10.8632 C.3     1  UNL1        0.1472
      9 C         -18.8255  -11.4092   -9.8332 C.3     1  UNL1        0.0597
     10 C         -18.8899  -10.2576   -8.8944 C.ar    1  UNL1       -0.0045
     11 C         -18.3359  -10.0858   -7.6471 C.ar    1  UNL1        0.0151
     12 C         -17.5570  -10.9277   -6.8562 C.ar    1  UNL1        0.0308
     13 C         -17.1513  -10.4497   -5.5962 C.ar    1  UNL1        0.1402
     14 F         -16.3919  -11.2331   -4.7917 F       1  UNL1       -0.2042
     15 C         -17.5321   -9.1586   -5.1637 C.ar    1  UNL1        0.0311
     16 C         -18.3211   -8.3327   -5.9862 C.ar    1  UNL1        0.0193
     17 C         -18.7070   -8.8295   -7.2301 C.ar    1  UNL1        0.0563
     18 N         -19.4582   -8.2076   -8.1605 N.ar    1  UNL1       -0.3549
     19 C         -19.5490   -9.0852   -9.1901 C.ar    1  UNL1        0.0544
     20 H         -19.8767   -7.2543   -8.0888 H       1  UNL1        0.1657
     21 C         -23.6439   -6.6414  -12.1035 C.ar    1  UNL1       -0.0093
     22 C         -24.6981   -5.7048  -11.9458 C.ar    1  UNL1       -0.0030
     23 C         -25.8238   -5.7308  -12.7736 C.ar    1  UNL1       -0.0003
     24 C         -25.9215   -6.6683  -13.7975 C.ar    1  UNL1       -0.0000
     25 C         -24.8835   -7.5704  -14.0102 C.ar    1  UNL1       -0.0003
     26 C         -23.7541   -7.5516  -13.1877 C.ar    1  UNL1       -0.0030
     27 C         -21.1404   -4.4224  -11.3834 C.3     1  UNL1        0.0898
     28 N         -22.1420   -5.2222  -10.6458 N.3     1  UNL1       -0.2693
     29 C         -21.8426   -5.1581   -9.1980 C.3     1  UNL1        0.0898
@<TRIPOS>BOND
     1    27    28    1
     2    28    29    1
     3     1    28    1
     4     1    21    1
     5    21    22   ar
     6    22    23   ar
     7    23    24   ar
     8    24    25   ar
     9    25    26   ar
    10     1     2    1
    11     2     3    1
    12     3     4    1
    13     4     5    1
    14     5     6    1
    15     4     7    1
    16     7     8    1
    17     8     9    1
    18     9    10    1
    19    10    11   ar
    20    11    12   ar
    21    12    13   ar
    22    13    14    1
    23    13    15   ar
    24    15    16   ar
    25    16    17   ar
    26    17    18   ar
    27    18    19   ar
    28     6     1    1
    29    19    10   ar
    30    26    21   ar
    31    19     4    1
    32    17    11   ar
    33    18    20    1
@<TRIPOS>MOLECULE
*****
 29 33 0 0 0
SMALL
GASTEIGER

@<TRIPOS>ATOM
      1 C         -23.2080  -11.4849  -15.1569 C.3     1  UNL1        0.0645
      2 C         -23.8710  -10.9364  -13.8225 C.3     1  UNL1        0.0217
      3 C         -23.0078  -11.0942  -12.5605 C.3     1  UNL1        0.0346
      4 C         -21.6523  -10.3271  -12.6605 C.3     1  UNL1        0.1252
      5 C         -21.2026  -10.2054  -14.1416 C.3     1  UNL1        0.0346
      6 C         -21.6429  -11.4407  -14.9335 C.3     1  UNL1        0.0217
      7 O         -20.6308  -11.0715  -11.9808 O.3     1  UNL1       -0.3527
      8 C         -20.7317  -11.0091  -10.5602 C.3     1  UNL1        0.1472
      9 C         -20.4336   -9.5957  -10.0358 C.3     1  UNL1        0.0597
     10 C         -21.2378   -8.6298  -10.8308 C.ar    1  UNL1       -0.0045
     11 C         -21.5766   -7.3213  -10.5754 C.ar    1  UNL1        0.0151
     12 C         -21.2960   -6.4863   -9.4960 C.ar    1  UNL1        0.0308
     13 C         -21.8100   -5.1767   -9.5325 C.ar    1  UNL1        0.1402
     14 F         -21.5629   -4.3277   -8.5049 F       1  UNL1       -0.2042
     15 C         -22.5839   -4.7415  -10.6329 C.ar    1  UNL1        0.0311
     16 C         -22.8507   -5.6105  -11.7075 C.ar    1  UNL1        0.0193
     17 C         -22.3276   -6.9012  -11.6475 C.ar    1  UNL1        0.0563
     18 N         -22.4661   -7.8818  -12.5617 N.ar    1  UNL1       -0.3549
     19 C         -21.7754   -8.9358  -12.0612 C.ar    1  UNL1        0.0544
     20 H         -22.9974   -7.8280  -13.4582 H       1  UNL1        0.1657
     21 C         -23.6598  -12.9496  -15.4623 C.ar    1  UNL1       -0.0093
     22 C         -22.7209  -13.9974  -15.6460 C.ar    1  UNL1       -0.0030
     23 C         -23.1345  -15.3081  -15.8995 C.ar    1  UNL1       -0.0003
     24 C         -24.4898  -15.6199  -15.9499 C.ar    1  UNL1       -0.0000
     25 C         -25.4369  -14.6252  -15.7263 C.ar    1  UNL1       -0.0003
     26 C         -25.0327  -13.3120  -15.4719 C.ar    1  UNL1       -0.0030
     27 C         -23.0736  -10.9578  -17.6119 C.3     1  UNL1        0.0898
     28 N         -23.5899  -10.5592  -16.2846 N.3     1  UNL1       -0.2693
     29 C         -23.2910   -9.1277  -16.0583 C.3     1  UNL1        0.0898
@<TRIPOS>BOND
     1    27    28    1
     2    28    29    1
     3     1    28    1
     4     1    21    1
     5    21    22   ar
     6    22    23   ar
     7    23    24   ar
     8    24    25   ar
     9    25    26   ar
    10     1     2    1
    11     2     3    1
    12     3     4    1
    13     4     5    1
    14     5     6    1
    15     4     7    1
    16     7     8    1
    17     8     9    1
    18     9    10    1
    19    10    11   ar
    20    11    12   ar
    21    12    13   ar
    22    13    14    1
    23    13    15   ar
    24    15    16   ar
    25    16    17   ar
    26    17    18   ar
    27    18    19   ar
    28     6     1    1
    29    19    10   ar
    30    26    21   ar
    31    19     4    1
    32    17    11   ar
    33    18    20    1
@<TRIPOS>MOLECULE
*****
 29 33 0 0 0
SMALL
GASTEIGER

@<TRIPOS>ATOM
      1 C         -25.2963   -7.1104  -13.6036 C.3     1  UNL1        0.0645
      2 C         -25.2968   -8.5060  -12.8462 C.3     1  UNL1        0.0217
      3 C         -25.0090   -9.7246  -13.7378 C.3     1  UNL1        0.0346
      4 C         -23.6047   -9.6546  -14.4151 C.3     1  UNL1        0.1252
      5 C         -23.1658   -8.1779  -14.6090 C.3     1  UNL1        0.0346
      6 C         -24.3858   -7.2930  -14.8839 C.3     1  UNL1        0.0217
      7 O         -23.6762  -10.2372  -15.7247 O.3     1  UNL1       -0.3527
      8 C         -23.7627  -11.6601  -15.7101 C.3     1  UNL1        0.1472
      9 C         -22.4617  -12.2983  -15.1984 C.3     1  UNL1        0.0597
     10 C         -22.0784  -11.6142  -13.9348 C.ar    1  UNL1       -0.0045
     11 C         -21.2092  -11.9931  -12.9383 C.ar    1  UNL1        0.0151
     12 C         -20.4250  -13.1335  -12.7781 C.ar    1  UNL1        0.0308
     13 C         -19.6377  -13.2268  -11.6154 C.ar    1  UNL1        0.1402
     14 F         -18.8581  -14.3178  -11.4161 F       1  UNL1       -0.2042
     15 C         -19.6561  -12.1911  -10.6531 C.ar    1  UNL1        0.0311
     16 C         -20.4607  -11.0521  -10.8440 C.ar    1  UNL1        0.0193
     17 C         -21.2286  -10.9836  -12.0053 C.ar    1  UNL1        0.0563
     18 N         -22.0613   -9.9908  -12.3763 N.ar    1  UNL1       -0.3549
     19 C         -22.5647  -10.3771  -13.5746 C.ar    1  UNL1        0.0544
     20 H         -22.2673   -9.1178  -11.8432 H       1  UNL1        0.1657
     21 C         -26.7390   -6.6901  -14.0333 C.ar    1  UNL1       -0.0093
     22 C         -27.8774   -7.4591  -13.6784 C.ar    1  UNL1       -0.0030
     23 C         -29.1656   -7.0653  -14.0504 C.ar    1  UNL1       -0.0003
     24 C         -29.3620   -5.8844  -14.7601 C.ar    1  UNL1       -0.0000
     25 C         -28.2716   -5.0822  -15.0825 C.ar    1  UNL1       -0.0003
     26 C         -26.9799   -5.4678  -14.7144 C.ar    1  UNL1       -0.0030
     27 C         -23.7151   -6.6189  -11.7113 C.3     1  UNL1        0.0898
     28 N         -24.6879   -6.0797  -12.6860 N.3     1  UNL1       -0.2693
     29 C         -25.6550   -5.2130  -11.9767 C.3     1  UNL1        0.0898
@<TRIPOS>BOND
     1    27    28    1
     2    28    29    1
     3     1    28    1
     4     1    21    1
     5    21    22   ar
     6    22    23   ar
     7    23    24   ar
     8    24    25   ar
     9    25    26   ar
    10     1     2    1
    11     2     3    1
    12     3     4    1
    13     4     5    1
    14     5     6    1
    15     4     7    1
    16     7     8    1
    17     8     9    1
    18     9    10    1
    19    10    11   ar
    20    11    12   ar
    21    12    13   ar
    22    13    14    1
    23    13    15   ar
    24    15    16   ar
    25    16    17   ar
    26    17    18   ar
    27    18    19   ar
    28     6     1    1
    29    19    10   ar
    30    26    21   ar
    31    19     4    1
    32    17    11   ar
    33    18    20    1
