@<TRIPOS>MOLECULE
*****
 52 57 0 0 0
SMALL
GASTEIGER

@<TRIPOS>ATOM
      1 C          59.6504   89.4316    7.2185 C.ar    1  UNL1        0.0502
      2 C          59.9238   90.0714    8.4362 C.ar    1  UNL1        0.0148
      3 C          59.8011   89.3784    9.6429 C.ar    1  UNL1        0.0080
      4 C          59.4121   88.0288    9.6541 C.ar    1  UNL1        0.0808
      5 C          59.1257   87.3885    8.4333 C.ar    1  UNL1        0.1457
      6 F          58.6803   86.1069    8.4043 F       1  UNL1       -0.2040
      7 C          59.2491   88.0861    7.2274 C.ar    1  UNL1        0.0443
      8 N          60.1757   91.9677    3.9153 N.pl3   1  UNL1       -0.3041
      9 C          58.9568   92.0951    4.7227 C.3     1  UNL1        0.1122
     10 C          58.5990   90.7446    5.3441 C.3     1  UNL1        0.1122
     11 N          59.7825   90.1507    5.9779 N.pl3   1  UNL1       -0.3040
     12 C          61.0021   90.0244    5.1707 C.3     1  UNL1        0.1122
     13 C          61.3594   91.3749    4.5493 C.3     1  UNL1        0.1122
     14 C          60.5528   94.0963    0.2406 C.ar    1  UNL1        0.0112
     15 C          61.5400   94.1942    1.2357 C.ar    1  UNL1       -0.0006
     16 C          61.4183   93.5010    2.4377 C.ar    1  UNL1        0.0143
     17 C          60.3075   92.6842    2.6732 C.ar    1  UNL1        0.0479
     18 C          59.3174   92.5707    1.6878 C.ar    1  UNL1        0.0181
     19 C          59.4201   93.2624    0.4624 C.ar    1  UNL1        0.0710
     20 C          58.3319   93.0921   -0.5824 C.3     1  UNL1        0.4184
     21 F          57.7007   94.2898   -0.8727 F       1  UNL1       -0.1659
     22 F          57.3734   92.2097   -0.1174 F       1  UNL1       -0.1659
     23 F          58.8784   92.6057   -1.7557 F       1  UNL1       -0.1659
     24 C          60.7675   94.8925   -1.0326 C.3     1  UNL1        0.1686
     25 C          62.8263   94.2742   -1.8993 C.3     1  UNL1        0.1746
     26 O          61.4289   94.1126   -2.0109 O.3     1  UNL1       -0.3463
     27 C          59.3021   87.3145   10.9439 C.2     1  UNL1        0.2483
     28 O          58.5042   86.3421   11.0412 O.2     1  UNL1       -0.2701
     29 N          60.0515   87.7485   12.0918 N.am    1  UNL1       -0.2945
     30 H          60.5672   88.6556   12.0319 H       1  UNL1        0.1501
     31 C          59.8812   87.1467   13.4198 C.3     1  UNL1        0.1535
     32 C          61.0100   86.1910   13.7028 C.2     1  UNL1        0.2443
     33 O          60.7866   85.1364   14.3584 O.2     1  UNL1       -0.2730
     34 N          62.3098   86.4348   13.1414 N.am    1  UNL1       -0.2825
     35 H          62.3792   87.1161   12.3516 H       1  UNL1        0.1549
     36 C          63.4982   85.7207   13.5224 C.ar    1  UNL1        0.0535
     37 C          63.7921   84.4950   12.9093 C.ar    1  UNL1        0.0353
     38 C          64.9570   83.8080   13.2591 C.ar    1  UNL1        0.1002
     39 N          65.8093   84.3345   14.1777 N.ar    1  UNL1       -0.2422
     40 C          65.5619   85.5300   14.7750 C.ar    1  UNL1        0.1002
     41 C          64.4076   86.2492   14.4548 C.ar    1  UNL1        0.0353
     42 C          59.8351   88.2394   14.5007 C.3     1  UNL1        0.0569
     43 C          61.2165   88.6867   14.8822 C.ar    1  UNL1       -0.0017
     44 C          61.9054   88.3468   16.0432 C.ar    1  UNL1        0.0681
     45 N          63.1700   88.8245   15.9988 N.ar    1  UNL1       -0.3523
     46 C          63.2887   89.4515   14.8156 C.ar    1  UNL1        0.0563
     47 C          64.4242   90.0747   14.3000 C.ar    1  UNL1        0.0170
     48 C          64.3368   90.6415   13.0150 C.ar    1  UNL1        0.0015
     49 C          63.1323   90.5680   12.2805 C.ar    1  UNL1        0.0001
     50 C          62.0034   89.9290   12.8247 C.ar    1  UNL1        0.0012
     51 C          62.1183   89.3848   14.1038 C.ar    1  UNL1        0.0131
     52 H          63.9090   88.7047   16.7267 H       1  UNL1        0.1660
@<TRIPOS>BOND
     1    25    26    1
     2    26    24    1
     3    24    14    1
     4    14    15   ar
     5    15    16   ar
     6    16    17   ar
     7    17     8    1
     8     8     9    1
     9     9    10    1
    10    10    11    1
    11    11     1    1
    12     1     2   ar
    13     2     3   ar
    14     3     4   ar
    15     4    27    1
    16    27    28    2
    17    27    29   am
    18    29    31    1
    19    31    42    1
    20    42    43    1
    21    43    44   ar
    22    44    45   ar
    23    45    46   ar
    24    46    47   ar
    25    47    48   ar
    26    48    49   ar
    27    49    50   ar
    28    50    51   ar
    29    31    32    1
    30    32    33    2
    31    32    34   am
    32    34    36    1
    33    36    37   ar
    34    37    38   ar
    35    38    39   ar
    36    39    40   ar
    37    40    41   ar
    38     4     5   ar
    39     5     6    1
    40     5     7   ar
    41    11    12    1
    42    12    13    1
    43    17    18   ar
    44    18    19   ar
    45    19    20    1
    46    20    21    1
    47    20    22    1
    48    20    23    1
    49    19    14   ar
    50    13     8    1
    51     7     1   ar
    52    51    43   ar
    53    41    36   ar
    54    51    46   ar
    55    29    30    1
    56    45    52    1
    57    34    35    1
@<TRIPOS>MOLECULE
*****
 52 57 0 0 0
SMALL
GASTEIGER

@<TRIPOS>ATOM
      1 C          59.9100   89.3461    7.3363 C.ar    1  UNL1        0.0502
      2 C          60.4432   89.9079    8.5055 C.ar    1  UNL1        0.0148
      3 C          60.4012   89.2044    9.7116 C.ar    1  UNL1        0.0080
      4 C          59.8336   87.9209    9.7694 C.ar    1  UNL1        0.0808
      5 C          59.2871   87.3604    8.5991 C.ar    1  UNL1        0.1457
      6 F          58.6679   86.1531    8.6260 F       1  UNL1       -0.2040
      7 C          59.3305   88.0684    7.3937 C.ar    1  UNL1        0.0443
      8 N          60.2151   91.9090    4.0261 N.pl3   1  UNL1       -0.3041
      9 C          59.0507   92.0271    4.9118 C.3     1  UNL1        0.1122
     10 C          58.7367   90.6709    5.5444 C.3     1  UNL1        0.1122
     11 N          59.9600   90.0751    6.0955 N.pl3   1  UNL1       -0.3040
     12 C          61.1249   89.9581    5.2100 C.3     1  UNL1        0.1122
     13 C          61.4386   91.3142    4.5774 C.3     1  UNL1        0.1122
     14 C          60.3665   94.0471    0.3407 C.ar    1  UNL1        0.0112
     15 C          59.1628   93.9256    1.0555 C.ar    1  UNL1       -0.0006
     16 C          59.1105   93.2263    2.2589 C.ar    1  UNL1        0.0143
     17 C          60.2646   92.6354    2.7838 C.ar    1  UNL1        0.0479
     18 C          61.4744   92.7533    2.0862 C.ar    1  UNL1        0.0181
     19 C          61.5515   93.4578    0.8663 C.ar    1  UNL1        0.0710
     20 C          62.8888   93.5754    0.1574 C.3     1  UNL1        0.4184
     21 F          63.3084   94.8912    0.0581 F       1  UNL1       -0.1659
     22 F          62.7831   93.0662   -1.1244 F       1  UNL1       -0.1659
     23 F          63.8545   92.8741    0.8557 F       1  UNL1       -0.1659
     24 C          60.3258   94.8209   -0.9633 C.3     1  UNL1        0.1686
     25 C          59.1401   93.0876   -1.9442 C.3     1  UNL1        0.1746
     26 O          60.2559   93.9421   -2.0705 O.3     1  UNL1       -0.3463
     27 C          59.8131   87.1922   11.0556 C.2     1  UNL1        0.2483
     28 O          59.1000   87.6315   11.9991 O.2     1  UNL1       -0.2701
     29 N          60.6325   86.0274   11.2548 N.am    1  UNL1       -0.2945
     30 H          61.3398   85.7890   10.5231 H       1  UNL1        0.1501
     31 C          60.7359   85.3468   12.5513 C.3     1  UNL1        0.1535
     32 C          60.0928   83.9874   12.4740 C.2     1  UNL1        0.2443
     33 O          60.2819   83.1529   13.4013 O.2     1  UNL1       -0.2730
     34 N          59.1902   83.6843   11.3983 N.am    1  UNL1       -0.2825
     35 H          58.8041   84.4840   10.8466 H       1  UNL1        0.1549
     36 C          58.7004   82.3645   11.1055 C.ar    1  UNL1        0.0535
     37 C          58.1950   82.0845    9.8285 C.ar    1  UNL1        0.0353
     38 C          57.7390   80.7980    9.5316 C.ar    1  UNL1        0.1002
     39 N          57.8007   79.8187   10.4721 N.ar    1  UNL1       -0.2422
     40 C          58.3035   80.0541   11.7127 C.ar    1  UNL1        0.1002
     41 C          58.7693   81.3271   12.0515 C.ar    1  UNL1        0.0353
     42 C          62.2098   85.2073   12.9665 C.3     1  UNL1        0.0569
     43 C          62.6905   86.4327   13.6885 C.ar    1  UNL1       -0.0017
     44 C          63.0679   87.6406   13.1082 C.ar    1  UNL1        0.0681
     45 N          63.3249   88.5632   14.0632 N.ar    1  UNL1       -0.3523
     46 C          63.1011   87.9522   15.2396 C.ar    1  UNL1        0.0563
     47 C          63.1995   88.5100   16.5134 C.ar    1  UNL1        0.0170
     48 C          62.8822   87.6940   17.6149 C.ar    1  UNL1        0.0015
     49 C          62.4724   86.3561   17.4202 C.ar    1  UNL1        0.0001
     50 C          62.3781   85.8211   16.1225 C.ar    1  UNL1        0.0012
     51 C          62.7078   86.6519   15.0516 C.ar    1  UNL1        0.0131
     52 H          63.6123   89.5555   13.9120 H       1  UNL1        0.1660
@<TRIPOS>BOND
     1    25    26    1
     2    26    24    1
     3    24    14    1
     4    14    15   ar
     5    15    16   ar
     6    16    17   ar
     7    17     8    1
     8     8     9    1
     9     9    10    1
    10    10    11    1
    11    11     1    1
    12     1     2   ar
    13     2     3   ar
    14     3     4   ar
    15     4    27    1
    16    27    28    2
    17    27    29   am
    18    29    31    1
    19    31    42    1
    20    42    43    1
    21    43    44   ar
    22    44    45   ar
    23    45    46   ar
    24    46    47   ar
    25    47    48   ar
    26    48    49   ar
    27    49    50   ar
    28    50    51   ar
    29    31    32    1
    30    32    33    2
    31    32    34   am
    32    34    36    1
    33    36    37   ar
    34    37    38   ar
    35    38    39   ar
    36    39    40   ar
    37    40    41   ar
    38     4     5   ar
    39     5     6    1
    40     5     7   ar
    41    11    12    1
    42    12    13    1
    43    17    18   ar
    44    18    19   ar
    45    19    20    1
    46    20    21    1
    47    20    22    1
    48    20    23    1
    49    19    14   ar
    50    13     8    1
    51     7     1   ar
    52    51    43   ar
    53    41    36   ar
    54    51    46   ar
    55    29    30    1
    56    45    52    1
    57    34    35    1
@<TRIPOS>MOLECULE
*****
 52 57 0 0 0
SMALL
GASTEIGER

@<TRIPOS>ATOM
      1 C          59.7013   89.1598    7.3269 C.ar    1  UNL1        0.0502
      2 C          59.0270   87.9302    7.3183 C.ar    1  UNL1        0.0148
      3 C          58.9050   87.1817    8.4915 C.ar    1  UNL1        0.0080
      4 C          59.4467   87.6538    9.6984 C.ar    1  UNL1        0.0808
      5 C          60.1343   88.8825    9.7062 C.ar    1  UNL1        0.1457
      6 F          60.7320   89.3413   10.8349 F       1  UNL1       -0.2040
      7 C          60.2549   89.6283    8.5293 C.ar    1  UNL1        0.0443
      8 N          60.1843   91.8284    4.1231 N.pl3   1  UNL1       -0.3041
      9 C          58.9674   91.9103    4.9393 C.3     1  UNL1        0.1122
     10 C          58.6275   90.5327    5.5090 C.3     1  UNL1        0.1122
     11 N          59.8202   89.9282    6.1148 N.pl3   1  UNL1       -0.3040
     12 C          61.0377   89.8473    5.2987 C.3     1  UNL1        0.1122
     13 C          61.3772   91.2249    4.7291 C.3     1  UNL1        0.1122
     14 C          60.5436   94.0845    0.5234 C.ar    1  UNL1        0.0112
     15 C          59.2834   93.6965    1.0090 C.ar    1  UNL1       -0.0006
     16 C          59.1636   92.9580    2.1839 C.ar    1  UNL1        0.0143
     17 C          60.3028   92.5941    2.9094 C.ar    1  UNL1        0.0479
     18 C          61.5666   92.9793    2.4418 C.ar    1  UNL1        0.0181
     19 C          61.7121   93.7284    1.2551 C.ar    1  UNL1        0.0710
     20 C          63.1007   94.1394    0.7994 C.3     1  UNL1        0.4184
     21 F          63.9061   93.0434    0.5400 F       1  UNL1       -0.1659
     22 F          63.7121   94.8904    1.7872 F       1  UNL1       -0.1659
     23 F          63.0131   94.8853   -0.3616 F       1  UNL1       -0.1659
     24 C          60.5763   94.8806   -0.7674 C.3     1  UNL1        0.1686
     25 C          60.7215   92.8547   -1.8840 C.3     1  UNL1        0.1746
     26 O          60.0819   94.1119   -1.8479 O.3     1  UNL1       -0.3463
     27 C          59.2926   86.8486   10.9287 C.2     1  UNL1        0.2483
     28 O          58.5510   87.2777   11.8546 O.2     1  UNL1       -0.2701
     29 N          60.0162   85.6174   11.0979 N.am    1  UNL1       -0.2945
     30 H          60.7519   85.3754   10.3961 H       1  UNL1        0.1501
     31 C          59.9881   84.8504   12.3492 C.3     1  UNL1        0.1535
     32 C          60.4294   85.7187   13.4976 C.2     1  UNL1        0.2443
     33 O          59.6100   86.0103   14.4116 O.2     1  UNL1       -0.2730
     34 N          61.8032   86.1268   13.5976 N.am    1  UNL1       -0.2825
     35 H          62.5080   85.6087   13.0251 H       1  UNL1        0.1549
     36 C          62.2820   87.1248   14.5152 C.ar    1  UNL1        0.0535
     37 C          62.2300   88.4774   14.1511 C.ar    1  UNL1        0.0353
     38 C          62.6727   89.4528   15.0475 C.ar    1  UNL1        0.1002
     39 N          63.1363   89.0924   16.2733 N.ar    1  UNL1       -0.2422
     40 C          63.1808   87.7910   16.6629 C.ar    1  UNL1        0.1002
     41 C          62.7487   86.7837   15.7964 C.ar    1  UNL1        0.0353
     42 C          58.5732   84.3095   12.6137 C.3     1  UNL1        0.0569
     43 C          58.2315   83.1934   11.6695 C.ar    1  UNL1       -0.0017
     44 C          57.8352   83.3250   10.3414 C.ar    1  UNL1        0.0681
     45 N          57.7314   82.1097    9.7571 N.ar    1  UNL1       -0.3523
     46 C          58.0705   81.2139   10.7004 C.ar    1  UNL1        0.0563
     47 C          58.1479   79.8290   10.5613 C.ar    1  UNL1        0.0170
     48 C          58.5627   79.0783   11.6769 C.ar    1  UNL1        0.0015
     49 C          58.8929   79.7220   12.8903 C.ar    1  UNL1        0.0001
     50 C          58.8095   81.1220   13.0003 C.ar    1  UNL1        0.0012
     51 C          58.3867   81.8377   11.8802 C.ar    1  UNL1        0.0131
     52 H          57.4673   81.9135    8.7661 H       1  UNL1        0.1660
@<TRIPOS>BOND
     1    25    26    1
     2    26    24    1
     3    24    14    1
     4    14    15   ar
     5    15    16   ar
     6    16    17   ar
     7    17     8    1
     8     8     9    1
     9     9    10    1
    10    10    11    1
    11    11     1    1
    12     1     2   ar
    13     2     3   ar
    14     3     4   ar
    15     4    27    1
    16    27    28    2
    17    27    29   am
    18    29    31    1
    19    31    42    1
    20    42    43    1
    21    43    44   ar
    22    44    45   ar
    23    45    46   ar
    24    46    47   ar
    25    47    48   ar
    26    48    49   ar
    27    49    50   ar
    28    50    51   ar
    29    31    32    1
    30    32    33    2
    31    32    34   am
    32    34    36    1
    33    36    37   ar
    34    37    38   ar
    35    38    39   ar
    36    39    40   ar
    37    40    41   ar
    38     4     5   ar
    39     5     6    1
    40     5     7   ar
    41    11    12    1
    42    12    13    1
    43    17    18   ar
    44    18    19   ar
    45    19    20    1
    46    20    21    1
    47    20    22    1
    48    20    23    1
    49    19    14   ar
    50    13     8    1
    51     7     1   ar
    52    51    43   ar
    53    41    36   ar
    54    51    46   ar
    55    29    30    1
    56    45    52    1
    57    34    35    1
@<TRIPOS>MOLECULE
*****
 52 57 0 0 0
SMALL
GASTEIGER

@<TRIPOS>ATOM
      1 C          59.8660   89.2332    7.3946 C.ar    1  UNL1        0.0502
      2 C          59.3703   87.9215    7.4162 C.ar    1  UNL1        0.0148
      3 C          59.3074   87.2083    8.6157 C.ar    1  UNL1        0.0080
      4 C          59.7302   87.7973    9.8188 C.ar    1  UNL1        0.0808
      5 C          60.2393   89.1098    9.7969 C.ar    1  UNL1        0.1457
      6 F          60.7223   89.6906   10.9243 F       1  UNL1       -0.2040
      7 C          60.3012   89.8201    8.5937 C.ar    1  UNL1        0.0443
      8 N          60.2025   91.7986    4.0894 N.pl3   1  UNL1       -0.3041
      9 C          59.0415   91.9315    4.9773 C.3     1  UNL1        0.1122
     10 C          58.7090   90.5786    5.6075 C.3     1  UNL1        0.1122
     11 N          59.9245   89.9642    6.1552 N.pl3   1  UNL1       -0.3040
     12 C          61.0862   89.8323    5.2675 C.3     1  UNL1        0.1122
     13 C          61.4182   91.1852    4.6374 C.3     1  UNL1        0.1122
     14 C          60.3803   93.9429    0.4087 C.ar    1  UNL1        0.0112
     15 C          59.1523   93.7156    1.0528 C.ar    1  UNL1       -0.0006
     16 C          59.0915   93.0140    2.2545 C.ar    1  UNL1        0.0143
     17 C          60.2605   92.5269    2.8485 C.ar    1  UNL1        0.0479
     18 C          61.4939   92.7512    2.2220 C.ar    1  UNL1        0.0181
     19 C          61.5798   93.4602    1.0052 C.ar    1  UNL1        0.0710
     20 C          62.9407   93.6953    0.3749 C.3     1  UNL1        0.4184
     21 F          63.8365   92.6861    0.6853 F       1  UNL1       -0.1659
     22 F          63.4686   94.8875    0.8368 F       1  UNL1       -0.1659
     23 F          62.8191   93.7454   -1.0016 F       1  UNL1       -0.1659
     24 C          60.3479   94.7105   -0.8992 C.3     1  UNL1        0.1686
     25 C          59.0789   93.1088   -1.9931 C.3     1  UNL1        0.1746
     26 O          60.2940   93.8262   -2.0029 O.3     1  UNL1       -0.3463
     27 C          59.6413   87.0256   11.0767 C.2     1  UNL1        0.2483
     28 O          58.5971   87.1141   11.7790 O.2     1  UNL1       -0.2701
     29 N          60.7465   86.2237   11.5278 N.am    1  UNL1       -0.2945
     30 H          61.6568   86.3059   11.0209 H       1  UNL1        0.1501
     31 C          60.7481   85.5407   12.8272 C.3     1  UNL1        0.1535
     32 C          60.3647   84.0951   12.6516 C.2     1  UNL1        0.2443
     33 O          61.1516   83.1883   13.0391 O.2     1  UNL1       -0.2730
     34 N          59.0665   83.7580   12.1369 N.am    1  UNL1       -0.2825
     35 H          58.3331   84.5030   12.1393 H       1  UNL1        0.1549
     36 C          58.6826   82.4353   11.7238 C.ar    1  UNL1        0.0535
     37 C          58.1890   82.2343   10.4274 C.ar    1  UNL1        0.0353
     38 C          57.8360   80.9478   10.0133 C.ar    1  UNL1        0.1002
     39 N          57.9862   79.8941   10.8585 N.ar    1  UNL1       -0.2422
     40 C          58.4804   80.0540   12.1144 C.ar    1  UNL1        0.1002
     41 C          58.8447   81.3240   12.5691 C.ar    1  UNL1        0.0353
     42 C          62.1357   85.6399   13.4822 C.3     1  UNL1        0.0569
     43 C          62.1551   86.6832   14.5615 C.ar    1  UNL1       -0.0017
     44 C          61.6758   86.5392   15.8606 C.ar    1  UNL1        0.0681
     45 N          61.9693   87.6355   16.5964 N.ar    1  UNL1       -0.3523
     46 C          62.6401   88.4639   15.7771 C.ar    1  UNL1        0.0563
     47 C          63.1829   89.7083   16.0936 C.ar    1  UNL1        0.0170
     48 C          63.8827   90.3961   15.0851 C.ar    1  UNL1        0.0015
     49 C          64.0277   89.8283   13.7996 C.ar    1  UNL1        0.0001
     50 C          63.4727   88.5685   13.5100 C.ar    1  UNL1        0.0012
     51 C          62.7772   87.9154   14.5276 C.ar    1  UNL1        0.0131
     52 H          61.7427   87.7908   17.6037 H       1  UNL1        0.1660
@<TRIPOS>BOND
     1    25    26    1
     2    26    24    1
     3    24    14    1
     4    14    15   ar
     5    15    16   ar
     6    16    17   ar
     7    17     8    1
     8     8     9    1
     9     9    10    1
    10    10    11    1
    11    11     1    1
    12     1     2   ar
    13     2     3   ar
    14     3     4   ar
    15     4    27    1
    16    27    28    2
    17    27    29   am
    18    29    31    1
    19    31    42    1
    20    42    43    1
    21    43    44   ar
    22    44    45   ar
    23    45    46   ar
    24    46    47   ar
    25    47    48   ar
    26    48    49   ar
    27    49    50   ar
    28    50    51   ar
    29    31    32    1
    30    32    33    2
    31    32    34   am
    32    34    36    1
    33    36    37   ar
    34    37    38   ar
    35    38    39   ar
    36    39    40   ar
    37    40    41   ar
    38     4     5   ar
    39     5     6    1
    40     5     7   ar
    41    11    12    1
    42    12    13    1
    43    17    18   ar
    44    18    19   ar
    45    19    20    1
    46    20    21    1
    47    20    22    1
    48    20    23    1
    49    19    14   ar
    50    13     8    1
    51     7     1   ar
    52    51    43   ar
    53    41    36   ar
    54    51    46   ar
    55    29    30    1
    56    45    52    1
    57    34    35    1
@<TRIPOS>MOLECULE
*****
 52 57 0 0 0
SMALL
GASTEIGER

@<TRIPOS>ATOM
      1 C          59.7822   89.4524    7.3586 C.ar    1  UNL1        0.0502
      2 C          59.3738   88.1112    7.3944 C.ar    1  UNL1        0.0148
      3 C          59.2762   87.4335    8.6120 C.ar    1  UNL1        0.0080
      4 C          59.5757   88.0875    9.8185 C.ar    1  UNL1        0.0808
      5 C          59.9973   89.4304    9.7832 C.ar    1  UNL1        0.1457
      6 F          60.3626   90.0779   10.9186 F       1  UNL1       -0.2040
      7 C          60.0945   90.1050    8.5620 C.ar    1  UNL1        0.0443
      8 N          60.2299   91.9146    3.9887 N.pl3   1  UNL1       -0.3041
      9 C          59.0584   92.0989    4.8533 C.3     1  UNL1        0.1122
     10 C          58.6849   90.7724    5.5157 C.3     1  UNL1        0.1122
     11 N          59.8771   90.1463    6.1004 N.pl3   1  UNL1       -0.3040
     12 C          61.0493   89.9630    5.2359 C.3     1  UNL1        0.1122
     13 C          61.4224   91.2896    4.5736 C.3     1  UNL1        0.1122
     14 C          60.5159   93.9491    0.2529 C.ar    1  UNL1        0.0112
     15 C          59.2676   93.7199    0.8560 C.ar    1  UNL1       -0.0006
     16 C          59.1715   93.0540    2.0757 C.ar    1  UNL1        0.0143
     17 C          60.3243   92.6059    2.7290 C.ar    1  UNL1        0.0479
     18 C          61.5773   92.8327    2.1438 C.ar    1  UNL1        0.0181
     19 C          61.6990   93.5059    0.9098 C.ar    1  UNL1        0.0710
     20 C          63.0793   93.7457    0.3253 C.3     1  UNL1        0.4184
     21 F          63.9427   92.6955    0.5883 F       1  UNL1       -0.1659
     22 F          63.6257   94.8914    0.8750 F       1  UNL1       -0.1659
     23 F          62.9907   93.8878   -1.0473 F       1  UNL1       -0.1659
     24 C          60.5219   94.6760   -1.0784 C.3     1  UNL1        0.1686
     25 C          59.0556   93.1834   -2.0757 C.3     1  UNL1        0.1746
     26 O          59.2770   94.5352   -1.7366 O.3     1  UNL1       -0.3463
     27 C          59.4520   87.3514   11.0947 C.2     1  UNL1        0.2483
     28 O          58.8377   86.2495   11.1111 O.2     1  UNL1       -0.2701
     29 N          59.9757   87.9018   12.3156 N.am    1  UNL1       -0.2945
     30 H          60.3219   88.8880   12.3052 H       1  UNL1        0.1501
     31 C          59.7683   87.2651   13.6218 C.3     1  UNL1        0.1535
     32 C          60.8393   86.2363   13.8712 C.2     1  UNL1        0.2443
     33 O          60.6476   85.3292   14.7268 O.2     1  UNL1       -0.2730
     34 N          62.0288   86.2340   13.0655 N.am    1  UNL1       -0.2825
     35 H          62.0114   86.7728   12.1698 H       1  UNL1        0.1549
     36 C          63.1981   85.4502   13.3583 C.ar    1  UNL1        0.0535
     37 C          63.5238   84.3641   12.5342 C.ar    1  UNL1        0.0353
     38 C          64.6711   83.6131   12.8005 C.ar    1  UNL1        0.1002
     39 N          65.4762   83.9448   13.8442 N.ar    1  UNL1       -0.2422
     40 C          65.1978   85.0039   14.6492 C.ar    1  UNL1        0.1002
     41 C          64.0596   85.7808   14.4186 C.ar    1  UNL1        0.0353
     42 C          59.7836   88.3203   14.7401 C.3     1  UNL1        0.0569
     43 C          61.1796   88.5736   15.2309 C.ar    1  UNL1       -0.0017
     44 C          61.7507   88.0715   16.3971 C.ar    1  UNL1        0.0681
     45 N          63.0613   88.3996   16.4601 N.ar    1  UNL1       -0.3523
     46 C          63.3248   89.0930   15.3388 C.ar    1  UNL1        0.0563
     47 C          64.5537   89.6146   14.9373 C.ar    1  UNL1        0.0170
     48 C          64.6126   90.2798   13.6988 C.ar    1  UNL1        0.0015
     49 C          63.4565   90.4018   12.8960 C.ar    1  UNL1        0.0001
     50 C          62.2305   89.8617   13.3250 C.ar    1  UNL1        0.0012
     51 C          62.2019   89.2159   14.5611 C.ar    1  UNL1        0.0131
     52 H          63.7345   88.1413   17.2153 H       1  UNL1        0.1660
@<TRIPOS>BOND
     1    25    26    1
     2    26    24    1
     3    24    14    1
     4    14    15   ar
     5    15    16   ar
     6    16    17   ar
     7    17     8    1
     8     8     9    1
     9     9    10    1
    10    10    11    1
    11    11     1    1
    12     1     2   ar
    13     2     3   ar
    14     3     4   ar
    15     4    27    1
    16    27    28    2
    17    27    29   am
    18    29    31    1
    19    31    42    1
    20    42    43    1
    21    43    44   ar
    22    44    45   ar
    23    45    46   ar
    24    46    47   ar
    25    47    48   ar
    26    48    49   ar
    27    49    50   ar
    28    50    51   ar
    29    31    32    1
    30    32    33    2
    31    32    34   am
    32    34    36    1
    33    36    37   ar
    34    37    38   ar
    35    38    39   ar
    36    39    40   ar
    37    40    41   ar
    38     4     5   ar
    39     5     6    1
    40     5     7   ar
    41    11    12    1
    42    12    13    1
    43    17    18   ar
    44    18    19   ar
    45    19    20    1
    46    20    21    1
    47    20    22    1
    48    20    23    1
    49    19    14   ar
    50    13     8    1
    51     7     1   ar
    52    51    43   ar
    53    41    36   ar
    54    51    46   ar
    55    29    30    1
    56    45    52    1
    57    34    35    1
@<TRIPOS>MOLECULE
*****
 52 57 0 0 0
SMALL
GASTEIGER

@<TRIPOS>ATOM
      1 C          60.0230   87.5338    9.8443 C.ar    1  UNL1        0.0502
      2 C          59.9391   86.1536    9.6103 C.ar    1  UNL1        0.0148
      3 C          60.0317   85.2491   10.6709 C.ar    1  UNL1        0.0080
      4 C          60.2001   85.7084   11.9875 C.ar    1  UNL1        0.0808
      5 C          60.2964   87.0933   12.2227 C.ar    1  UNL1        0.1457
      6 F          60.5285   87.5756   13.4698 F       1  UNL1       -0.2040
      7 C          60.2040   87.9954   11.1580 C.ar    1  UNL1        0.0443
      8 N          60.1937   89.9947    6.4481 N.pl3   1  UNL1       -0.3041
      9 C          61.1081   90.2600    7.5651 C.3     1  UNL1        0.1122
     10 C          60.4666   89.8180    8.8808 C.3     1  UNL1        0.1122
     11 N          59.9230   88.4610    8.7470 N.pl3   1  UNL1       -0.3040
     12 C          59.0093   88.1953    7.6292 C.3     1  UNL1        0.1122
     13 C          59.6509   88.6375    6.3137 C.3     1  UNL1        0.1122
     14 C          59.8926   92.7310    3.1926 C.ar    1  UNL1        0.0112
     15 C          58.8005   92.5031    4.0469 C.ar    1  UNL1       -0.0006
     16 C          58.8960   91.6084    5.1102 C.ar    1  UNL1        0.0143
     17 C          60.0909   90.9227    5.3519 C.ar    1  UNL1        0.0479
     18 C          61.1914   91.1441    4.5128 C.ar    1  UNL1        0.0181
     19 C          61.1182   92.0465    3.4306 C.ar    1  UNL1        0.0710
     20 C          62.3432   92.2680    2.5616 C.3     1  UNL1        0.4184
     21 F          62.1471   91.8195    1.2664 F       1  UNL1       -0.1659
     22 F          63.4202   91.5794    3.0901 F       1  UNL1       -0.1659
     23 F          62.6403   93.6171    2.5026 F       1  UNL1       -0.1659
     24 C          59.6934   93.7174    2.0576 C.3     1  UNL1        0.1686
     25 C          59.5972   93.5449   -0.2518 C.3     1  UNL1        0.1746
     26 O          59.0349   93.1044    0.9651 O.3     1  UNL1       -0.3463
     27 C          60.2824   84.7309   13.0937 C.2     1  UNL1        0.2483
     28 O          59.2877   84.5797   13.8549 O.2     1  UNL1       -0.2701
     29 N          61.4943   83.9965   13.3382 N.am    1  UNL1       -0.2945
     30 H          62.3524   84.2666   12.8062 H       1  UNL1        0.1501
     31 C          61.6601   83.1093   14.4959 C.3     1  UNL1        0.1535
     32 C          61.1308   81.7366   14.1749 C.2     1  UNL1        0.2443
     33 O          61.8262   80.7194   14.4461 O.2     1  UNL1       -0.2730
     34 N          59.7998   81.5879   13.6550 N.am    1  UNL1       -0.2825
     35 H          59.1455   82.3973   13.7529 H       1  UNL1        0.1549
     36 C          59.2800   80.3626   13.1111 C.ar    1  UNL1        0.0535
     37 C          58.9902   80.2846   11.7419 C.ar    1  UNL1        0.0353
     38 C          58.5065   79.0897   11.2040 C.ar    1  UNL1        0.1002
     39 N          58.3335   78.0032   12.0022 N.ar    1  UNL1       -0.2422
     40 C          58.6241   78.0417   13.3294 C.ar    1  UNL1        0.1002
     41 C          59.1090   79.2174   13.9080 C.ar    1  UNL1        0.0353
     42 C          63.1426   83.0204   14.8940 C.3     1  UNL1        0.0569
     43 C          63.7617   84.3842   14.9968 C.ar    1  UNL1       -0.0017
     44 C          64.9435   84.8043   14.3926 C.ar    1  UNL1        0.0681
     45 N          65.1336   86.1277   14.5969 N.ar    1  UNL1       -0.3523
     46 C          64.0768   86.5484   15.3134 C.ar    1  UNL1        0.0563
     47 C          63.8081   87.8486   15.7387 C.ar    1  UNL1        0.0170
     48 C          62.6159   88.0741   16.4512 C.ar    1  UNL1        0.0015
     49 C          61.7264   87.0085   16.7141 C.ar    1  UNL1        0.0001
     50 C          62.0217   85.7071   16.2688 C.ar    1  UNL1        0.0012
     51 C          63.2151   85.5135   15.5731 C.ar    1  UNL1        0.0131
     52 H          65.9281   86.7064   14.2445 H       1  UNL1        0.1660
@<TRIPOS>BOND
     1    25    26    1
     2    26    24    1
     3    24    14    1
     4    14    15   ar
     5    15    16   ar
     6    16    17   ar
     7    17     8    1
     8     8     9    1
     9     9    10    1
    10    10    11    1
    11    11     1    1
    12     1     2   ar
    13     2     3   ar
    14     3     4   ar
    15     4    27    1
    16    27    28    2
    17    27    29   am
    18    29    31    1
    19    31    42    1
    20    42    43    1
    21    43    44   ar
    22    44    45   ar
    23    45    46   ar
    24    46    47   ar
    25    47    48   ar
    26    48    49   ar
    27    49    50   ar
    28    50    51   ar
    29    31    32    1
    30    32    33    2
    31    32    34   am
    32    34    36    1
    33    36    37   ar
    34    37    38   ar
    35    38    39   ar
    36    39    40   ar
    37    40    41   ar
    38     4     5   ar
    39     5     6    1
    40     5     7   ar
    41    11    12    1
    42    12    13    1
    43    17    18   ar
    44    18    19   ar
    45    19    20    1
    46    20    21    1
    47    20    22    1
    48    20    23    1
    49    19    14   ar
    50    13     8    1
    51     7     1   ar
    52    51    43   ar
    53    41    36   ar
    54    51    46   ar
    55    29    30    1
    56    45    52    1
    57    34    35    1
@<TRIPOS>MOLECULE
*****
 52 57 0 0 0
SMALL
GASTEIGER

@<TRIPOS>ATOM
      1 C          61.0830   86.5619   13.3556 C.ar    1  UNL1        0.0502
      2 C          61.6510   85.3665   12.8918 C.ar    1  UNL1        0.0148
      3 C          60.8517   84.2425   12.6701 C.ar    1  UNL1        0.0080
      4 C          59.4669   84.2956   12.8988 C.ar    1  UNL1        0.0808
      5 C          58.8969   85.4914   13.3759 C.ar    1  UNL1        0.1457
      6 F          57.5753   85.5645   13.6755 F       1  UNL1       -0.2040
      7 C          59.7008   86.6142   13.5972 C.ar    1  UNL1        0.0443
      8 N          63.8861   89.6670   13.7021 N.pl3   1  UNL1       -0.3041
      9 C          64.0570   88.4604   14.5199 C.3     1  UNL1        0.1122
     10 C          62.6943   87.8330   14.8154 C.3     1  UNL1        0.1122
     11 N          61.9121   87.7181   13.5784 N.pl3   1  UNL1       -0.3040
     12 C          61.7421   88.9247   12.7600 C.3     1  UNL1        0.1122
     13 C          63.1048   89.5519   12.4648 C.3     1  UNL1        0.1122
     14 C          66.3231   93.1030   14.3590 C.ar    1  UNL1        0.0112
     15 C          65.8824   92.3145   15.4354 C.ar    1  UNL1       -0.0006
     16 C          65.0848   91.1924   15.2234 C.ar    1  UNL1        0.0143
     17 C          64.7127   90.8246   13.9262 C.ar    1  UNL1        0.0479
     18 C          65.1498   91.5969   12.8414 C.ar    1  UNL1        0.0181
     19 C          65.9592   92.7367   13.0320 C.ar    1  UNL1        0.0710
     20 C          66.4243   93.5301   11.8242 C.3     1  UNL1        0.4184
     21 F          66.4329   94.8925   12.0715 F       1  UNL1       -0.1659
     22 F          65.5736   93.2981   10.7584 F       1  UNL1       -0.1659
     23 F          67.7098   93.1536   11.4807 F       1  UNL1       -0.1659
     24 C          67.1819   94.3097   14.6868 C.3     1  UNL1        0.1686
     25 C          68.9991   93.0095   15.3029 C.3     1  UNL1        0.1746
     26 O          68.0984   94.0111   15.7231 O.3     1  UNL1       -0.3463
     27 C          58.6413   83.0958   12.6442 C.2     1  UNL1        0.2483
     28 O          57.4014   83.1438   12.8722 O.2     1  UNL1       -0.2701
     29 N          59.2434   81.8703   12.1930 N.am    1  UNL1       -0.2945
     30 H          60.2866   81.8070   12.1803 H       1  UNL1        0.1501
     31 C          58.4821   80.6239   12.0455 C.3     1  UNL1        0.1535
     32 C          57.9533   80.5046   10.6406 C.2     1  UNL1        0.2443
     33 O          57.1687   79.5614   10.3462 O.2     1  UNL1       -0.2730
     34 N          58.2646   81.5186    9.6718 N.am    1  UNL1       -0.2825
     35 H          58.6285   82.4332   10.0238 H       1  UNL1        0.1549
     36 C          58.0031   81.3941    8.2634 C.ar    1  UNL1        0.0535
     37 C          57.6436   82.5306    7.5261 C.ar    1  UNL1        0.0353
     38 C          57.4107   82.4197    6.1532 C.ar    1  UNL1        0.1002
     39 N          57.5483   81.2180    5.5332 N.ar    1  UNL1       -0.2422
     40 C          57.9147   80.1021    6.2172 C.ar    1  UNL1        0.1002
     41 C          58.1561   80.1688    7.5917 C.ar    1  UNL1        0.0353
     42 C          59.3692   79.4125   12.3771 C.3     1  UNL1        0.0569
     43 C          60.8201   79.7199   12.1442 C.ar    1  UNL1       -0.0017
     44 C          61.5485   79.4487   10.9891 C.ar    1  UNL1        0.0681
     45 N          62.7915   79.9738   11.0807 N.ar    1  UNL1       -0.3523
     46 C          62.8495   80.5842   12.2771 C.ar    1  UNL1        0.0563
     47 C          63.9209   81.3004   12.8089 C.ar    1  UNL1        0.0170
     48 C          63.7521   81.8932   14.0738 C.ar    1  UNL1        0.0015
     49 C          62.5285   81.7636   14.7678 C.ar    1  UNL1        0.0001
     50 C          61.4629   81.0382   14.2044 C.ar    1  UNL1        0.0012
     51 C          61.6636   80.4548   12.9534 C.ar    1  UNL1        0.0131
     52 H          63.5415   79.9341   10.3553 H       1  UNL1        0.1660
@<TRIPOS>BOND
     1    25    26    1
     2    26    24    1
     3    24    14    1
     4    14    15   ar
     5    15    16   ar
     6    16    17   ar
     7    17     8    1
     8     8     9    1
     9     9    10    1
    10    10    11    1
    11    11     1    1
    12     1     2   ar
    13     2     3   ar
    14     3     4   ar
    15     4    27    1
    16    27    28    2
    17    27    29   am
    18    29    31    1
    19    31    42    1
    20    42    43    1
    21    43    44   ar
    22    44    45   ar
    23    45    46   ar
    24    46    47   ar
    25    47    48   ar
    26    48    49   ar
    27    49    50   ar
    28    50    51   ar
    29    31    32    1
    30    32    33    2
    31    32    34   am
    32    34    36    1
    33    36    37   ar
    34    37    38   ar
    35    38    39   ar
    36    39    40   ar
    37    40    41   ar
    38     4     5   ar
    39     5     6    1
    40     5     7   ar
    41    11    12    1
    42    12    13    1
    43    17    18   ar
    44    18    19   ar
    45    19    20    1
    46    20    21    1
    47    20    22    1
    48    20    23    1
    49    19    14   ar
    50    13     8    1
    51     7     1   ar
    52    51    43   ar
    53    41    36   ar
    54    51    46   ar
    55    29    30    1
    56    45    52    1
    57    34    35    1
