@<TRIPOS>MOLECULE
*****
 45 50 0 0 0
SMALL
GASTEIGER

@<TRIPOS>ATOM
      1 C         -61.8669  -49.7864  -23.3502 C.ar    1  UNL1        0.1318
      2 C         -61.7086  -51.1030  -22.8898 C.ar    1  UNL1        0.0356
      3 C         -62.6405  -52.0766  -23.2523 C.ar    1  UNL1        0.0191
      4 C         -63.7164  -51.7454  -24.0911 C.ar    1  UNL1        0.0702
      5 C         -63.8394  -50.4200  -24.5273 C.ar    1  UNL1        0.1149
      6 N         -62.9202  -49.4883  -24.1608 N.ar    1  UNL1       -0.2279
      7 C         -60.2579  -46.0817  -22.5552 C.3     1  UNL1        0.0471
      8 C         -59.8912  -47.1050  -21.4639 C.3     1  UNL1        0.0252
      9 C         -60.7593  -48.3644  -21.6065 C.3     1  UNL1        0.0923
     10 N         -60.9146  -48.7594  -23.0145 N.pl3   1  UNL1       -0.2932
     11 C         -60.0062  -48.1949  -24.0226 C.3     1  UNL1        0.0923
     12 C         -60.0337  -46.6580  -23.9811 C.3     1  UNL1        0.0252
     13 C         -59.4823  -44.7724  -22.3520 C.3     1  UNL1        0.2054
     14 O         -60.2054  -43.6905  -22.9357 O.3     1  UNL1       -0.4758
     15 C         -62.5359  -42.5720  -24.1083 C.3     1  UNL1        0.0344
     16 C         -62.0512  -42.1188  -22.7504 C.ar    1  UNL1        0.0183
     17 C         -60.8687  -42.6831  -22.2150 C.ar    1  UNL1        0.1347
     18 C         -60.3794  -42.2279  -20.9774 C.ar    1  UNL1        0.0366
     19 C         -61.0534  -41.2350  -20.2735 C.ar    1  UNL1        0.0033
     20 C         -62.2334  -40.6958  -20.7778 C.ar    1  UNL1        0.0063
     21 C         -62.7617  -41.1376  -22.0033 C.ar    1  UNL1        0.0744
     22 C         -64.0533  -40.5615  -22.4567 C.2     1  UNL1        0.3378
     23 O         -65.1364  -41.1405  -22.1708 O.2     1  UNL1       -0.2451
     24 O         -64.0879  -39.4083  -23.2355 O.3     1  UNL1       -0.4771
     25 H         -64.9680  -39.0224  -23.5558 H       1  UNL1        0.2954
     26 N         -64.7097  -52.7148  -24.4674 N.am    1  UNL1       -0.2766
     27 C         -65.3546  -53.5985  -23.5382 C.2     1  UNL1        0.2839
     28 O         -64.7741  -53.9181  -22.4661 O.2     1  UNL1       -0.2665
     29 H         -64.8938  -52.8600  -25.4852 H       1  UNL1        0.1553
     30 C         -66.6574  -54.2131  -23.8490 C.ar    1  UNL1        0.1946
     31 O         -66.8549  -54.9430  -24.9327 O.2     1  UNL1       -0.4492
     32 C         -68.1050  -55.3363  -24.9316 C.ar    1  UNL1        0.1452
     33 C         -68.7461  -56.1188  -25.8856 C.ar    1  UNL1        0.0375
     34 C         -70.1041  -56.4227  -25.6857 C.ar    1  UNL1        0.0031
     35 C         -70.7977  -55.9423  -24.5417 C.ar    1  UNL1        0.0002
     36 C         -70.1069  -55.1490  -23.5944 C.ar    1  UNL1        0.0028
     37 C         -68.7599  -54.8681  -23.8251 C.ar    1  UNL1        0.0337
     38 C         -67.8356  -54.1484  -23.0943 C.ar    1  UNL1        0.0202
     39 C         -68.0673  -53.4610  -21.7826 C.3     1  UNL1        0.0345
     40 C         -72.2325  -56.2685  -24.3417 C.ar    1  UNL1        0.0000
     41 C         -72.8259  -56.1382  -23.0715 C.ar    1  UNL1        0.0000
     42 C         -74.1775  -56.4450  -22.8864 C.ar    1  UNL1        0.0000
     43 C         -74.9504  -56.8850  -23.9631 C.ar    1  UNL1        0.0000
     44 C         -74.3735  -57.0187  -25.2279 C.ar    1  UNL1        0.0000
     45 C         -73.0226  -56.7124  -25.4192 C.ar    1  UNL1        0.0000
@<TRIPOS>BOND
     1    15    16    1
     2    16    17   ar
     3    17    14    1
     4    14    13    1
     5    13     7    1
     6     7     8    1
     7     8     9    1
     8     9    10    1
     9    10     1    1
    10     1     2   ar
    11     2     3   ar
    12     3     4   ar
    13     4    26    1
    14    26    27   am
    15    27    28    2
    16    27    30    1
    17    30    31   ar
    18    31    32   ar
    19    32    33   ar
    20    33    34   ar
    21    34    35   ar
    22    35    40    1
    23    40    41   ar
    24    41    42   ar
    25    42    43   ar
    26    43    44   ar
    27    44    45   ar
    28    35    36   ar
    29    36    37   ar
    30    37    38   ar
    31    38    39    1
    32     4     5   ar
    33     5     6   ar
    34    10    11    1
    35    11    12    1
    36    17    18   ar
    37    18    19   ar
    38    19    20   ar
    39    20    21   ar
    40    21    22    1
    41    22    23    2
    42    22    24    1
    43    21    16   ar
    44    12     7    1
    45     6     1   ar
    46    38    30   ar
    47    37    32   ar
    48    45    40   ar
    49    26    29    1
    50    24    25    1
@<TRIPOS>MOLECULE
*****
 45 50 0 0 0
SMALL
GASTEIGER

@<TRIPOS>ATOM
      1 C         -62.0360  -49.4093  -23.6354 C.ar    1  UNL1        0.1318
      2 C         -61.7263  -50.7206  -23.2417 C.ar    1  UNL1        0.0356
      3 C         -62.6000  -51.7609  -23.5618 C.ar    1  UNL1        0.0191
      4 C         -63.7695  -51.4997  -24.2933 C.ar    1  UNL1        0.0702
      5 C         -64.0427  -50.1772  -24.6654 C.ar    1  UNL1        0.1149
      6 N         -63.1778  -49.1800  -24.3419 N.ar    1  UNL1       -0.2279
      7 C         -60.6789  -45.7309  -22.3814 C.3     1  UNL1        0.0471
      8 C         -59.8357  -46.8771  -21.7918 C.3     1  UNL1        0.0252
      9 C         -60.5499  -48.2210  -22.0018 C.3     1  UNL1        0.0923
     10 N         -61.1490  -48.3133  -23.3416 N.pl3   1  UNL1       -0.2932
     11 C         -60.7273  -47.3659  -24.3830 C.3     1  UNL1        0.0923
     12 C         -60.9117  -45.9154  -23.9070 C.3     1  UNL1        0.0252
     13 C         -60.0348  -44.3716  -22.0736 C.3     1  UNL1        0.2054
     14 O         -60.6226  -43.8169  -20.8985 O.3     1  UNL1       -0.4758
     15 C         -63.4284  -44.2457  -20.8677 C.3     1  UNL1        0.0344
     16 C         -62.8519  -42.8492  -20.8251 C.ar    1  UNL1        0.0183
     17 C         -61.4473  -42.6797  -20.8703 C.ar    1  UNL1        0.1347
     18 C         -60.9036  -41.3826  -20.8872 C.ar    1  UNL1        0.0366
     19 C         -61.7351  -40.2678  -20.8508 C.ar    1  UNL1        0.0033
     20 C         -63.1160  -40.4249  -20.7756 C.ar    1  UNL1        0.0063
     21 C         -63.6947  -41.7055  -20.7400 C.ar    1  UNL1        0.0744
     22 C         -65.1704  -41.8028  -20.6025 C.2     1  UNL1        0.3378
     23 O         -65.9104  -41.6165  -21.6063 O.2     1  UNL1       -0.2451
     24 O         -65.7584  -42.0543  -19.3661 O.3     1  UNL1       -0.4771
     25 H         -66.7653  -42.1077  -19.2695 H       1  UNL1        0.2954
     26 N         -64.7056  -52.5407  -24.6217 N.am    1  UNL1       -0.2766
     27 C         -65.2890  -53.4243  -23.6527 C.2     1  UNL1        0.2839
     28 O         -64.6820  -53.6664  -22.5750 O.2     1  UNL1       -0.2665
     29 H         -64.8886  -52.7363  -25.6313 H       1  UNL1        0.1553
     30 C         -66.5549  -54.1273  -23.9264 C.ar    1  UNL1        0.1946
     31 O         -66.7022  -54.9452  -24.9537 O.2     1  UNL1       -0.4492
     32 C         -67.9305  -55.4018  -24.9326 C.ar    1  UNL1        0.1452
     33 C         -68.5196  -56.2856  -25.8301 C.ar    1  UNL1        0.0375
     34 C         -69.8624  -56.6440  -25.6181 C.ar    1  UNL1        0.0031
     35 C         -70.5927  -56.1165  -24.5187 C.ar    1  UNL1        0.0002
     36 C         -69.9545  -55.2200  -23.6284 C.ar    1  UNL1        0.0028
     37 C         -68.6211  -54.8873  -23.8693 C.ar    1  UNL1        0.0337
     38 C         -67.7434  -54.0680  -23.1875 C.ar    1  UNL1        0.0202
     39 C         -68.0251  -53.2977  -21.9329 C.3     1  UNL1        0.0345
     40 C         -72.0111  -56.5011  -24.3056 C.ar    1  UNL1        0.0000
     41 C         -72.8647  -56.7251  -25.4026 C.ar    1  UNL1        0.0000
     42 C         -74.1995  -57.0882  -25.1988 C.ar    1  UNL1        0.0000
     43 C         -74.6971  -57.2310  -23.9018 C.ar    1  UNL1        0.0000
     44 C         -73.8606  -57.0113  -22.8052 C.ar    1  UNL1        0.0000
     45 C         -72.5247  -56.6489  -23.0029 C.ar    1  UNL1        0.0000
@<TRIPOS>BOND
     1    15    16    1
     2    16    17   ar
     3    17    14    1
     4    14    13    1
     5    13     7    1
     6     7     8    1
     7     8     9    1
     8     9    10    1
     9    10     1    1
    10     1     2   ar
    11     2     3   ar
    12     3     4   ar
    13     4    26    1
    14    26    27   am
    15    27    28    2
    16    27    30    1
    17    30    31   ar
    18    31    32   ar
    19    32    33   ar
    20    33    34   ar
    21    34    35   ar
    22    35    40    1
    23    40    41   ar
    24    41    42   ar
    25    42    43   ar
    26    43    44   ar
    27    44    45   ar
    28    35    36   ar
    29    36    37   ar
    30    37    38   ar
    31    38    39    1
    32     4     5   ar
    33     5     6   ar
    34    10    11    1
    35    11    12    1
    36    17    18   ar
    37    18    19   ar
    38    19    20   ar
    39    20    21   ar
    40    21    22    1
    41    22    23    2
    42    22    24    1
    43    21    16   ar
    44    12     7    1
    45     6     1   ar
    46    38    30   ar
    47    37    32   ar
    48    45    40   ar
    49    26    29    1
    50    24    25    1
@<TRIPOS>MOLECULE
*****
 45 50 0 0 0
SMALL
GASTEIGER

@<TRIPOS>ATOM
      1 C         -67.5504  -55.2425  -22.8764 C.ar    1  UNL1        0.1318
      2 C         -66.3146  -55.7282  -22.4210 C.ar    1  UNL1        0.0356
      3 C         -65.1914  -54.9007  -22.4617 C.ar    1  UNL1        0.0191
      4 C         -65.3028  -53.5833  -22.9339 C.ar    1  UNL1        0.0702
      5 C         -66.5534  -53.1379  -23.3808 C.ar    1  UNL1        0.1149
      6 N         -67.6333  -53.9617  -23.3325 N.ar    1  UNL1       -0.2279
      7 C         -71.3401  -56.5513  -21.9435 C.3     1  UNL1        0.0471
      8 C         -71.0797  -56.6041  -23.4607 C.3     1  UNL1        0.0252
      9 C         -69.8077  -55.8151  -23.8067 C.3     1  UNL1        0.0923
     10 N         -68.7355  -56.0595  -22.8304 N.pl3   1  UNL1       -0.2932
     11 C         -68.8405  -57.2102  -21.9222 C.3     1  UNL1        0.0923
     12 C         -70.1620  -57.1659  -21.1372 C.3     1  UNL1        0.0252
     13 C         -72.6712  -57.2343  -21.5988 C.3     1  UNL1        0.2054
     14 O         -73.5161  -56.3174  -20.9064 O.3     1  UNL1       -0.4758
     15 C         -72.0916  -54.3780  -19.4007 C.3     1  UNL1        0.0344
     16 C         -73.0527  -55.3336  -18.7318 C.ar    1  UNL1        0.0183
     17 C         -73.7214  -56.3035  -19.5165 C.ar    1  UNL1        0.1347
     18 C         -74.5750  -57.2327  -18.8950 C.ar    1  UNL1        0.0366
     19 C         -74.7728  -57.1992  -17.5183 C.ar    1  UNL1        0.0033
     20 C         -74.1431  -56.2300  -16.7426 C.ar    1  UNL1        0.0063
     21 C         -73.2962  -55.2745  -17.3308 C.ar    1  UNL1        0.0744
     22 C         -72.7007  -54.2338  -16.4544 C.2     1  UNL1        0.3378
     23 O         -71.6237  -54.4670  -15.8414 O.2     1  UNL1       -0.2451
     24 O         -73.3380  -53.0114  -16.2610 O.3     1  UNL1       -0.4771
     25 H         -72.9387  -52.3064  -15.6531 H       1  UNL1        0.2954
     26 N         -64.1643  -52.7085  -23.0133 N.am    1  UNL1       -0.2766
     27 C         -63.8062  -51.9693  -24.1904 C.2     1  UNL1        0.2839
     28 O         -64.1509  -52.3899  -25.3274 O.2     1  UNL1       -0.2665
     29 H         -63.4997  -52.6927  -22.2077 H       1  UNL1        0.1553
     30 C         -62.9656  -50.7619  -24.1064 C.ar    1  UNL1        0.1946
     31 O         -63.2165  -49.6745  -24.8140 O.2     1  UNL1       -0.4492
     32 C         -62.2947  -48.7872  -24.5299 C.ar    1  UNL1        0.1452
     33 C         -62.1679  -47.5037  -25.0497 C.ar    1  UNL1        0.0375
     34 C         -61.0935  -46.7143  -24.6035 C.ar    1  UNL1        0.0031
     35 C         -60.1668  -47.2165  -23.6500 C.ar    1  UNL1        0.0002
     36 C         -60.3331  -48.5287  -23.1458 C.ar    1  UNL1        0.0028
     37 C         -61.4108  -49.2831  -23.6107 C.ar    1  UNL1        0.0337
     38 C         -61.8348  -50.5609  -23.3046 C.ar    1  UNL1        0.0202
     39 C         -61.2063  -51.5043  -22.3238 C.3     1  UNL1        0.0345
     40 C         -59.0350  -46.3740  -23.1870 C.ar    1  UNL1        0.0000
     41 C         -57.8029  -46.9592  -22.8379 C.ar    1  UNL1        0.0000
     42 C         -56.7386  -46.1633  -22.4033 C.ar    1  UNL1        0.0000
     43 C         -56.8910  -44.7781  -22.3114 C.ar    1  UNL1        0.0000
     44 C         -58.1082  -44.1855  -22.6545 C.ar    1  UNL1        0.0000
     45 C         -59.1756  -44.9764  -23.0906 C.ar    1  UNL1        0.0000
@<TRIPOS>BOND
     1    15    16    1
     2    16    17   ar
     3    17    14    1
     4    14    13    1
     5    13     7    1
     6     7     8    1
     7     8     9    1
     8     9    10    1
     9    10     1    1
    10     1     2   ar
    11     2     3   ar
    12     3     4   ar
    13     4    26    1
    14    26    27   am
    15    27    28    2
    16    27    30    1
    17    30    31   ar
    18    31    32   ar
    19    32    33   ar
    20    33    34   ar
    21    34    35   ar
    22    35    40    1
    23    40    41   ar
    24    41    42   ar
    25    42    43   ar
    26    43    44   ar
    27    44    45   ar
    28    35    36   ar
    29    36    37   ar
    30    37    38   ar
    31    38    39    1
    32     4     5   ar
    33     5     6   ar
    34    10    11    1
    35    11    12    1
    36    17    18   ar
    37    18    19   ar
    38    19    20   ar
    39    20    21   ar
    40    21    22    1
    41    22    23    2
    42    22    24    1
    43    21    16   ar
    44    12     7    1
    45     6     1   ar
    46    38    30   ar
    47    37    32   ar
    48    45    40   ar
    49    26    29    1
    50    24    25    1
@<TRIPOS>MOLECULE
*****
 45 50 0 0 0
SMALL
GASTEIGER

@<TRIPOS>ATOM
      1 C         -65.0597  -53.4569  -23.3625 C.ar    1  UNL1        0.1318
      2 C         -63.7054  -53.2506  -23.0560 C.ar    1  UNL1        0.0356
      3 C         -63.0619  -52.1010  -23.5167 C.ar    1  UNL1        0.0191
      4 C         -63.7715  -51.1463  -24.2623 C.ar    1  UNL1        0.0702
      5 C         -65.1208  -51.3909  -24.5481 C.ar    1  UNL1        0.1149
      6 N         -65.7266  -52.5179  -24.0897 N.ar    1  UNL1       -0.2279
      7 C         -67.8171  -55.8092  -21.4110 C.3     1  UNL1        0.0471
      8 C         -67.6757  -56.2112  -22.8912 C.3     1  UNL1        0.0252
      9 C         -66.9051  -55.1284  -23.6619 C.3     1  UNL1        0.0923
     10 N         -65.7629  -54.6204  -22.8873 N.pl3   1  UNL1       -0.2932
     11 C         -65.2867  -55.3847  -21.7258 C.3     1  UNL1        0.0923
     12 C         -66.4316  -55.6316  -20.7294 C.3     1  UNL1        0.0252
     13 C         -68.6871  -56.8238  -20.6554 C.3     1  UNL1        0.2054
     14 O         -68.9185  -56.3619  -19.3261 O.3     1  UNL1       -0.4758
     15 C         -70.0752  -56.6994  -16.7560 C.3     1  UNL1        0.0344
     16 C         -70.5119  -55.5750  -17.6667 C.ar    1  UNL1        0.0183
     17 C         -69.9286  -55.4600  -18.9513 C.ar    1  UNL1        0.1347
     18 C         -70.3682  -54.4507  -19.8268 C.ar    1  UNL1        0.0366
     19 C         -71.3641  -53.5612  -19.4359 C.ar    1  UNL1        0.0033
     20 C         -71.9219  -53.6478  -18.1637 C.ar    1  UNL1        0.0063
     21 C         -71.4961  -54.6328  -17.2555 C.ar    1  UNL1        0.0744
     22 C         -72.0919  -54.6344  -15.8951 C.2     1  UNL1        0.3378
     23 O         -73.1621  -55.2645  -15.6765 O.2     1  UNL1       -0.2451
     24 O         -71.5095  -53.9106  -14.8584 O.3     1  UNL1       -0.4771
     25 H         -71.9229  -53.9009  -13.9337 H       1  UNL1        0.2954
     26 N         -63.1378  -49.9613  -24.7741 N.am    1  UNL1       -0.2766
     27 C         -63.5164  -49.3202  -26.0012 C.2     1  UNL1        0.2839
     28 O         -64.0639  -49.9892  -26.9185 O.2     1  UNL1       -0.2665
     29 H         -62.2852  -49.6094  -24.2840 H       1  UNL1        0.1553
     30 C         -63.2022  -47.9021  -26.2493 C.ar    1  UNL1        0.1946
     31 O         -62.8222  -47.0824  -25.2849 O.2     1  UNL1       -0.4492
     32 C         -62.6286  -45.8993  -25.8144 C.ar    1  UNL1        0.1452
     33 C         -62.2285  -44.7371  -25.1642 C.ar    1  UNL1        0.0375
     34 C         -62.0832  -43.5682  -25.9317 C.ar    1  UNL1        0.0031
     35 C         -62.3386  -43.5779  -27.3298 C.ar    1  UNL1        0.0002
     36 C         -62.7434  -44.7830  -27.9525 C.ar    1  UNL1        0.0028
     37 C         -62.8767  -45.9235  -27.1599 C.ar    1  UNL1        0.0337
     38 C         -63.2349  -47.2198  -27.4721 C.ar    1  UNL1        0.0202
     39 C         -63.5762  -47.7542  -28.8303 C.3     1  UNL1        0.0345
     40 C         -62.1830  -42.3368  -28.1302 C.ar    1  UNL1        0.0000
     41 C         -60.9710  -41.6206  -28.1122 C.ar    1  UNL1        0.0000
     42 C         -60.8270  -40.4529  -28.8678 C.ar    1  UNL1        0.0000
     43 C         -61.8880  -39.9870  -29.6473 C.ar    1  UNL1        0.0000
     44 C         -63.0955  -40.6882  -29.6734 C.ar    1  UNL1        0.0000
     45 C         -63.2449  -41.8570  -28.9206 C.ar    1  UNL1        0.0000
@<TRIPOS>BOND
     1    15    16    1
     2    16    17   ar
     3    17    14    1
     4    14    13    1
     5    13     7    1
     6     7     8    1
     7     8     9    1
     8     9    10    1
     9    10     1    1
    10     1     2   ar
    11     2     3   ar
    12     3     4   ar
    13     4    26    1
    14    26    27   am
    15    27    28    2
    16    27    30    1
    17    30    31   ar
    18    31    32   ar
    19    32    33   ar
    20    33    34   ar
    21    34    35   ar
    22    35    40    1
    23    40    41   ar
    24    41    42   ar
    25    42    43   ar
    26    43    44   ar
    27    44    45   ar
    28    35    36   ar
    29    36    37   ar
    30    37    38   ar
    31    38    39    1
    32     4     5   ar
    33     5     6   ar
    34    10    11    1
    35    11    12    1
    36    17    18   ar
    37    18    19   ar
    38    19    20   ar
    39    20    21   ar
    40    21    22    1
    41    22    23    2
    42    22    24    1
    43    21    16   ar
    44    12     7    1
    45     6     1   ar
    46    38    30   ar
    47    37    32   ar
    48    45    40   ar
    49    26    29    1
    50    24    25    1
