@<TRIPOS>MOLECULE
*****
 50 55 0 0 0
SMALL
GASTEIGER

@<TRIPOS>ATOM
      1 C         -20.8764   53.7960   -9.9418 C.2     1  UNL1        0.2483
      2 O         -20.0056   53.5894  -10.8313 O.2     1  UNL1       -0.2701
      3 N         -20.6979   54.8842   -9.0188 N.am    1  UNL1       -0.2945
      4 H         -21.5319   55.2457   -8.5048 H       1  UNL1        0.1501
      5 C         -24.3672   51.2686   -9.6849 C.ar    1  UNL1        0.0502
      6 C         -23.4084   51.2901   -8.6593 C.ar    1  UNL1        0.0148
      7 C         -22.2796   52.1061   -8.7590 C.ar    1  UNL1        0.0080
      8 C         -22.0743   52.9176   -9.8891 C.ar    1  UNL1        0.0808
      9 C         -23.0418   52.9021  -10.9162 C.ar    1  UNL1        0.1457
     10 F         -22.9318   53.6997  -12.0065 F       1  UNL1       -0.2040
     11 C         -24.1722   52.0858  -10.8099 C.ar    1  UNL1        0.0443
     12 N         -27.6534   48.5858   -9.6785 N.pl3   1  UNL1       -0.3043
     13 C         -27.9593   49.9905   -9.9565 C.3     1  UNL1        0.1122
     14 C         -26.6997   50.7077  -10.4480 C.3     1  UNL1        0.1122
     15 N         -25.5434   50.4375   -9.5760 N.pl3   1  UNL1       -0.3040
     16 C         -25.6491   49.4461   -8.4940 C.3     1  UNL1        0.1122
     17 C         -26.4293   48.2114   -8.9601 C.3     1  UNL1        0.1122
     18 C         -28.8965   47.2037   -7.4295 C.3     1  UNL1        0.0320
     19 C         -29.3076   46.9221   -8.8574 C.ar    1  UNL1       -0.0124
     20 C         -30.3484   45.9930   -9.1508 C.ar    1  UNL1       -0.0244
     21 C         -30.6270   45.6878  -10.4989 C.ar    1  UNL1        0.0069
     22 C         -29.9428   46.3192  -11.5355 C.ar    1  UNL1        0.0586
     23 CL        -30.3197   45.9261  -13.2032 Cl      1  UNL1       -0.0822
     24 C         -28.9681   47.2696  -11.2496 C.ar    1  UNL1        0.0256
     25 C         -28.6496   47.5833   -9.9246 C.ar    1  UNL1        0.0444
     26 C         -31.1444   45.2848   -8.0549 C.3     1  UNL1        0.0221
     27 C         -30.3567   44.1186   -7.4396 C.3     1  UNL1        0.0047
     28 C         -31.5836   46.2812   -6.9767 C.3     1  UNL1        0.0047
     29 C         -19.4014   55.5514   -8.8282 C.3     1  UNL1        0.1535
     30 C         -19.6095   57.0199   -8.5536 C.2     1  UNL1        0.2443
     31 O         -19.9887   57.7793   -9.4872 O.2     1  UNL1       -0.2730
     32 N         -19.4500   57.5330   -7.2209 N.am    1  UNL1       -0.2825
     33 H         -19.4633   56.8509   -6.4292 H       1  UNL1        0.1549
     34 C         -19.3870   58.9336   -6.9008 C.ar    1  UNL1        0.0535
     35 C         -18.7453   59.8140   -7.7829 C.ar    1  UNL1        0.0353
     36 C         -18.7011   61.1786   -7.4879 C.ar    1  UNL1        0.1002
     37 N         -19.2922   61.6519   -6.3592 N.ar    1  UNL1       -0.2422
     38 C         -19.9388   60.8261   -5.4947 C.ar    1  UNL1        0.1002
     39 C         -20.0055   59.4543   -5.7512 C.ar    1  UNL1        0.0353
     40 C         -18.6169   54.9100   -7.6674 C.3     1  UNL1        0.0569
     41 C         -18.6857   53.4099   -7.7081 C.ar    1  UNL1       -0.0017
     42 C         -19.4797   52.6012   -6.8994 C.ar    1  UNL1        0.0681
     43 N         -19.1991   51.2959   -7.1149 N.ar    1  UNL1       -0.3523
     44 C         -18.2308   51.2728   -8.0468 C.ar    1  UNL1        0.0563
     45 C         -17.5848   50.1510   -8.5648 C.ar    1  UNL1        0.0170
     46 C         -16.5668   50.3577   -9.5135 C.ar    1  UNL1        0.0015
     47 C         -16.2238   51.6655   -9.9212 C.ar    1  UNL1        0.0001
     48 C         -16.8940   52.7785   -9.3824 C.ar    1  UNL1        0.0012
     49 C         -17.8932   52.5435   -8.4376 C.ar    1  UNL1        0.0131
     50 H         -19.6310   50.4764   -6.6331 H       1  UNL1        0.1660
@<TRIPOS>BOND
     1    18    19    1
     2    19    20   ar
     3    20    26    1
     4    26    27    1
     5    26    28    1
     6    20    21   ar
     7    21    22   ar
     8    22    23    1
     9    22    24   ar
    10    24    25   ar
    11    25    12    1
    12    12    13    1
    13    13    14    1
    14    14    15    1
    15    15     5    1
    16     5     6   ar
    17     6     7   ar
    18     7     8   ar
    19     8     1    1
    20     1     2    2
    21     1     3   am
    22     3    29    1
    23    29    40    1
    24    40    41    1
    25    41    42   ar
    26    42    43   ar
    27    43    44   ar
    28    44    45   ar
    29    45    46   ar
    30    46    47   ar
    31    47    48   ar
    32    48    49   ar
    33    29    30    1
    34    30    31    2
    35    30    32   am
    36    32    34    1
    37    34    35   ar
    38    35    36   ar
    39    36    37   ar
    40    37    38   ar
    41    38    39   ar
    42     8     9   ar
    43     9    10    1
    44     9    11   ar
    45    15    16    1
    46    16    17    1
    47    25    19   ar
    48    17    12    1
    49    11     5   ar
    50    49    41   ar
    51    39    34   ar
    52    49    44   ar
    53     3     4    1
    54    43    50    1
    55    32    33    1
@<TRIPOS>MOLECULE
*****
 50 55 0 0 0
SMALL
GASTEIGER

@<TRIPOS>ATOM
      1 C         -20.6459   54.6259   -9.9377 C.2     1  UNL1        0.2483
      2 O         -19.6868   54.4030  -10.7267 O.2     1  UNL1       -0.2701
      3 N         -20.5629   55.7305   -9.0206 N.am    1  UNL1       -0.2945
      4 H         -21.4455   56.1015   -8.6037 H       1  UNL1        0.1501
      5 C         -24.0954   52.0309  -10.0159 C.ar    1  UNL1        0.0502
      6 C         -22.8254   51.5416   -9.6705 C.ar    1  UNL1        0.0148
      7 C         -21.7166   52.3901   -9.6572 C.ar    1  UNL1        0.0080
      8 C         -21.8447   53.7491   -9.9955 C.ar    1  UNL1        0.0808
      9 C         -23.1224   54.2428  -10.3350 C.ar    1  UNL1        0.1457
     10 F         -23.3244   55.5527  -10.6187 F       1  UNL1       -0.2040
     11 C         -24.2302   53.3896  -10.3433 C.ar    1  UNL1        0.0443
     12 N         -27.6509   49.7356   -9.7233 N.pl3   1  UNL1       -0.3043
     13 C         -26.4027   49.0498   -9.3834 C.3     1  UNL1        0.1122
     14 C         -25.3300   50.0780   -9.0162 C.3     1  UNL1        0.1122
     15 N         -25.2463   51.1583  -10.0142 N.pl3   1  UNL1       -0.3040
     16 C         -26.2364   51.2406  -11.0996 C.3     1  UNL1        0.1122
     17 C         -27.6440   50.9287  -10.5783 C.3     1  UNL1        0.1122
     18 C         -28.8324   50.1973   -7.0956 C.3     1  UNL1        0.0320
     19 C         -29.5327   49.3608   -8.1430 C.ar    1  UNL1       -0.0124
     20 C         -30.8181   48.7975   -7.8919 C.ar    1  UNL1       -0.0244
     21 C         -31.3858   47.9421   -8.8583 C.ar    1  UNL1        0.0069
     22 C         -30.7372   47.6898  -10.0654 C.ar    1  UNL1        0.0586
     23 CL        -31.4744   46.6293  -11.2528 Cl      1  UNL1       -0.0822
     24 C         -29.5101   48.2868  -10.3350 C.ar    1  UNL1        0.0256
     25 C         -28.9060   49.1245   -9.3922 C.ar    1  UNL1        0.0444
     26 C         -31.5837   49.0547   -6.5943 C.3     1  UNL1        0.0221
     27 C         -31.0270   48.2242   -5.4283 C.3     1  UNL1        0.0047
     28 C         -31.5837   50.5489   -6.2543 C.3     1  UNL1        0.0047
     29 C         -19.2922   56.4005   -8.7066 C.3     1  UNL1        0.1535
     30 C         -19.5350   57.8589   -8.4078 C.2     1  UNL1        0.2443
     31 O         -19.9025   58.6308   -9.3359 O.2     1  UNL1       -0.2730
     32 N         -19.4218   58.3467   -7.0610 N.am    1  UNL1       -0.2825
     33 H         -19.4440   57.6479   -6.2841 H       1  UNL1        0.1549
     34 C         -19.3937   59.7411   -6.7106 C.ar    1  UNL1        0.0535
     35 C         -18.7985   60.6599   -7.5861 C.ar    1  UNL1        0.0353
     36 C         -18.7887   62.0184   -7.2612 C.ar    1  UNL1        0.1002
     37 N         -19.3683   62.4485   -6.1095 N.ar    1  UNL1       -0.2422
     38 C         -19.9704   61.5845   -5.2501 C.ar    1  UNL1        0.1002
     39 C         -20.0016   60.2173   -5.5363 C.ar    1  UNL1        0.0353
     40 C         -18.5982   55.7307   -7.5050 C.3     1  UNL1        0.0569
     41 C         -18.9985   54.2900   -7.3603 C.ar    1  UNL1       -0.0017
     42 C         -20.0082   53.7959   -6.5391 C.ar    1  UNL1        0.0681
     43 N         -20.0130   52.4436   -6.5567 N.ar    1  UNL1       -0.3523
     44 C         -19.0115   52.0790   -7.3757 C.ar    1  UNL1        0.0563
     45 C         -18.5986   50.7821   -7.6783 C.ar    1  UNL1        0.0170
     46 C         -17.4961   50.6266   -8.5383 C.ar    1  UNL1        0.0015
     47 C         -16.8410   51.7575   -9.0730 C.ar    1  UNL1        0.0001
     48 C         -17.2807   53.0540   -8.7512 C.ar    1  UNL1        0.0012
     49 C         -18.3710   53.1777   -7.8896 C.ar    1  UNL1        0.0131
     50 H         -20.6503   51.8141   -6.0201 H       1  UNL1        0.1660
@<TRIPOS>BOND
     1    18    19    1
     2    19    20   ar
     3    20    26    1
     4    26    27    1
     5    26    28    1
     6    20    21   ar
     7    21    22   ar
     8    22    23    1
     9    22    24   ar
    10    24    25   ar
    11    25    12    1
    12    12    13    1
    13    13    14    1
    14    14    15    1
    15    15     5    1
    16     5     6   ar
    17     6     7   ar
    18     7     8   ar
    19     8     1    1
    20     1     2    2
    21     1     3   am
    22     3    29    1
    23    29    40    1
    24    40    41    1
    25    41    42   ar
    26    42    43   ar
    27    43    44   ar
    28    44    45   ar
    29    45    46   ar
    30    46    47   ar
    31    47    48   ar
    32    48    49   ar
    33    29    30    1
    34    30    31    2
    35    30    32   am
    36    32    34    1
    37    34    35   ar
    38    35    36   ar
    39    36    37   ar
    40    37    38   ar
    41    38    39   ar
    42     8     9   ar
    43     9    10    1
    44     9    11   ar
    45    15    16    1
    46    16    17    1
    47    25    19   ar
    48    17    12    1
    49    11     5   ar
    50    49    41   ar
    51    39    34   ar
    52    49    44   ar
    53     3     4    1
    54    43    50    1
    55    32    33    1
@<TRIPOS>MOLECULE
*****
 50 55 0 0 0
SMALL
GASTEIGER

@<TRIPOS>ATOM
      1 C         -29.0900   50.8414  -11.4175 C.2     1  UNL1        0.2483
      2 O         -30.0122   51.5843  -10.9818 O.2     1  UNL1       -0.2701
      3 N         -29.4260   49.6971  -12.2210 N.am    1  UNL1       -0.2945
      4 H         -28.6864   49.2769  -12.8266 H       1  UNL1        0.1501
      5 C         -24.9814   51.8860  -10.6006 C.ar    1  UNL1        0.0502
      6 C         -25.3696   51.3909  -11.8559 C.ar    1  UNL1        0.0148
      7 C         -26.7006   51.0491  -12.1041 C.ar    1  UNL1        0.0080
      8 C         -27.6787   51.1857  -11.1029 C.ar    1  UNL1        0.0808
      9 C         -27.2901   51.6907   -9.8438 C.ar    1  UNL1        0.1457
     10 F         -28.1920   51.8975   -8.8533 F       1  UNL1       -0.2040
     11 C         -25.9566   52.0349   -9.6015 C.ar    1  UNL1        0.0443
     12 N         -21.0425   52.9481   -9.4373 N.pl3   1  UNL1       -0.3043
     13 C         -21.7592   53.9156  -10.2705 C.3     1  UNL1        0.1122
     14 C         -23.2670   53.6765  -10.1616 C.3     1  UNL1        0.1122
     15 N         -23.6083   52.2555  -10.3472 N.pl3   1  UNL1       -0.3040
     16 C         -22.5425   51.2455  -10.4430 C.3     1  UNL1        0.1122
     17 C         -21.4277   51.5317   -9.4302 C.3     1  UNL1        0.1122
     18 C         -18.7349   51.1629   -9.4784 C.3     1  UNL1        0.0320
     19 C         -18.6732   52.5220   -8.8178 C.ar    1  UNL1       -0.0124
     20 C         -17.4668   52.9932   -8.2220 C.ar    1  UNL1       -0.0244
     21 C         -17.4852   54.2216   -7.5300 C.ar    1  UNL1        0.0069
     22 C         -18.6414   54.9969   -7.4714 C.ar    1  UNL1        0.0586
     23 CL        -18.6298   56.5263   -6.6118 Cl      1  UNL1       -0.0822
     24 C         -19.8027   54.5647   -8.1035 C.ar    1  UNL1        0.0256
     25 C         -19.8287   53.3421   -8.7817 C.ar    1  UNL1        0.0444
     26 C         -16.1648   52.1942   -8.2712 C.3     1  UNL1        0.0221
     27 C         -16.1513   51.0596   -7.2359 C.3     1  UNL1        0.0047
     28 C         -15.9160   51.6532   -9.6832 C.3     1  UNL1        0.0047
     29 C         -30.7877   49.1447  -12.2753 C.3     1  UNL1        0.1535
     30 C         -31.0981   48.6672  -13.6720 C.2     1  UNL1        0.2443
     31 O         -31.5675   47.5084  -13.8429 O.2     1  UNL1       -0.2730
     32 N         -30.9311   49.5540  -14.7902 N.am    1  UNL1       -0.2825
     33 H         -30.8636   50.5788  -14.5959 H       1  UNL1        0.1549
     34 C         -30.9645   49.1308  -16.1641 C.ar    1  UNL1        0.0535
     35 C         -30.3176   49.9028  -17.1390 C.ar    1  UNL1        0.0353
     36 C         -30.3276   49.4843  -18.4717 C.ar    1  UNL1        0.1002
     37 N         -30.9476   48.3254  -18.8179 N.ar    1  UNL1       -0.2422
     38 C         -31.5663   47.5454  -17.8926 C.ar    1  UNL1        0.1002
     39 C         -31.5809   47.9278  -16.5489 C.ar    1  UNL1        0.0353
     40 C         -30.9506   47.9811  -11.2784 C.3     1  UNL1        0.0569
     41 C         -29.6450   47.2881  -11.0102 C.ar    1  UNL1       -0.0017
     42 C         -29.1538   46.1718  -11.6814 C.ar    1  UNL1        0.0681
     43 N         -28.0140   45.7338  -11.1000 N.ar    1  UNL1       -0.3523
     44 C         -27.7845   46.5586  -10.0639 C.ar    1  UNL1        0.0563
     45 C         -26.7443   46.4820   -9.1387 C.ar    1  UNL1        0.0170
     46 C         -26.7133   47.4340   -8.1034 C.ar    1  UNL1        0.0015
     47 C         -27.7091   48.4318   -8.0191 C.ar    1  UNL1        0.0001
     48 C         -28.7460   48.4854   -8.9679 C.ar    1  UNL1        0.0012
     49 C         -28.7556   47.5235   -9.9783 C.ar    1  UNL1        0.0131
     50 H         -27.4453   44.9058  -11.3855 H       1  UNL1        0.1660
@<TRIPOS>BOND
     1    18    19    1
     2    19    20   ar
     3    20    26    1
     4    26    27    1
     5    26    28    1
     6    20    21   ar
     7    21    22   ar
     8    22    23    1
     9    22    24   ar
    10    24    25   ar
    11    25    12    1
    12    12    13    1
    13    13    14    1
    14    14    15    1
    15    15     5    1
    16     5     6   ar
    17     6     7   ar
    18     7     8   ar
    19     8     1    1
    20     1     2    2
    21     1     3   am
    22     3    29    1
    23    29    40    1
    24    40    41    1
    25    41    42   ar
    26    42    43   ar
    27    43    44   ar
    28    44    45   ar
    29    45    46   ar
    30    46    47   ar
    31    47    48   ar
    32    48    49   ar
    33    29    30    1
    34    30    31    2
    35    30    32   am
    36    32    34    1
    37    34    35   ar
    38    35    36   ar
    39    36    37   ar
    40    37    38   ar
    41    38    39   ar
    42     8     9   ar
    43     9    10    1
    44     9    11   ar
    45    15    16    1
    46    16    17    1
    47    25    19   ar
    48    17    12    1
    49    11     5   ar
    50    49    41   ar
    51    39    34   ar
    52    49    44   ar
    53     3     4    1
    54    43    50    1
    55    32    33    1
@<TRIPOS>MOLECULE
*****
 50 55 0 0 0
SMALL
GASTEIGER

@<TRIPOS>ATOM
      1 C         -29.2357   50.7199  -11.4570 C.2     1  UNL1        0.2483
      2 O         -30.1779   51.4935  -11.1312 O.2     1  UNL1       -0.2701
      3 N         -29.5328   49.5082  -12.1721 N.am    1  UNL1       -0.2945
      4 H         -28.7653   49.0404  -12.7037 H       1  UNL1        0.1501
      5 C         -25.1725   51.8570  -10.5422 C.ar    1  UNL1        0.0502
      6 C         -25.5110   51.3116  -11.7910 C.ar    1  UNL1        0.0148
      7 C         -26.8277   50.9404  -12.0708 C.ar    1  UNL1        0.0080
      8 C         -27.8409   51.0972  -11.1083 C.ar    1  UNL1        0.0808
      9 C         -27.5024   51.6527   -9.8560 C.ar    1  UNL1        0.1457
     10 F         -28.4401   51.8805   -8.9041 F       1  UNL1       -0.2040
     11 C         -26.1829   52.0261   -9.5821 C.ar    1  UNL1        0.0443
     12 N         -21.3298   53.1835   -9.3296 N.pl3   1  UNL1       -0.3043
     13 C         -21.8511   53.7485  -10.5758 C.3     1  UNL1        0.1122
     14 C         -23.3759   53.6194  -10.6053 C.3     1  UNL1        0.1122
     15 N         -23.8142   52.2568  -10.2569 N.pl3   1  UNL1       -0.3040
     16 C         -22.8369   51.2642   -9.7827 C.3     1  UNL1        0.1122
     17 C         -21.8350   51.9048   -8.8152 C.3     1  UNL1        0.1122
     18 C         -21.3728   56.0069   -8.5947 C.3     1  UNL1        0.0320
     19 C         -20.1754   55.1305   -8.3022 C.ar    1  UNL1       -0.0124
     20 C         -19.0361   55.6498   -7.6205 C.ar    1  UNL1       -0.0244
     21 C         -17.9047   54.8236   -7.4607 C.ar    1  UNL1        0.0069
     22 C         -17.9093   53.5035   -7.9064 C.ar    1  UNL1        0.0586
     23 CL        -16.4898   52.4970   -7.6833 Cl      1  UNL1       -0.0822
     24 C         -19.0428   52.9790   -8.5188 C.ar    1  UNL1        0.0256
     25 C         -20.1765   53.7741   -8.7136 C.ar    1  UNL1        0.0444
     26 C         -18.9823   57.0835   -7.0937 C.3     1  UNL1        0.0221
     27 C         -17.7428   57.3247   -6.2192 C.3     1  UNL1        0.0047
     28 C         -19.0425   58.0867   -8.2507 C.3     1  UNL1        0.0047
     29 C         -30.8900   48.9465  -12.2414 C.3     1  UNL1        0.1535
     30 C         -31.2044   48.5232  -13.6545 C.2     1  UNL1        0.2443
     31 O         -31.5840   47.3410  -13.8795 O.2     1  UNL1       -0.2730
     32 N         -31.1446   49.4815  -14.7236 N.am    1  UNL1       -0.2825
     33 H         -31.1540   50.4959  -14.4723 H       1  UNL1        0.1549
     34 C         -31.1868   49.1337  -16.1183 C.ar    1  UNL1        0.0535
     35 C         -30.8519   50.0977  -17.0794 C.ar    1  UNL1        0.0353
     36 C         -30.8692   49.7586  -18.4344 C.ar    1  UNL1        0.1002
     37 N         -31.1931   48.4954  -18.8173 N.ar    1  UNL1       -0.2422
     38 C         -31.5033   47.5337  -17.9081 C.ar    1  UNL1        0.1002
     39 C         -31.4992   47.8309  -16.5429 C.ar    1  UNL1        0.0353
     40 C         -31.0371   47.7421  -11.2915 C.3     1  UNL1        0.0569
     41 C         -29.7110   47.1054  -10.9870 C.ar    1  UNL1       -0.0017
     42 C         -29.1628   45.9996  -11.6310 C.ar    1  UNL1        0.0681
     43 N         -28.0187   45.6157  -11.0206 N.ar    1  UNL1       -0.3523
     44 C         -27.8428   46.4642   -9.9931 C.ar    1  UNL1        0.0563
     45 C         -26.8194   46.4425   -9.0465 C.ar    1  UNL1        0.0170
     46 C         -26.8468   47.4102   -8.0258 C.ar    1  UNL1        0.0015
     47 C         -27.8825   48.3689   -7.9766 C.ar    1  UNL1        0.0001
     48 C         -28.9012   48.3674   -8.9463 C.ar    1  UNL1        0.0012
     49 C         -28.8526   47.3911   -9.9417 C.ar    1  UNL1        0.0131
     50 H         -27.4123   44.8068  -11.2819 H       1  UNL1        0.1660
@<TRIPOS>BOND
     1    18    19    1
     2    19    20   ar
     3    20    26    1
     4    26    27    1
     5    26    28    1
     6    20    21   ar
     7    21    22   ar
     8    22    23    1
     9    22    24   ar
    10    24    25   ar
    11    25    12    1
    12    12    13    1
    13    13    14    1
    14    14    15    1
    15    15     5    1
    16     5     6   ar
    17     6     7   ar
    18     7     8   ar
    19     8     1    1
    20     1     2    2
    21     1     3   am
    22     3    29    1
    23    29    40    1
    24    40    41    1
    25    41    42   ar
    26    42    43   ar
    27    43    44   ar
    28    44    45   ar
    29    45    46   ar
    30    46    47   ar
    31    47    48   ar
    32    48    49   ar
    33    29    30    1
    34    30    31    2
    35    30    32   am
    36    32    34    1
    37    34    35   ar
    38    35    36   ar
    39    36    37   ar
    40    37    38   ar
    41    38    39   ar
    42     8     9   ar
    43     9    10    1
    44     9    11   ar
    45    15    16    1
    46    16    17    1
    47    25    19   ar
    48    17    12    1
    49    11     5   ar
    50    49    41   ar
    51    39    34   ar
    52    49    44   ar
    53     3     4    1
    54    43    50    1
    55    32    33    1
@<TRIPOS>MOLECULE
*****
 50 55 0 0 0
SMALL
GASTEIGER

@<TRIPOS>ATOM
      1 C         -22.0190   53.5417  -10.0791 C.2     1  UNL1        0.2483
      2 O         -21.6171   53.6391  -11.2712 O.2     1  UNL1       -0.2701
      3 N         -21.4332   54.3781   -9.0665 N.am    1  UNL1       -0.2945
      4 H         -21.9575   54.5265   -8.1757 H       1  UNL1        0.1501
      5 C         -25.1785   50.7157   -9.2607 C.ar    1  UNL1        0.0502
      6 C         -25.2430   51.5777  -10.3672 C.ar    1  UNL1        0.0148
      7 C         -24.2179   52.4928  -10.6156 C.ar    1  UNL1        0.0080
      8 C         -23.1039   52.5767   -9.7614 C.ar    1  UNL1        0.0808
      9 C         -23.0352   51.7051   -8.6538 C.ar    1  UNL1        0.1457
     10 F         -21.9646   51.6972   -7.8226 F       1  UNL1       -0.2040
     11 C         -24.0627   50.7881   -8.4115 C.ar    1  UNL1        0.0443
     12 N         -28.0868   47.8365   -8.1433 N.pl3   1  UNL1       -0.3043
     13 C         -27.3060   47.5413   -9.3463 C.3     1  UNL1        0.1122
     14 C         -25.9984   48.3363   -9.3234 C.3     1  UNL1        0.1122
     15 N         -26.2300   49.7573   -9.0114 N.pl3   1  UNL1       -0.3040
     16 C         -27.5693   50.2181   -8.6129 C.3     1  UNL1        0.1122
     17 C         -28.2297   49.2151   -7.6598 C.3     1  UNL1        0.1122
     18 C         -27.8568   47.2983   -5.2847 C.3     1  UNL1        0.0320
     19 C         -28.8356   46.5438   -6.1565 C.ar    1  UNL1       -0.0124
     20 C         -29.7093   45.5645   -5.5996 C.ar    1  UNL1       -0.0244
     21 C         -30.5318   44.8160   -6.4663 C.ar    1  UNL1        0.0069
     22 C         -30.5407   45.0593   -7.8382 C.ar    1  UNL1        0.0586
     23 CL        -31.5833   44.1184   -8.8896 Cl      1  UNL1       -0.0822
     24 C         -29.7313   46.0556   -8.3742 C.ar    1  UNL1        0.0256
     25 C         -28.8868   46.8046   -7.5488 C.ar    1  UNL1        0.0444
     26 C         -29.7555   45.2685   -4.1008 C.3     1  UNL1        0.0221
     27 C         -31.0162   44.4816   -3.7125 C.3     1  UNL1        0.0047
     28 C         -28.4881   44.5305   -3.6567 C.3     1  UNL1        0.0047
     29 C         -20.1612   55.0876   -9.2690 C.3     1  UNL1        0.1535
     30 C         -20.2856   56.5175   -8.8054 C.2     1  UNL1        0.2443
     31 O         -21.0736   57.2993   -9.4056 O.2     1  UNL1       -0.2730
     32 N         -19.5688   56.9626   -7.6423 N.am    1  UNL1       -0.2825
     33 H         -19.1982   56.2363   -6.9885 H       1  UNL1        0.1549
     34 C         -19.4278   58.3428   -7.2640 C.ar    1  UNL1        0.0535
     35 C         -18.7838   59.2335   -8.1338 C.ar    1  UNL1        0.0353
     36 C         -18.6644   60.5799   -7.7813 C.ar    1  UNL1        0.1002
     37 N         -19.1850   61.0265   -6.6080 N.ar    1  UNL1       -0.2422
     38 C         -19.8322   60.1912   -5.7530 C.ar    1  UNL1        0.1002
     39 C         -19.9728   58.8370   -6.0665 C.ar    1  UNL1        0.0353
     40 C         -19.0150   54.3914   -8.5101 C.3     1  UNL1        0.0569
     41 C         -18.4830   53.2069   -9.2656 C.ar    1  UNL1       -0.0017
     42 C         -18.9442   52.7405  -10.4936 C.ar    1  UNL1        0.0681
     43 N         -18.3275   51.5824  -10.8216 N.ar    1  UNL1       -0.3523
     44 C         -17.4864   51.3095   -9.8093 C.ar    1  UNL1        0.0563
     45 C         -16.6616   50.1934   -9.6751 C.ar    1  UNL1        0.0170
     46 C         -15.8821   50.0880   -8.5087 C.ar    1  UNL1        0.0015
     47 C         -15.9412   51.0905   -7.5159 C.ar    1  UNL1        0.0001
     48 C         -16.7815   52.2063   -7.6793 C.ar    1  UNL1        0.0012
     49 C         -17.5489   52.2800   -8.8420 C.ar    1  UNL1        0.0131
     50 H         -18.4938   51.0065  -11.6766 H       1  UNL1        0.1660
@<TRIPOS>BOND
     1    18    19    1
     2    19    20   ar
     3    20    26    1
     4    26    27    1
     5    26    28    1
     6    20    21   ar
     7    21    22   ar
     8    22    23    1
     9    22    24   ar
    10    24    25   ar
    11    25    12    1
    12    12    13    1
    13    13    14    1
    14    14    15    1
    15    15     5    1
    16     5     6   ar
    17     6     7   ar
    18     7     8   ar
    19     8     1    1
    20     1     2    2
    21     1     3   am
    22     3    29    1
    23    29    40    1
    24    40    41    1
    25    41    42   ar
    26    42    43   ar
    27    43    44   ar
    28    44    45   ar
    29    45    46   ar
    30    46    47   ar
    31    47    48   ar
    32    48    49   ar
    33    29    30    1
    34    30    31    2
    35    30    32   am
    36    32    34    1
    37    34    35   ar
    38    35    36   ar
    39    36    37   ar
    40    37    38   ar
    41    38    39   ar
    42     8     9   ar
    43     9    10    1
    44     9    11   ar
    45    15    16    1
    46    16    17    1
    47    25    19   ar
    48    17    12    1
    49    11     5   ar
    50    49    41   ar
    51    39    34   ar
    52    49    44   ar
    53     3     4    1
    54    43    50    1
    55    32    33    1
@<TRIPOS>MOLECULE
*****
 50 55 0 0 0
SMALL
GASTEIGER

@<TRIPOS>ATOM
      1 C         -28.9559   50.4263  -12.2890 C.2     1  UNL1        0.2483
      2 O         -29.7398   51.1621  -12.9496 O.2     1  UNL1       -0.2701
      3 N         -29.3773   49.1032  -11.9149 N.am    1  UNL1       -0.2945
      4 H         -28.6489   48.4008  -11.6570 H       1  UNL1        0.1501
      5 C         -25.0346   51.8560  -11.1854 C.ar    1  UNL1        0.0502
      6 C         -25.9635   51.4571  -10.2110 C.ar    1  UNL1        0.0148
      7 C         -27.2315   51.0044  -10.5814 C.ar    1  UNL1        0.0080
      8 C         -27.6086   50.9446  -11.9349 C.ar    1  UNL1        0.0808
      9 C         -26.6723   51.3380  -12.9147 C.ar    1  UNL1        0.1457
     10 F         -26.9527   51.2540  -14.2381 F       1  UNL1       -0.2040
     11 C         -25.4026   51.7872  -12.5387 C.ar    1  UNL1        0.0443
     12 N         -21.3181   53.2284   -9.6686 N.pl3   1  UNL1       -0.3043
     13 C         -21.9164   54.0222  -10.7437 C.3     1  UNL1        0.1122
     14 C         -23.4214   53.7521  -10.8112 C.3     1  UNL1        0.1122
     15 N         -23.7169   52.3089  -10.8050 N.pl3   1  UNL1       -0.3040
     16 C         -22.6378   51.3342  -10.5801 C.3     1  UNL1        0.1122
     17 C         -21.6851   51.8195   -9.4813 C.3     1  UNL1        0.1122
     18 C         -21.3220   56.0477   -8.9167 C.3     1  UNL1        0.0320
     19 C         -20.2036   55.1185   -8.5006 C.ar    1  UNL1       -0.0124
     20 C         -19.1265   55.5845   -7.6911 C.ar    1  UNL1       -0.0244
     21 C         -18.0566   54.7091   -7.4138 C.ar    1  UNL1        0.0069
     22 C         -18.0679   53.3924   -7.8695 C.ar    1  UNL1        0.0586
     23 CL        -16.7267   52.3239   -7.4988 Cl      1  UNL1       -0.0822
     24 C         -19.1471   52.9206   -8.6095 C.ar    1  UNL1        0.0256
     25 C         -20.2168   53.7653   -8.9222 C.ar    1  UNL1        0.0444
     26 C         -19.0706   57.0122   -7.1483 C.3     1  UNL1        0.0221
     27 C         -17.8208   57.2473   -6.2869 C.3     1  UNL1        0.0047
     28 C         -19.1489   58.0286   -8.2925 C.3     1  UNL1        0.0047
     29 C         -30.7863   48.6845  -11.9532 C.3     1  UNL1        0.1535
     30 C         -31.0003   47.6853  -13.0626 C.2     1  UNL1        0.2443
     31 O         -31.5829   46.5942  -12.8128 O.2     1  UNL1       -0.2730
     32 N         -30.6110   48.0081  -14.4076 N.am    1  UNL1       -0.2825
     33 H         -30.4437   49.0131  -14.6406 H       1  UNL1        0.1549
     34 C         -30.5476   47.0501  -15.4782 C.ar    1  UNL1        0.0535
     35 C         -30.2134   47.4808  -16.7696 C.ar    1  UNL1        0.0353
     36 C         -30.1281   46.5510  -17.8085 C.ar    1  UNL1        0.1002
     37 N         -30.3520   45.2329  -17.5641 N.ar    1  UNL1       -0.2422
     38 C         -30.6585   44.7820  -16.3190 C.ar    1  UNL1        0.1002
     39 C         -30.7551   45.6786  -15.2518 C.ar    1  UNL1        0.0353
     40 C         -31.2150   48.0687  -10.6073 C.3     1  UNL1        0.0569
     41 C         -30.4130   48.6169   -9.4613 C.ar    1  UNL1       -0.0017
     42 C         -30.7400   49.7253   -8.6851 C.ar    1  UNL1        0.0681
     43 N         -29.7358   50.0145   -7.8266 N.ar    1  UNL1       -0.3523
     44 C         -28.7750   49.1035   -8.0580 C.ar    1  UNL1        0.0563
     45 C         -27.5261   49.0197   -7.4440 C.ar    1  UNL1        0.0170
     46 C         -26.6525   48.0010   -7.8661 C.ar    1  UNL1        0.0015
     47 C         -27.0437   47.0972   -8.8783 C.ar    1  UNL1        0.0001
     48 C         -28.3108   47.2052   -9.4790 C.ar    1  UNL1        0.0012
     49 C         -29.1525   48.2300   -9.0460 C.ar    1  UNL1        0.0131
     50 H         -29.7062   50.8030   -7.1428 H       1  UNL1        0.1660
@<TRIPOS>BOND
     1    18    19    1
     2    19    20   ar
     3    20    26    1
     4    26    27    1
     5    26    28    1
     6    20    21   ar
     7    21    22   ar
     8    22    23    1
     9    22    24   ar
    10    24    25   ar
    11    25    12    1
    12    12    13    1
    13    13    14    1
    14    14    15    1
    15    15     5    1
    16     5     6   ar
    17     6     7   ar
    18     7     8   ar
    19     8     1    1
    20     1     2    2
    21     1     3   am
    22     3    29    1
    23    29    40    1
    24    40    41    1
    25    41    42   ar
    26    42    43   ar
    27    43    44   ar
    28    44    45   ar
    29    45    46   ar
    30    46    47   ar
    31    47    48   ar
    32    48    49   ar
    33    29    30    1
    34    30    31    2
    35    30    32   am
    36    32    34    1
    37    34    35   ar
    38    35    36   ar
    39    36    37   ar
    40    37    38   ar
    41    38    39   ar
    42     8     9   ar
    43     9    10    1
    44     9    11   ar
    45    15    16    1
    46    16    17    1
    47    25    19   ar
    48    17    12    1
    49    11     5   ar
    50    49    41   ar
    51    39    34   ar
    52    49    44   ar
    53     3     4    1
    54    43    50    1
    55    32    33    1
@<TRIPOS>MOLECULE
*****
 50 55 0 0 0
SMALL
GASTEIGER

@<TRIPOS>ATOM
      1 C         -26.0708   49.5721  -10.1788 C.2     1  UNL1        0.2483
      2 O         -26.8981   49.9636  -11.0474 O.2     1  UNL1       -0.2701
      3 N         -26.2565   48.2899   -9.5548 N.am    1  UNL1       -0.2945
      4 H         -25.4387   47.8373   -9.0893 H       1  UNL1        0.1501
      5 C         -22.7530   52.1780   -9.2621 C.ar    1  UNL1        0.0502
      6 C         -23.2747   52.0958  -10.5631 C.ar    1  UNL1        0.0148
      7 C         -24.3427   51.2426  -10.8476 C.ar    1  UNL1        0.0080
      8 C         -24.9142   50.4429   -9.8419 C.ar    1  UNL1        0.0808
      9 C         -24.3952   50.5313   -8.5326 C.ar    1  UNL1        0.1457
     10 F         -24.9345   49.8285   -7.5067 F       1  UNL1       -0.2040
     11 C         -23.3277   51.3899   -8.2522 C.ar    1  UNL1        0.0443
     12 N         -19.8093   55.0102   -8.1175 N.pl3   1  UNL1       -0.3043
     13 C         -20.1308   54.9448   -9.5445 C.3     1  UNL1        0.1122
     14 C         -21.5137   54.3175   -9.7359 C.3     1  UNL1        0.1122
     15 N         -21.6589   53.0722   -8.9625 N.pl3   1  UNL1       -0.3040
     16 C         -20.6092   52.6628   -8.0161 C.3     1  UNL1        0.1122
     17 C         -20.0799   53.8701   -7.2334 C.3     1  UNL1        0.1122
     18 C         -20.6275   57.7429   -8.7311 C.3     1  UNL1        0.0320
     19 C         -19.4288   57.4526   -7.8557 C.ar    1  UNL1       -0.0124
     20 C         -18.6768   58.5117   -7.2681 C.ar    1  UNL1       -0.0244
     21 C         -17.5090   58.1956   -6.5440 C.ar    1  UNL1        0.0069
     22 C         -17.1182   56.8721   -6.3514 C.ar    1  UNL1        0.0586
     23 CL        -15.6657   56.5102   -5.4364 Cl      1  UNL1       -0.0822
     24 C         -17.8849   55.8362   -6.8749 C.ar    1  UNL1        0.0256
     25 C         -19.0382   56.1113   -7.6163 C.ar    1  UNL1        0.0444
     26 C         -19.0686   59.9801   -7.4306 C.3     1  UNL1        0.0221
     27 C         -19.7056   60.5461   -6.1526 C.3     1  UNL1        0.0047
     28 C         -17.8591   60.8176   -7.8596 C.3     1  UNL1        0.0047
     29 C         -27.5335   47.5631   -9.6120 C.3     1  UNL1        0.1535
     30 C         -27.7643   46.8181   -8.3209 C.2     1  UNL1        0.2443
     31 O         -28.4626   45.7671   -8.3260 O.2     1  UNL1       -0.2730
     32 N         -27.1303   47.2616   -7.1102 N.am    1  UNL1       -0.2825
     33 H         -26.3178   47.9137   -7.1940 H       1  UNL1        0.1549
     34 C         -27.4710   46.7769   -5.7999 C.ar    1  UNL1        0.0535
     35 C         -28.8148   46.7537   -5.4015 C.ar    1  UNL1        0.0353
     36 C         -29.1534   46.2626   -4.1385 C.ar    1  UNL1        0.1002
     37 N         -28.1858   45.7942   -3.3069 N.ar    1  UNL1       -0.2422
     38 C         -26.8766   45.7853   -3.6723 C.ar    1  UNL1        0.1002
     39 C         -26.4945   46.2686   -4.9263 C.ar    1  UNL1        0.0353
     40 C         -28.7058   48.5284   -9.8736 C.3     1  UNL1        0.0569
     41 C         -29.4071   48.9133   -8.6021 C.ar    1  UNL1       -0.0017
     42 C         -30.6082   48.3875   -8.1342 C.ar    1  UNL1        0.0681
     43 N         -31.0152   49.0497   -7.0274 N.ar    1  UNL1       -0.3523
     44 C         -30.0862   49.9931   -6.7960 C.ar    1  UNL1        0.0563
     45 C         -30.0920   50.9529   -5.7848 C.ar    1  UNL1        0.0170
     46 C         -29.0301   51.8750   -5.7470 C.ar    1  UNL1        0.0015
     47 C         -27.9966   51.8154   -6.7073 C.ar    1  UNL1        0.0001
     48 C         -28.0164   50.8349   -7.7154 C.ar    1  UNL1        0.0012
     49 C         -29.0859   49.9393   -7.7330 C.ar    1  UNL1        0.0131
     50 H         -31.8887   48.8770   -6.4820 H       1  UNL1        0.1660
@<TRIPOS>BOND
     1    18    19    1
     2    19    20   ar
     3    20    26    1
     4    26    27    1
     5    26    28    1
     6    20    21   ar
     7    21    22   ar
     8    22    23    1
     9    22    24   ar
    10    24    25   ar
    11    25    12    1
    12    12    13    1
    13    13    14    1
    14    14    15    1
    15    15     5    1
    16     5     6   ar
    17     6     7   ar
    18     7     8   ar
    19     8     1    1
    20     1     2    2
    21     1     3   am
    22     3    29    1
    23    29    40    1
    24    40    41    1
    25    41    42   ar
    26    42    43   ar
    27    43    44   ar
    28    44    45   ar
    29    45    46   ar
    30    46    47   ar
    31    47    48   ar
    32    48    49   ar
    33    29    30    1
    34    30    31    2
    35    30    32   am
    36    32    34    1
    37    34    35   ar
    38    35    36   ar
    39    36    37   ar
    40    37    38   ar
    41    38    39   ar
    42     8     9   ar
    43     9    10    1
    44     9    11   ar
    45    15    16    1
    46    16    17    1
    47    25    19   ar
    48    17    12    1
    49    11     5   ar
    50    49    41   ar
    51    39    34   ar
    52    49    44   ar
    53     3     4    1
    54    43    50    1
    55    32    33    1
@<TRIPOS>MOLECULE
*****
 50 55 0 0 0
SMALL
GASTEIGER

@<TRIPOS>ATOM
      1 C         -23.1125   51.7665  -10.3070 C.2     1  UNL1        0.2483
      2 O         -22.6149   50.9301  -11.1102 O.2     1  UNL1       -0.2701
      3 N         -24.4193   51.5257   -9.7573 N.am    1  UNL1       -0.2945
      4 H         -24.6945   52.0275   -8.8839 H       1  UNL1        0.1501
      5 C         -20.9030   55.3121   -9.2179 C.ar    1  UNL1        0.0502
      6 C         -22.0333   55.3863  -10.0477 C.ar    1  UNL1        0.0148
      7 C         -22.7339   54.2306  -10.3989 C.ar    1  UNL1        0.0080
      8 C         -22.3204   52.9685   -9.9367 C.ar    1  UNL1        0.0808
      9 C         -21.1891   52.8946   -9.0963 C.ar    1  UNL1        0.1457
     10 F         -20.7698   51.7166   -8.5731 F       1  UNL1       -0.2040
     11 C         -20.4931   54.0553   -8.7447 C.ar    1  UNL1        0.0443
     12 N         -19.1537   58.9435   -7.8955 N.pl3   1  UNL1       -0.3043
     13 C         -19.2326   58.7478   -9.3444 C.3     1  UNL1        0.1122
     14 C         -20.3175   57.7184   -9.6699 C.3     1  UNL1        0.1122
     15 N         -20.1868   56.5081   -8.8402 N.pl3   1  UNL1       -0.3040
     16 C         -19.2090   56.4669   -7.7415 C.3     1  UNL1        0.1122
     17 C         -19.1890   57.7971   -6.9794 C.3     1  UNL1        0.1122
     18 C         -20.8700   60.1470   -5.8657 C.3     1  UNL1        0.0320
     19 C         -19.6175   60.8389   -6.3556 C.ar    1  UNL1       -0.0124
     20 C         -19.2124   62.0928   -5.8114 C.ar    1  UNL1       -0.0244
     21 C         -18.0953   62.7471   -6.3701 C.ar    1  UNL1        0.0069
     22 C         -17.3587   62.1619   -7.3979 C.ar    1  UNL1        0.0586
     23 CL        -15.9670   62.9961   -8.0651 Cl      1  UNL1       -0.0822
     24 C         -17.7192   60.9112   -7.8885 C.ar    1  UNL1        0.0256
     25 C         -18.8334   60.2410   -7.3738 C.ar    1  UNL1        0.0444
     26 C         -19.9710   62.7724   -4.6718 C.3     1  UNL1        0.0221
     27 C         -19.0981   62.9286   -3.4176 C.3     1  UNL1        0.0047
     28 C         -20.5286   64.1258   -5.1256 C.3     1  UNL1        0.0047
     29 C         -25.3506   50.5470  -10.3381 C.3     1  UNL1        0.1535
     30 C         -25.6254   49.4424   -9.3485 C.2     1  UNL1        0.2443
     31 O         -26.0466   48.3273   -9.7627 O.2     1  UNL1       -0.2730
     32 N         -25.3368   49.6361   -7.9543 N.am    1  UNL1       -0.2825
     33 H         -24.6975   50.4200   -7.6914 H       1  UNL1        0.1549
     34 C         -25.7810   48.7519   -6.9108 C.ar    1  UNL1        0.0535
     35 C         -26.5588   49.2602   -5.8613 C.ar    1  UNL1        0.0353
     36 C         -27.0120   48.4013   -4.8573 C.ar    1  UNL1        0.1002
     37 N         -26.7137   47.0762   -4.9073 N.ar    1  UNL1       -0.2422
     38 C         -25.9784   46.5502   -5.9223 C.ar    1  UNL1        0.1002
     39 C         -25.5045   47.3743   -6.9462 C.ar    1  UNL1        0.0353
     40 C         -26.6742   51.2214  -10.7475 C.3     1  UNL1        0.0569
     41 C         -27.8012   50.8439   -9.8288 C.ar    1  UNL1       -0.0017
     42 C         -28.9102   50.0712  -10.1626 C.ar    1  UNL1        0.0681
     43 N         -29.7885   50.0355   -9.1348 N.ar    1  UNL1       -0.3523
     44 C         -29.2480   50.7839   -8.1578 C.ar    1  UNL1        0.0563
     45 C         -29.8056   51.0789   -6.9145 C.ar    1  UNL1        0.0170
     46 C         -29.0792   51.9183   -6.0502 C.ar    1  UNL1        0.0015
     47 C         -27.8248   52.4351   -6.4422 C.ar    1  UNL1        0.0001
     48 C         -27.2863   52.1190   -7.7024 C.ar    1  UNL1        0.0012
     49 C         -28.0327   51.2911   -8.5414 C.ar    1  UNL1        0.0131
     50 H         -30.7108   49.5463   -9.1180 H       1  UNL1        0.1660
@<TRIPOS>BOND
     1    18    19    1
     2    19    20   ar
     3    20    26    1
     4    26    27    1
     5    26    28    1
     6    20    21   ar
     7    21    22   ar
     8    22    23    1
     9    22    24   ar
    10    24    25   ar
    11    25    12    1
    12    12    13    1
    13    13    14    1
    14    14    15    1
    15    15     5    1
    16     5     6   ar
    17     6     7   ar
    18     7     8   ar
    19     8     1    1
    20     1     2    2
    21     1     3   am
    22     3    29    1
    23    29    40    1
    24    40    41    1
    25    41    42   ar
    26    42    43   ar
    27    43    44   ar
    28    44    45   ar
    29    45    46   ar
    30    46    47   ar
    31    47    48   ar
    32    48    49   ar
    33    29    30    1
    34    30    31    2
    35    30    32   am
    36    32    34    1
    37    34    35   ar
    38    35    36   ar
    39    36    37   ar
    40    37    38   ar
    41    38    39   ar
    42     8     9   ar
    43     9    10    1
    44     9    11   ar
    45    15    16    1
    46    16    17    1
    47    25    19   ar
    48    17    12    1
    49    11     5   ar
    50    49    41   ar
    51    39    34   ar
    52    49    44   ar
    53     3     4    1
    54    43    50    1
    55    32    33    1
@<TRIPOS>MOLECULE
*****
 50 55 0 0 0
SMALL
GASTEIGER

@<TRIPOS>ATOM
      1 C         -22.9837   51.7654  -10.3545 C.2     1  UNL1        0.2483
      2 O         -22.4714   50.9362  -11.1559 O.2     1  UNL1       -0.2701
      3 N         -24.2916   51.5092   -9.8145 N.am    1  UNL1       -0.2945
      4 H         -24.5784   52.0061   -8.9420 H       1  UNL1        0.1501
      5 C         -20.8210   55.3317   -9.2394 C.ar    1  UNL1        0.0502
      6 C         -21.9701   55.4001  -10.0433 C.ar    1  UNL1        0.0148
      7 C         -22.6554   54.2379  -10.4035 C.ar    1  UNL1        0.0080
      8 C         -22.2074   52.9752   -9.9763 C.ar    1  UNL1        0.0808
      9 C         -21.0572   52.9070   -9.1617 C.ar    1  UNL1        0.1457
     10 F         -20.6038   51.7273   -8.6718 F       1  UNL1       -0.2040
     11 C         -20.3765   54.0740   -8.8009 C.ar    1  UNL1        0.0443
     12 N         -19.1206   58.9773   -7.8924 N.pl3   1  UNL1       -0.3043
     13 C         -19.1837   58.7841   -9.3425 C.3     1  UNL1        0.1122
     14 C         -20.2552   57.7447   -9.6805 C.3     1  UNL1        0.1122
     15 N         -20.1204   56.5339   -8.8523 N.pl3   1  UNL1       -0.3040
     16 C         -19.1527   56.4999   -7.7443 C.3     1  UNL1        0.1122
     17 C         -19.1531   57.8285   -6.9792 C.3     1  UNL1        0.1122
     18 C         -20.8557   60.1497   -5.8605 C.3     1  UNL1        0.0320
     19 C         -19.6116   60.8600   -6.3455 C.ar    1  UNL1       -0.0124
     20 C         -19.2239   62.1169   -5.7955 C.ar    1  UNL1       -0.0244
     21 C         -18.1146   62.7881   -6.3497 C.ar    1  UNL1        0.0069
     22 C         -17.3688   62.2169   -7.3787 C.ar    1  UNL1        0.0586
     23 CL        -15.9871   63.0720   -8.0403 Cl      1  UNL1       -0.0822
     24 C         -17.7121   60.9636   -7.8751 C.ar    1  UNL1        0.0256
     25 C         -18.8182   60.2767   -7.3649 C.ar    1  UNL1        0.0444
     26 C         -19.9931   62.7818   -4.6544 C.3     1  UNL1        0.0221
     27 C         -19.1409   62.8963   -3.3816 C.3     1  UNL1        0.0047
     28 C         -20.5225   64.1533   -5.0869 C.3     1  UNL1        0.0047
     29 C         -25.2080   50.5215  -10.4037 C.3     1  UNL1        0.1535
     30 C         -25.5632   49.4699   -9.3825 C.2     1  UNL1        0.2443
     31 O         -25.9569   48.3353   -9.7696 O.2     1  UNL1       -0.2730
     32 N         -25.3812   49.7354   -7.9821 N.am    1  UNL1       -0.2825
     33 H         -24.7601   50.5313   -7.7117 H       1  UNL1        0.1549
     34 C         -25.9083   48.9068   -6.9315 C.ar    1  UNL1        0.0535
     35 C         -26.7564   49.4711   -5.9686 C.ar    1  UNL1        0.0353
     36 C         -27.2893   48.6659   -4.9592 C.ar    1  UNL1        0.1002
     37 N         -26.9997   47.3385   -4.9214 N.ar    1  UNL1       -0.2422
     38 C         -26.1967   46.7585   -5.8521 C.ar    1  UNL1        0.1002
     39 C         -25.6419   47.5279   -6.8780 C.ar    1  UNL1        0.0353
     40 C         -26.4910   51.2001  -10.9211 C.3     1  UNL1        0.0569
     41 C         -27.5273   51.3327   -9.8416 C.ar    1  UNL1       -0.0017
     42 C         -27.4416   52.1463   -8.7152 C.ar    1  UNL1        0.0681
     43 N         -28.4903   51.9246   -7.8905 N.ar    1  UNL1       -0.3523
     44 C         -29.2337   50.9737   -8.4820 C.ar    1  UNL1        0.0563
     45 C         -30.3972   50.3842   -7.9894 C.ar    1  UNL1        0.0170
     46 C         -31.0004   49.3743   -8.7610 C.ar    1  UNL1        0.0015
     47 C         -30.4358   48.9834   -9.9950 C.ar    1  UNL1        0.0001
     48 C         -29.2619   49.5971  -10.4676 C.ar    1  UNL1        0.0012
     49 C         -28.6813   50.5895   -9.6773 C.ar    1  UNL1        0.0131
     50 H         -28.6681   52.3824   -6.9691 H       1  UNL1        0.1660
@<TRIPOS>BOND
     1    18    19    1
     2    19    20   ar
     3    20    26    1
     4    26    27    1
     5    26    28    1
     6    20    21   ar
     7    21    22   ar
     8    22    23    1
     9    22    24   ar
    10    24    25   ar
    11    25    12    1
    12    12    13    1
    13    13    14    1
    14    14    15    1
    15    15     5    1
    16     5     6   ar
    17     6     7   ar
    18     7     8   ar
    19     8     1    1
    20     1     2    2
    21     1     3   am
    22     3    29    1
    23    29    40    1
    24    40    41    1
    25    41    42   ar
    26    42    43   ar
    27    43    44   ar
    28    44    45   ar
    29    45    46   ar
    30    46    47   ar
    31    47    48   ar
    32    48    49   ar
    33    29    30    1
    34    30    31    2
    35    30    32   am
    36    32    34    1
    37    34    35   ar
    38    35    36   ar
    39    36    37   ar
    40    37    38   ar
    41    38    39   ar
    42     8     9   ar
    43     9    10    1
    44     9    11   ar
    45    15    16    1
    46    16    17    1
    47    25    19   ar
    48    17    12    1
    49    11     5   ar
    50    49    41   ar
    51    39    34   ar
    52    49    44   ar
    53     3     4    1
    54    43    50    1
    55    32    33    1
