@<TRIPOS>MOLECULE
*****
 37 42 0 0 0
SMALL
GASTEIGER

@<TRIPOS>ATOM
      1 C         -21.1473   -9.4701  -11.9096 C.ar    1  UNL1        0.1095
      2 N         -20.4530  -10.6359  -11.9199 N.ar    1  UNL1       -0.1677
      3 N         -19.9939  -10.8647  -10.6975 N.ar    1  UNL1       -0.2319
      4 C         -19.1315  -11.9834  -10.3414 C.3     1  UNL1        0.1554
      5 C         -20.3648   -9.8469   -9.9089 C.ar    1  UNL1        0.1654
      6 N         -20.0360   -9.6701   -8.6071 N.ar    1  UNL1       -0.2050
      7 C         -20.4999   -8.5570   -7.9707 C.ar    1  UNL1        0.2014
      8 N         -21.3011   -7.6652   -8.6304 N.ar    1  UNL1       -0.2089
      9 C         -21.6423   -7.8330   -9.9436 C.ar    1  UNL1        0.1379
     10 C         -21.1195   -8.9514  -10.6108 C.ar    1  UNL1        0.0865
     11 C         -22.7096   -9.3065  -13.9500 C.ar    1  UNL1        0.0810
     12 C         -21.6712   -8.8550  -13.1465 C.ar    1  UNL1        0.0577
     13 C         -21.1654   -7.7555  -13.8184 C.ar    1  UNL1        0.1231
     14 N         -21.8772   -7.5455  -14.9429 N.ar    1  UNL1       -0.1676
     15 N         -22.8050   -8.4862  -15.0172 N.ar    1  UNL1       -0.2487
     16 C         -23.7545   -8.5921  -16.1197 C.3     1  UNL1        0.1537
     17 C         -23.1284  -11.7756  -14.3820 C.ar    1  UNL1        0.0358
     18 C         -23.8574  -12.9373  -14.0690 C.ar    1  UNL1       -0.0014
     19 C         -24.9370  -12.8935  -13.1764 C.ar    1  UNL1       -0.0218
     20 C         -25.7353  -14.1322  -12.8951 C.3     1  UNL1        0.0310
     21 C         -25.3049  -11.6729  -12.6006 C.ar    1  UNL1       -0.0042
     22 C         -24.5803  -10.5158  -12.8839 C.ar    1  UNL1        0.0013
     23 C         -23.4972  -10.5470  -13.7759 C.ar    1  UNL1        0.0201
     24 C         -22.2208  -11.9099  -16.8215 C.3     1  UNL1        0.0773
     25 C         -22.0036  -11.8969  -15.3419 C.2     1  UNL1        0.1735
     26 O         -20.8272  -12.0112  -14.9035 O.2     1  UNL1       -0.2913
     27 N         -22.5960   -6.9468  -10.5400 N.pl3   1  UNL1       -0.2917
     28 C         -22.1943   -5.7782  -11.2985 C.3     1  UNL1        0.0937
     29 C         -23.4853   -5.2123  -11.8606 C.3     1  UNL1        0.0391
     30 C         -24.4456   -6.4085  -11.9545 C.3     1  UNL1        0.0790
     31 C         -23.9581   -7.3555  -10.8460 C.3     1  UNL1        0.1081
     32 N         -25.8735   -6.0190  -11.7789 N.3     1  UNL1       -0.2723
     33 C         -26.7762   -7.1777  -11.5617 C.3     1  UNL1        0.0721
     34 C         -26.9897   -8.0146  -12.8345 C.3     1  UNL1        0.0174
     35 C         -27.4957   -7.1403  -13.9824 C.3     1  UNL1        0.0029
     36 C         -26.5849   -5.9296  -14.1884 C.3     1  UNL1        0.0174
     37 C         -26.4001   -5.1618  -12.8701 C.3     1  UNL1        0.0721
@<TRIPOS>BOND
     1    24    25    1
     2    25    26    2
     3    25    17    1
     4    17    18   ar
     5    18    19   ar
     6    19    20    1
     7    19    21   ar
     8    21    22   ar
     9    22    23   ar
    10    23    11    1
    11    11    12   ar
    12    12     1    1
    13     1     2   ar
    14     2     3   ar
    15     3     4    1
    16     3     5   ar
    17     5     6   ar
    18     6     7   ar
    19     7     8   ar
    20     8     9   ar
    21     9    27    1
    22    27    28    1
    23    28    29    1
    24    29    30    1
    25    30    32    1
    26    32    33    1
    27    33    34    1
    28    34    35    1
    29    35    36    1
    30    36    37    1
    31    30    31    1
    32     9    10   ar
    33    12    13   ar
    34    13    14   ar
    35    14    15   ar
    36    15    16    1
    37    23    17   ar
    38    15    11   ar
    39    10     1   ar
    40    10     5   ar
    41    31    27    1
    42    37    32    1
@<TRIPOS>MOLECULE
*****
 37 42 0 0 0
SMALL
GASTEIGER

@<TRIPOS>ATOM
      1 C         -21.0227   -9.4999  -11.8220 C.ar    1  UNL1        0.1095
      2 N         -20.2893  -10.6414  -11.8060 N.ar    1  UNL1       -0.1677
      3 N         -19.8115  -10.8193  -10.5823 N.ar    1  UNL1       -0.2319
      4 C         -18.9084  -11.8975  -10.2031 C.3     1  UNL1        0.1554
      5 C         -20.2097   -9.7922   -9.8194 C.ar    1  UNL1        0.1654
      6 N         -19.8753   -9.5669   -8.5265 N.ar    1  UNL1       -0.2050
      7 C         -20.3710   -8.4522   -7.9175 C.ar    1  UNL1        0.2014
      8 N         -21.2081   -7.6073   -8.5943 N.ar    1  UNL1       -0.2089
      9 C         -21.5553   -7.8244   -9.8986 C.ar    1  UNL1        0.1379
     10 C         -21.0008   -8.9433  -10.5389 C.ar    1  UNL1        0.0865
     11 C         -22.1884   -9.6209  -14.1148 C.ar    1  UNL1        0.0810
     12 C         -21.5784   -8.9387  -13.0707 C.ar    1  UNL1        0.0577
     13 C         -21.5119   -7.6263  -13.5055 C.ar    1  UNL1        0.1231
     14 N         -22.0741   -7.5247  -14.7257 N.ar    1  UNL1       -0.1676
     15 N         -22.4773   -8.7319  -15.0881 N.ar    1  UNL1       -0.2487
     16 C         -23.1162   -9.0140  -16.3690 C.3     1  UNL1        0.1537
     17 C         -23.5538  -11.7424  -13.8095 C.ar    1  UNL1        0.0358
     18 C         -23.7035  -13.1161  -14.0730 C.ar    1  UNL1       -0.0014
     19 C         -22.7051  -13.8355  -14.7437 C.ar    1  UNL1       -0.0218
     20 C         -22.8592  -15.3107  -14.9693 C.3     1  UNL1        0.0310
     21 C         -21.5352  -13.1807  -15.1429 C.ar    1  UNL1       -0.0042
     22 C         -21.3795  -11.8151  -14.9080 C.ar    1  UNL1        0.0013
     23 C         -22.3722  -11.0839  -14.2375 C.ar    1  UNL1        0.0201
     24 C         -24.6194  -10.8474  -11.6059 C.3     1  UNL1        0.0773
     25 C         -24.6485  -11.0486  -13.0875 C.2     1  UNL1        0.1735
     26 O         -25.6461  -10.6290  -13.7341 O.2     1  UNL1       -0.2913
     27 N         -22.5439   -6.9884  -10.5105 N.pl3   1  UNL1       -0.2917
     28 C         -22.1891   -5.8783  -11.3729 C.3     1  UNL1        0.0937
     29 C         -23.5106   -5.3603  -11.9098 C.3     1  UNL1        0.0391
     30 C         -24.4657   -6.5636  -11.8662 C.3     1  UNL1        0.0790
     31 C         -23.9166   -7.4236  -10.7163 C.3     1  UNL1        0.1081
     32 N         -25.8858   -6.1671  -11.6483 N.3     1  UNL1       -0.2723
     33 C         -26.8119   -7.3242  -11.5595 C.3     1  UNL1        0.0721
     34 C         -27.0398   -8.0117  -12.9166 C.3     1  UNL1        0.0174
     35 C         -27.5260   -7.0066  -13.9612 C.3     1  UNL1        0.0029
     36 C         -26.5908   -5.7992  -14.0332 C.3     1  UNL1        0.0174
     37 C         -26.3931   -5.1848  -12.6386 C.3     1  UNL1        0.0721
@<TRIPOS>BOND
     1    24    25    1
     2    25    26    2
     3    25    17    1
     4    17    18   ar
     5    18    19   ar
     6    19    20    1
     7    19    21   ar
     8    21    22   ar
     9    22    23   ar
    10    23    11    1
    11    11    12   ar
    12    12     1    1
    13     1     2   ar
    14     2     3   ar
    15     3     4    1
    16     3     5   ar
    17     5     6   ar
    18     6     7   ar
    19     7     8   ar
    20     8     9   ar
    21     9    27    1
    22    27    28    1
    23    28    29    1
    24    29    30    1
    25    30    32    1
    26    32    33    1
    27    33    34    1
    28    34    35    1
    29    35    36    1
    30    36    37    1
    31    30    31    1
    32     9    10   ar
    33    12    13   ar
    34    13    14   ar
    35    14    15   ar
    36    15    16    1
    37    23    17   ar
    38    15    11   ar
    39    10     1   ar
    40    10     5   ar
    41    31    27    1
    42    37    32    1
@<TRIPOS>MOLECULE
*****
 37 42 0 0 0
SMALL
GASTEIGER

@<TRIPOS>ATOM
      1 C         -19.6640   -9.5562  -10.5872 C.ar    1  UNL1        0.1095
      2 N         -18.6028   -9.9045   -9.8166 N.ar    1  UNL1       -0.1677
      3 N         -18.4119  -11.2117   -9.9268 N.ar    1  UNL1       -0.2319
      4 C         -17.4122  -11.9606   -9.1773 C.3     1  UNL1        0.1554
      5 C         -19.3536  -11.7096  -10.7398 C.ar    1  UNL1        0.1654
      6 N         -19.5453  -13.0130  -11.0535 N.ar    1  UNL1       -0.2050
      7 C         -20.5719  -13.3295  -11.8931 C.ar    1  UNL1        0.2014
      8 N         -21.3616  -12.3457  -12.4232 N.ar    1  UNL1       -0.2089
      9 C         -21.1774  -11.0262  -12.1166 C.ar    1  UNL1        0.1379
     10 C         -20.1540  -10.7086  -11.2103 C.ar    1  UNL1        0.0865
     11 C         -20.5896   -7.4248   -9.4777 C.ar    1  UNL1        0.0810
     12 C         -20.2292   -8.1911  -10.5779 C.ar    1  UNL1        0.0577
     13 C         -20.6143   -7.4330  -11.6701 C.ar    1  UNL1        0.1231
     14 N         -21.1479   -6.2700  -11.2483 N.ar    1  UNL1       -0.1676
     15 N         -21.1324   -6.2731   -9.9250 N.ar    1  UNL1       -0.2487
     16 C         -21.6549   -5.1792   -9.1134 C.3     1  UNL1        0.1537
     17 C         -21.6058   -8.5127   -7.4181 C.ar    1  UNL1        0.0358
     18 C         -21.4325   -8.9711   -6.0994 C.ar    1  UNL1       -0.0014
     19 C         -20.2296   -8.7565   -5.4129 C.ar    1  UNL1       -0.0218
     20 C         -20.0818   -9.2063   -3.9893 C.3     1  UNL1        0.0310
     21 C         -19.1918   -8.0620   -6.0432 C.ar    1  UNL1       -0.0042
     22 C         -19.3394   -7.6189   -7.3570 C.ar    1  UNL1        0.0013
     23 C         -20.5389   -7.8278   -8.0549 C.ar    1  UNL1        0.0201
     24 C         -23.2405  -10.0900   -8.6959 C.3     1  UNL1        0.0773
     25 C         -22.9095   -8.7688   -8.0785 C.2     1  UNL1        0.1735
     26 O         -23.7626   -7.8427   -8.1411 O.2     1  UNL1       -0.2913
     27 N         -21.9396  -10.0313  -12.8092 N.pl3   1  UNL1       -0.2917
     28 C         -21.9732   -9.9542  -14.2566 C.3     1  UNL1        0.0937
     29 C         -22.9904   -8.8720  -14.5685 C.3     1  UNL1        0.0391
     30 C         -23.9425   -8.8505  -13.3623 C.3     1  UNL1        0.0790
     31 C         -23.0685   -9.3463  -12.1988 C.3     1  UNL1        0.1081
     32 N         -24.5170   -7.4999  -13.1031 N.3     1  UNL1       -0.2723
     33 C         -24.6999   -7.2063  -11.6592 C.3     1  UNL1        0.0721
     34 C         -25.8575   -8.0006  -11.0307 C.3     1  UNL1        0.0174
     35 C         -27.1582   -7.7683  -11.8005 C.3     1  UNL1        0.0029
     36 C         -26.9649   -8.0403  -13.2926 C.3     1  UNL1        0.0174
     37 C         -25.7775   -7.2327  -13.8398 C.3     1  UNL1        0.0721
@<TRIPOS>BOND
     1    24    25    1
     2    25    26    2
     3    25    17    1
     4    17    18   ar
     5    18    19   ar
     6    19    20    1
     7    19    21   ar
     8    21    22   ar
     9    22    23   ar
    10    23    11    1
    11    11    12   ar
    12    12     1    1
    13     1     2   ar
    14     2     3   ar
    15     3     4    1
    16     3     5   ar
    17     5     6   ar
    18     6     7   ar
    19     7     8   ar
    20     8     9   ar
    21     9    27    1
    22    27    28    1
    23    28    29    1
    24    29    30    1
    25    30    32    1
    26    32    33    1
    27    33    34    1
    28    34    35    1
    29    35    36    1
    30    36    37    1
    31    30    31    1
    32     9    10   ar
    33    12    13   ar
    34    13    14   ar
    35    14    15   ar
    36    15    16    1
    37    23    17   ar
    38    15    11   ar
    39    10     1   ar
    40    10     5   ar
    41    31    27    1
    42    37    32    1
@<TRIPOS>MOLECULE
*****
 37 42 0 0 0
SMALL
GASTEIGER

@<TRIPOS>ATOM
      1 C         -24.8891   -9.2483  -11.1803 C.ar    1  UNL1        0.1095
      2 N         -25.5400   -8.9453  -10.0290 N.ar    1  UNL1       -0.1677
      3 N         -26.5828   -8.1810  -10.3220 N.ar    1  UNL1       -0.2319
      4 C         -27.4710   -7.5899   -9.3301 C.3     1  UNL1        0.1554
      5 C         -26.5940   -7.9700  -11.6452 C.ar    1  UNL1        0.1654
      6 N         -27.4577   -7.1853  -12.3324 N.ar    1  UNL1       -0.2050
      7 C         -27.3010   -7.0834  -13.6830 C.ar    1  UNL1        0.2014
      8 N         -26.3135   -7.7842  -14.3206 N.ar    1  UNL1       -0.2089
      9 C         -25.4367   -8.5814  -13.6391 C.ar    1  UNL1        0.1379
     10 C         -25.5670   -8.6421  -12.2431 C.ar    1  UNL1        0.0865
     11 C         -22.3245   -9.4396  -11.0508 C.ar    1  UNL1        0.0810
     12 C         -23.6000   -9.9702  -11.1892 C.ar    1  UNL1        0.0577
     13 C         -23.3910  -11.3149  -11.4424 C.ar    1  UNL1        0.1231
     14 N         -22.0697  -11.5780  -11.4284 N.ar    1  UNL1       -0.1676
     15 N         -21.4325  -10.4420  -11.1945 N.ar    1  UNL1       -0.2487
     16 C         -19.9789  -10.3351  -11.1309 C.3     1  UNL1        0.1537
     17 C         -21.5811   -7.4348   -9.6773 C.ar    1  UNL1        0.0358
     18 C         -21.1322   -6.1018   -9.6539 C.ar    1  UNL1       -0.0014
     19 C         -21.0625   -5.3427  -10.8300 C.ar    1  UNL1       -0.0218
     20 C         -20.6312   -3.9067  -10.7778 C.3     1  UNL1        0.0310
     21 C         -21.4607   -5.9146  -12.0429 C.ar    1  UNL1       -0.0042
     22 C         -21.8885   -7.2410  -12.0872 C.ar    1  UNL1        0.0013
     23 C         -21.9625   -8.0113  -10.9163 C.ar    1  UNL1        0.0201
     24 C         -20.3999   -8.6335   -7.6872 C.3     1  UNL1        0.0773
     25 C         -21.6362   -8.1736   -8.3919 C.2     1  UNL1        0.1735
     26 O         -22.7572   -8.4416   -7.8812 O.2     1  UNL1       -0.2913
     27 N         -24.5171   -9.3996  -14.3710 N.pl3   1  UNL1       -0.2917
     28 C         -23.1030   -9.0899  -14.4501 C.3     1  UNL1        0.0937
     29 C         -22.4845  -10.2642  -15.1858 C.3     1  UNL1        0.0391
     30 C         -23.4196  -11.4526  -14.9116 C.3     1  UNL1        0.0790
     31 C         -24.7899  -10.7936  -14.6846 C.3     1  UNL1        0.1081
     32 N         -23.4440  -12.4390  -16.0287 N.3     1  UNL1       -0.2723
     33 C         -24.5790  -13.3926  -15.9459 C.3     1  UNL1        0.0721
     34 C         -24.4097  -14.4254  -14.8186 C.3     1  UNL1        0.0174
     35 C         -23.0828  -15.1722  -14.9593 C.3     1  UNL1        0.0029
     36 C         -21.9150  -14.1922  -15.0756 C.3     1  UNL1        0.0174
     37 C         -22.1696  -13.1795  -16.2031 C.3     1  UNL1        0.0721
@<TRIPOS>BOND
     1    24    25    1
     2    25    26    2
     3    25    17    1
     4    17    18   ar
     5    18    19   ar
     6    19    20    1
     7    19    21   ar
     8    21    22   ar
     9    22    23   ar
    10    23    11    1
    11    11    12   ar
    12    12     1    1
    13     1     2   ar
    14     2     3   ar
    15     3     4    1
    16     3     5   ar
    17     5     6   ar
    18     6     7   ar
    19     7     8   ar
    20     8     9   ar
    21     9    27    1
    22    27    28    1
    23    28    29    1
    24    29    30    1
    25    30    32    1
    26    32    33    1
    27    33    34    1
    28    34    35    1
    29    35    36    1
    30    36    37    1
    31    30    31    1
    32     9    10   ar
    33    12    13   ar
    34    13    14   ar
    35    14    15   ar
    36    15    16    1
    37    23    17   ar
    38    15    11   ar
    39    10     1   ar
    40    10     5   ar
    41    31    27    1
    42    37    32    1
@<TRIPOS>MOLECULE
*****
 37 42 0 0 0
SMALL
GASTEIGER

@<TRIPOS>ATOM
      1 C         -22.0545  -11.7843  -11.6227 C.ar    1  UNL1        0.1095
      2 N         -21.0111  -12.6416  -11.7548 N.ar    1  UNL1       -0.1677
      3 N         -20.0097  -12.2072  -11.0024 N.ar    1  UNL1       -0.2319
      4 C         -18.6921  -12.8263  -10.9535 C.3     1  UNL1        0.1554
      5 C         -20.3904  -11.0679  -10.4086 C.ar    1  UNL1        0.1654
      6 N         -19.6310  -10.2763   -9.6142 N.ar    1  UNL1       -0.2050
      7 C         -20.1932   -9.1414   -9.1092 C.ar    1  UNL1        0.2014
      8 N         -21.4996   -8.8363   -9.3787 N.ar    1  UNL1       -0.2089
      9 C         -22.2775   -9.6278  -10.1770 C.ar    1  UNL1        0.1379
     10 C         -21.6805  -10.7668  -10.7387 C.ar    1  UNL1        0.0865
     11 C         -23.5080  -11.3988  -13.7130 C.ar    1  UNL1        0.0810
     12 C         -23.2796  -11.9036  -12.4399 C.ar    1  UNL1        0.0577
     13 C         -24.4919  -12.4548  -12.0625 C.ar    1  UNL1        0.1231
     14 N         -25.3843  -12.3128  -13.0619 N.ar    1  UNL1       -0.1676
     15 N         -24.7849  -11.6726  -14.0529 N.ar    1  UNL1       -0.2487
     16 C         -25.4530  -11.3191  -15.3007 C.3     1  UNL1        0.1537
     17 C         -21.9004  -11.0840  -15.6559 C.ar    1  UNL1        0.0358
     18 C         -21.1386  -10.2049  -16.4470 C.ar    1  UNL1       -0.0014
     19 C         -21.0469   -8.8430  -16.1290 C.ar    1  UNL1       -0.0218
     20 C         -20.1876   -7.9309  -16.9539 C.3     1  UNL1        0.0310
     21 C         -21.7101   -8.3540  -14.9986 C.ar    1  UNL1       -0.0042
     22 C         -22.4861   -9.2075  -14.2154 C.ar    1  UNL1        0.0013
     23 C         -22.5858  -10.5731  -14.5236 C.ar    1  UNL1        0.0201
     24 C         -21.3085  -13.5846  -15.2204 C.3     1  UNL1        0.0773
     25 C         -21.9441  -12.5140  -16.0489 C.2     1  UNL1        0.1735
     26 O         -22.5174  -12.8421  -17.1226 O.2     1  UNL1       -0.2913
     27 N         -23.6733   -9.3362  -10.3083 N.pl3   1  UNL1       -0.2917
     28 C         -24.5867   -9.4130   -9.1849 C.3     1  UNL1        0.0937
     29 C         -25.9103   -8.8979   -9.7192 C.3     1  UNL1        0.0391
     30 C         -25.5420   -7.9601  -10.8798 C.3     1  UNL1        0.0790
     31 C         -24.2026   -8.5178  -11.3882 C.3     1  UNL1        0.1081
     32 N         -26.5819   -7.9244  -11.9468 N.3     1  UNL1       -0.2723
     33 C         -26.0237   -8.0580  -13.3161 C.3     1  UNL1        0.0721
     34 C         -25.2703   -6.7993  -13.7789 C.3     1  UNL1        0.0174
     35 C         -26.1627   -5.5619  -13.6751 C.3     1  UNL1        0.0029
     36 C         -26.7635   -5.4385  -12.2747 C.3     1  UNL1        0.0174
     37 C         -27.4747   -6.7409  -11.8751 C.3     1  UNL1        0.0721
@<TRIPOS>BOND
     1    24    25    1
     2    25    26    2
     3    25    17    1
     4    17    18   ar
     5    18    19   ar
     6    19    20    1
     7    19    21   ar
     8    21    22   ar
     9    22    23   ar
    10    23    11    1
    11    11    12   ar
    12    12     1    1
    13     1     2   ar
    14     2     3   ar
    15     3     4    1
    16     3     5   ar
    17     5     6   ar
    18     6     7   ar
    19     7     8   ar
    20     8     9   ar
    21     9    27    1
    22    27    28    1
    23    28    29    1
    24    29    30    1
    25    30    32    1
    26    32    33    1
    27    33    34    1
    28    34    35    1
    29    35    36    1
    30    36    37    1
    31    30    31    1
    32     9    10   ar
    33    12    13   ar
    34    13    14   ar
    35    14    15   ar
    36    15    16    1
    37    23    17   ar
    38    15    11   ar
    39    10     1   ar
    40    10     5   ar
    41    31    27    1
    42    37    32    1
@<TRIPOS>MOLECULE
*****
 37 42 0 0 0
SMALL
GASTEIGER

@<TRIPOS>ATOM
      1 C         -23.0021   -7.9047  -14.1669 C.ar    1  UNL1        0.1095
      2 N         -22.7145   -7.5992  -15.4573 N.ar    1  UNL1       -0.1677
      3 N         -23.7591   -6.9783  -15.9872 N.ar    1  UNL1       -0.2319
      4 C         -23.8500   -6.5712  -17.3829 C.3     1  UNL1        0.1554
      5 C         -24.7225   -6.9040  -15.0589 C.ar    1  UNL1        0.1654
      6 N         -25.9701   -6.4040  -15.2254 N.ar    1  UNL1       -0.2050
      7 C         -26.8210   -6.4270  -14.1602 C.ar    1  UNL1        0.2014
      8 N         -26.4050   -6.9158  -12.9517 N.ar    1  UNL1       -0.2089
      9 C         -25.1478   -7.4212  -12.7696 C.ar    1  UNL1        0.1379
     10 C         -24.2922   -7.4454  -13.8817 C.ar    1  UNL1        0.0865
     11 C         -22.2061  -10.0809  -13.0439 C.ar    1  UNL1        0.0810
     12 C         -22.1013   -8.7270  -13.3331 C.ar    1  UNL1        0.0577
     13 C         -21.0226   -8.2941  -12.5814 C.ar    1  UNL1        0.1231
     14 N         -20.4964   -9.3334  -11.9045 N.ar    1  UNL1       -0.1676
     15 N         -21.2169  -10.4071  -12.1859 N.ar    1  UNL1       -0.2487
     16 C         -20.9545  -11.7229  -11.6129 C.3     1  UNL1        0.1537
     17 C         -23.3681  -11.5265  -14.7812 C.ar    1  UNL1        0.0358
     18 C         -24.3496  -12.4920  -15.0703 C.ar    1  UNL1       -0.0014
     19 C         -25.2403  -12.9340  -14.0827 C.ar    1  UNL1       -0.0218
     20 C         -26.3139  -13.9253  -14.4226 C.3     1  UNL1        0.0310
     21 C         -25.1623  -12.3950  -12.7942 C.ar    1  UNL1       -0.0042
     22 C         -24.1823  -11.4524  -12.4853 C.ar    1  UNL1        0.0013
     23 C         -23.2845  -11.0020  -13.4656 C.ar    1  UNL1        0.0201
     24 C         -22.9892  -10.5827  -17.1808 C.3     1  UNL1        0.0773
     25 C         -22.4658  -11.1005  -15.8791 C.2     1  UNL1        0.1735
     26 O         -21.2181  -11.1922  -15.7239 O.2     1  UNL1       -0.2913
     27 N         -24.7219   -7.7863  -11.4521 N.pl3   1  UNL1       -0.2917
     28 C         -25.1475   -9.0183  -10.8173 C.3     1  UNL1        0.0937
     29 C         -24.3684   -9.0790   -9.5164 C.3     1  UNL1        0.0391
     30 C         -23.0927   -8.2601   -9.7689 C.3     1  UNL1        0.0790
     31 C         -23.5178   -7.2443  -10.8418 C.3     1  UNL1        0.1081
     32 N         -22.5763   -7.5993   -8.5368 N.3     1  UNL1       -0.2723
     33 C         -21.7070   -6.4290   -8.8180 C.3     1  UNL1        0.0721
     34 C         -20.3315   -6.8283   -9.3790 C.3     1  UNL1        0.0174
     35 C         -19.6284   -7.8146   -8.4457 C.3     1  UNL1        0.0029
     36 C         -20.5329   -9.0061   -8.1297 C.3     1  UNL1        0.0174
     37 C         -21.8934   -8.5264   -7.6002 C.3     1  UNL1        0.0721
@<TRIPOS>BOND
     1    24    25    1
     2    25    26    2
     3    25    17    1
     4    17    18   ar
     5    18    19   ar
     6    19    20    1
     7    19    21   ar
     8    21    22   ar
     9    22    23   ar
    10    23    11    1
    11    11    12   ar
    12    12     1    1
    13     1     2   ar
    14     2     3   ar
    15     3     4    1
    16     3     5   ar
    17     5     6   ar
    18     6     7   ar
    19     7     8   ar
    20     8     9   ar
    21     9    27    1
    22    27    28    1
    23    28    29    1
    24    29    30    1
    25    30    32    1
    26    32    33    1
    27    33    34    1
    28    34    35    1
    29    35    36    1
    30    36    37    1
    31    30    31    1
    32     9    10   ar
    33    12    13   ar
    34    13    14   ar
    35    14    15   ar
    36    15    16    1
    37    23    17   ar
    38    15    11   ar
    39    10     1   ar
    40    10     5   ar
    41    31    27    1
    42    37    32    1
@<TRIPOS>MOLECULE
*****
 37 42 0 0 0
SMALL
GASTEIGER

@<TRIPOS>ATOM
      1 C         -21.5854   -9.5429  -12.3069 C.ar    1  UNL1        0.1095
      2 N         -22.2467   -9.9490  -13.4200 N.ar    1  UNL1       -0.1677
      3 N         -22.0063  -11.2393  -13.6068 N.ar    1  UNL1       -0.2319
      4 C         -22.4817  -12.0048  -14.7513 C.3     1  UNL1        0.1554
      5 C         -21.1787  -11.6595  -12.6404 C.ar    1  UNL1        0.1654
      6 N         -20.6408  -12.8963  -12.5166 N.ar    1  UNL1       -0.2050
      7 C         -19.8035  -13.1326  -11.4668 C.ar    1  UNL1        0.2014
      8 N         -19.5452  -12.1488  -10.5515 N.ar    1  UNL1       -0.2089
      9 C         -20.0835  -10.8971  -10.6635 C.ar    1  UNL1        0.1379
     10 C         -20.9021  -10.6410  -11.7743 C.ar    1  UNL1        0.0865
     11 C         -22.5847   -7.2313  -11.7699 C.ar    1  UNL1        0.0810
     12 C         -21.5293   -8.1241  -11.8983 C.ar    1  UNL1        0.0577
     13 C         -20.3988   -7.3619  -11.6596 C.ar    1  UNL1        0.1231
     14 N         -20.7588   -6.0945  -11.3776 N.ar    1  UNL1       -0.1676
     15 N         -22.0783   -6.0224  -11.4487 N.ar    1  UNL1       -0.2487
     16 C         -22.8282   -4.7912  -11.2250 C.3     1  UNL1        0.1537
     17 C         -24.8921   -8.0817  -11.1288 C.ar    1  UNL1        0.0358
     18 C         -26.2602   -8.1787  -11.4418 C.ar    1  UNL1       -0.0014
     19 C         -26.7568   -7.7029  -12.6630 C.ar    1  UNL1       -0.0218
     20 C         -28.2097   -7.8624  -13.0013 C.3     1  UNL1        0.0310
     21 C         -25.8758   -7.1376  -13.5910 C.ar    1  UNL1       -0.0042
     22 C         -24.5202   -7.0150  -13.2882 C.ar    1  UNL1        0.0013
     23 C         -24.0110   -7.4875  -12.0687 C.ar    1  UNL1        0.0201
     24 C         -24.4623  -10.0768   -9.5079 C.3     1  UNL1        0.0773
     25 C         -24.4377   -8.6147   -9.8209 C.2     1  UNL1        0.1735
     26 O         -24.0341   -7.8144   -8.9344 O.2     1  UNL1       -0.2913
     27 N         -19.8933   -9.9536   -9.6033 N.pl3   1  UNL1       -0.2917
     28 C         -20.9322   -9.0260   -9.2002 C.3     1  UNL1        0.0937
     29 C         -20.3761   -8.3213   -7.9766 C.3     1  UNL1        0.0391
     30 C         -19.3705   -9.3079   -7.3624 C.3     1  UNL1        0.0790
     31 C         -18.8902  -10.1356   -8.5655 C.3     1  UNL1        0.1081
     32 N         -18.2468   -8.6259   -6.6598 N.3     1  UNL1       -0.2723
     33 C         -17.3489   -9.5634   -5.9392 C.3     1  UNL1        0.0721
     34 C         -17.9958  -10.1573   -4.6764 C.3     1  UNL1        0.0174
     35 C         -18.4852   -9.0495   -3.7429 C.3     1  UNL1        0.0029
     36 C         -19.3856   -8.0651   -4.4899 C.3     1  UNL1        0.0174
     37 C         -18.6811   -7.5371   -5.7494 C.3     1  UNL1        0.0721
@<TRIPOS>BOND
     1    24    25    1
     2    25    26    2
     3    25    17    1
     4    17    18   ar
     5    18    19   ar
     6    19    20    1
     7    19    21   ar
     8    21    22   ar
     9    22    23   ar
    10    23    11    1
    11    11    12   ar
    12    12     1    1
    13     1     2   ar
    14     2     3   ar
    15     3     4    1
    16     3     5   ar
    17     5     6   ar
    18     6     7   ar
    19     7     8   ar
    20     8     9   ar
    21     9    27    1
    22    27    28    1
    23    28    29    1
    24    29    30    1
    25    30    32    1
    26    32    33    1
    27    33    34    1
    28    34    35    1
    29    35    36    1
    30    36    37    1
    31    30    31    1
    32     9    10   ar
    33    12    13   ar
    34    13    14   ar
    35    14    15   ar
    36    15    16    1
    37    23    17   ar
    38    15    11   ar
    39    10     1   ar
    40    10     5   ar
    41    31    27    1
    42    37    32    1
@<TRIPOS>MOLECULE
*****
 37 42 0 0 0
SMALL
GASTEIGER

@<TRIPOS>ATOM
      1 C         -24.8739   -8.0827  -13.9243 C.ar    1  UNL1        0.1095
      2 N         -25.8722   -7.3933  -13.3167 N.ar    1  UNL1       -0.1677
      3 N         -26.2199   -6.3788  -14.0961 N.ar    1  UNL1       -0.2319
      4 C         -27.2050   -5.3679  -13.7359 C.3     1  UNL1        0.1554
      5 C         -25.4394   -6.3953  -15.1851 C.ar    1  UNL1        0.1654
      6 N         -25.4323   -5.4870  -16.1896 N.ar    1  UNL1       -0.2050
      7 C         -24.5505   -5.6660  -17.2140 C.ar    1  UNL1        0.2014
      8 N         -23.7213   -6.7545  -17.2321 N.ar    1  UNL1       -0.2089
      9 C         -23.7200   -7.6798  -16.2257 C.ar    1  UNL1        0.1379
     10 C         -24.5909   -7.4642  -15.1466 C.ar    1  UNL1        0.0865
     11 C         -23.1745   -9.1059  -12.2824 C.ar    1  UNL1        0.0810
     12 C         -24.1618   -9.1907  -13.2549 C.ar    1  UNL1        0.0577
     13 C         -24.2582  -10.5429  -13.5346 C.ar    1  UNL1        0.1231
     14 N         -23.3990  -11.2286  -12.7554 N.ar    1  UNL1       -0.1676
     15 N         -22.7469  -10.3553  -12.0049 N.ar    1  UNL1       -0.2487
     16 C         -21.7125  -10.7335  -11.0481 C.3     1  UNL1        0.1537
     17 C         -22.7200   -7.4908  -10.3737 C.ar    1  UNL1        0.0358
     18 C         -22.0122   -6.3726   -9.8966 C.ar    1  UNL1       -0.0014
     19 C         -21.1705   -5.6366  -10.7416 C.ar    1  UNL1       -0.0218
     20 C         -20.4647   -4.4162  -10.2286 C.3     1  UNL1        0.0310
     21 C         -21.0451   -6.0104  -12.0838 C.ar    1  UNL1       -0.0042
     22 C         -21.7234   -7.1283  -12.5680 C.ar    1  UNL1        0.0013
     23 C         -22.5689   -7.8733  -11.7316 C.ar    1  UNL1        0.0201
     24 C         -23.0659   -8.8613   -8.1840 C.3     1  UNL1        0.0773
     25 C         -23.5988   -8.2160   -9.4235 C.2     1  UNL1        0.1735
     26 O         -24.8312   -8.3108   -9.6713 O.2     1  UNL1       -0.2913
     27 N         -22.9353   -8.8693  -16.3666 N.pl3   1  UNL1       -0.2917
     28 C         -21.5563   -8.9408  -15.9245 C.3     1  UNL1        0.0937
     29 C         -21.1542  -10.3902  -16.1261 C.3     1  UNL1        0.0391
     30 C         -22.4640  -11.1898  -16.0430 C.3     1  UNL1        0.0790
     31 C         -23.5332  -10.1879  -16.5081 C.3     1  UNL1        0.1081
     32 N         -22.4424  -12.4234  -16.8791 N.3     1  UNL1       -0.2723
     33 C         -23.7954  -12.9664  -17.1603 C.3     1  UNL1        0.0721
     34 C         -24.4461  -13.6155  -15.9268 C.3     1  UNL1        0.0174
     35 C         -23.5390  -14.6968  -15.3384 C.3     1  UNL1        0.0029
     36 C         -22.1360  -14.1486  -15.0763 C.3     1  UNL1        0.0174
     37 C         -21.5655  -13.4951  -16.3448 C.3     1  UNL1        0.0721
@<TRIPOS>BOND
     1    24    25    1
     2    25    26    2
     3    25    17    1
     4    17    18   ar
     5    18    19   ar
     6    19    20    1
     7    19    21   ar
     8    21    22   ar
     9    22    23   ar
    10    23    11    1
    11    11    12   ar
    12    12     1    1
    13     1     2   ar
    14     2     3   ar
    15     3     4    1
    16     3     5   ar
    17     5     6   ar
    18     6     7   ar
    19     7     8   ar
    20     8     9   ar
    21     9    27    1
    22    27    28    1
    23    28    29    1
    24    29    30    1
    25    30    32    1
    26    32    33    1
    27    33    34    1
    28    34    35    1
    29    35    36    1
    30    36    37    1
    31    30    31    1
    32     9    10   ar
    33    12    13   ar
    34    13    14   ar
    35    14    15   ar
    36    15    16    1
    37    23    17   ar
    38    15    11   ar
    39    10     1   ar
    40    10     5   ar
    41    31    27    1
    42    37    32    1
@<TRIPOS>MOLECULE
*****
 37 42 0 0 0
SMALL
GASTEIGER

@<TRIPOS>ATOM
      1 C         -22.8526   -8.7916  -10.3850 C.ar    1  UNL1        0.1095
      2 N         -21.8591   -9.2036   -9.5577 N.ar    1  UNL1       -0.1677
      3 N         -21.1317   -8.1499   -9.2138 N.ar    1  UNL1       -0.2319
      4 C         -19.9260   -8.2163   -8.3991 C.3     1  UNL1        0.1554
      5 C         -21.6325   -7.0709   -9.8305 C.ar    1  UNL1        0.1654
      6 N         -21.1325   -5.8128   -9.7938 N.ar    1  UNL1       -0.2050
      7 C         -21.7770   -4.8423  -10.5022 C.ar    1  UNL1        0.2014
      8 N         -22.9153   -5.1362  -11.2025 N.ar    1  UNL1       -0.2089
      9 C         -23.4317   -6.4012  -11.2459 C.ar    1  UNL1        0.1379
     10 C         -22.7362   -7.4087  -10.5597 C.ar    1  UNL1        0.0865
     11 C         -23.7338  -10.1427  -12.3921 C.ar    1  UNL1        0.0810
     12 C         -23.7576   -9.7426  -11.0628 C.ar    1  UNL1        0.0577
     13 C         -24.8831  -10.3529  -10.5368 C.ar    1  UNL1        0.1231
     14 N         -25.4812  -11.0963  -11.4880 N.ar    1  UNL1       -0.1676
     15 N         -24.7843  -10.9626  -12.6050 N.ar    1  UNL1       -0.2487
     16 C         -25.1487  -11.6092  -13.8610 C.3     1  UNL1        0.1537
     17 C         -21.7761  -10.4612  -13.9809 C.ar    1  UNL1        0.0358
     18 C         -21.0310   -9.9781  -15.0720 C.ar    1  UNL1       -0.0014
     19 C         -21.3048   -8.7241  -15.6346 C.ar    1  UNL1       -0.0218
     20 C         -20.4656   -8.2031  -16.7638 C.3     1  UNL1        0.0310
     21 C         -22.3241   -7.9341  -15.0923 C.ar    1  UNL1       -0.0042
     22 C         -23.0858   -8.4064  -14.0242 C.ar    1  UNL1        0.0013
     23 C         -22.8213   -9.6605  -13.4524 C.ar    1  UNL1        0.0201
     24 C         -21.4828  -13.0354  -14.2642 C.3     1  UNL1        0.0773
     25 C         -21.4236  -11.7939  -13.4325 C.2     1  UNL1        0.1735
     26 O         -21.0802  -11.8931  -12.2235 O.2     1  UNL1       -0.2913
     27 N         -24.6993   -6.6210  -11.8749 N.pl3   1  UNL1       -0.2917
     28 C         -25.8761   -7.0117  -11.1235 C.3     1  UNL1        0.0937
     29 C         -27.0089   -6.9981  -12.1333 C.3     1  UNL1        0.0391
     30 C         -26.5771   -5.9941  -13.2138 C.3     1  UNL1        0.0790
     31 C         -25.0413   -6.0451  -13.1662 C.3     1  UNL1        0.1081
     32 N         -27.1131   -6.3306  -14.5632 N.3     1  UNL1       -0.2723
     33 C         -26.4421   -5.5923  -15.6628 C.3     1  UNL1        0.0721
     34 C         -26.8239   -4.1027  -15.7013 C.3     1  UNL1        0.0174
     35 C         -28.3413   -3.9314  -15.7796 C.3     1  UNL1        0.0029
     36 C         -29.0369   -4.7156  -14.6667 C.3     1  UNL1        0.0174
     37 C         -28.5857   -6.1846  -14.6772 C.3     1  UNL1        0.0721
@<TRIPOS>BOND
     1    24    25    1
     2    25    26    2
     3    25    17    1
     4    17    18   ar
     5    18    19   ar
     6    19    20    1
     7    19    21   ar
     8    21    22   ar
     9    22    23   ar
    10    23    11    1
    11    11    12   ar
    12    12     1    1
    13     1     2   ar
    14     2     3   ar
    15     3     4    1
    16     3     5   ar
    17     5     6   ar
    18     6     7   ar
    19     7     8   ar
    20     8     9   ar
    21     9    27    1
    22    27    28    1
    23    28    29    1
    24    29    30    1
    25    30    32    1
    26    32    33    1
    27    33    34    1
    28    34    35    1
    29    35    36    1
    30    36    37    1
    31    30    31    1
    32     9    10   ar
    33    12    13   ar
    34    13    14   ar
    35    14    15   ar
    36    15    16    1
    37    23    17   ar
    38    15    11   ar
    39    10     1   ar
    40    10     5   ar
    41    31    27    1
    42    37    32    1
