@<TRIPOS>MOLECULE
*****
 40 44 0 0 0
SMALL
GASTEIGER

@<TRIPOS>ATOM
      1 C          48.2179   13.0668  -24.6095 C.2     1  UNL1        0.2506
      2 O          48.8590   12.0395  -24.2596 O.2     1  UNL1       -0.2699
      3 N          46.7915   12.9920  -24.8170 N.am    1  UNL1       -0.2680
      4 C          45.9471   14.1919  -24.7833 C.3     1  UNL1        0.1412
      5 C          45.7277   14.7473  -26.1908 C.3     1  UNL1        0.2268
      6 O          45.0627   13.8079  -27.0353 O.3     1  UNL1       -0.4739
      7 C          45.7181   12.7134  -27.6113 C.ar    1  UNL1        0.1360
      8 C          45.7695   12.6243  -29.0045 C.ar    1  UNL1        0.0348
      9 C          46.4754   11.5886  -29.6366 C.ar    1  UNL1        0.0103
     10 C          47.1301   10.6168  -28.8436 C.ar    1  UNL1       -0.0016
     11 C          47.0209   10.6729  -27.4465 C.ar    1  UNL1        0.0002
     12 C          46.3182   11.7133  -26.8226 C.ar    1  UNL1        0.0317
     13 C          46.2023   11.7509  -25.3235 C.3     1  UNL1        0.1236
     14 C          47.9321    9.5331  -29.4442 C.ar    1  UNL1        0.0013
     15 C          49.1744    9.1615  -28.8671 C.ar    1  UNL1        0.0016
     16 C          49.9417    8.1230  -29.4270 C.ar    1  UNL1        0.0206
     17 C          49.4348    7.4776  -30.5513 C.ar    1  UNL1        0.0985
     18 N          49.9919    6.4671  -31.2425 N.ar    1  UNL1       -0.2241
     19 C          49.0789    6.2311  -32.2216 C.ar    1  UNL1        0.1750
     20 N          47.9971    7.0446  -32.1601 N.ar    1  UNL1       -0.3349
     21 C          48.2382    7.8247  -31.1003 C.ar    1  UNL1        0.0757
     22 C          47.4476    8.8448  -30.5781 C.ar    1  UNL1        0.0185
     23 H          47.1682    7.0569  -32.7949 H       1  UNL1        0.1675
     24 C          49.4362   15.0996  -23.7659 C.ar    1  UNL1        0.0503
     25 C          50.1762   16.2649  -24.0491 C.ar    1  UNL1        0.0328
     26 C          50.4340   16.6471  -25.3716 C.ar    1  UNL1        0.1069
     27 C          49.9378   15.8751  -26.4266 C.ar    1  UNL1        0.0186
     28 C          49.2066   14.7171  -26.1644 C.ar    1  UNL1        0.0071
     29 C          48.9628   14.3153  -24.8443 C.ar    1  UNL1        0.0667
     30 S          51.3427   18.1192  -25.6985 S.O2    1  UNL1        0.0105
     31 C          52.4529   18.4384  -24.3470 C.3     1  UNL1        0.1816
     32 O          52.1279   17.9567  -26.9698 O.2     1  UNL1       -0.1686
     33 O          50.4014   19.2803  -25.8580 O.2     1  UNL1       -0.1686
     34 N          49.1444   14.7149  -22.4039 N.pl3   1  UNL1       -0.3325
     35 H          48.1501   14.6597  -22.0916 H       1  UNL1        0.1468
     36 C          51.1556   13.3987  -21.9219 C.3     1  UNL1        0.0229
     37 C          50.1556   14.4177  -21.3903 C.3     1  UNL1        0.0871
     38 C          46.5016   11.5347  -31.1497 C.3     1  UNL1        0.1688
     39 O          45.3228   12.0918  -31.6993 O.3     1  UNL1       -0.3463
     40 C          45.6494   13.0924  -32.6390 C.3     1  UNL1        0.1746
@<TRIPOS>BOND
     1    36    37    1
     2    37    34    1
     3    34    24    1
     4    24    25   ar
     5    25    26   ar
     6    26    30    1
     7    30    31    1
     8    30    32    2
     9    30    33    2
    10    26    27   ar
    11    27    28   ar
    12    28    29   ar
    13    29     1    1
    14     1     2    2
    15     1     3   am
    16     3     4    1
    17     4     5    1
    18     5     6    1
    19     6     7    1
    20     7     8   ar
    21     8     9   ar
    22     9    38    1
    23    38    39    1
    24    39    40    1
    25     9    10   ar
    26    10    14    1
    27    14    15   ar
    28    15    16   ar
    29    16    17   ar
    30    17    18   ar
    31    18    19   ar
    32    19    20   ar
    33    20    21   ar
    34    21    22   ar
    35    10    11   ar
    36    11    12   ar
    37    12    13    1
    38    29    24   ar
    39    13     3    1
    40    12     7   ar
    41    22    14   ar
    42    21    17   ar
    43    34    35    1
    44    20    23    1
@<TRIPOS>MOLECULE
*****
 40 44 0 0 0
SMALL
GASTEIGER

@<TRIPOS>ATOM
      1 C          49.7190   10.9679  -20.9601 C.2     1  UNL1        0.2506
      2 O          50.8790   11.0601  -21.4445 O.2     1  UNL1       -0.2699
      3 N          48.6407   10.4430  -21.7633 N.am    1  UNL1       -0.2680
      4 C          47.4196    9.9055  -21.1519 C.3     1  UNL1        0.1412
      5 C          46.3263   10.9720  -21.0824 C.3     1  UNL1        0.2268
      6 O          45.9572   11.4402  -22.3795 O.3     1  UNL1       -0.4739
      7 C          46.7392   12.3446  -23.1073 C.ar    1  UNL1        0.1360
      8 C          46.1855   13.5809  -23.4487 C.ar    1  UNL1        0.0348
      9 C          46.9471   14.5547  -24.1137 C.ar    1  UNL1        0.0103
     10 C          48.2904   14.2665  -24.4518 C.ar    1  UNL1       -0.0016
     11 C          48.8218   13.0006  -24.1656 C.ar    1  UNL1        0.0002
     12 C          48.0563   12.0351  -23.4969 C.ar    1  UNL1        0.0317
     13 C          48.6393   10.6790  -23.2085 C.3     1  UNL1        0.1236
     14 C          49.1606   15.2645  -25.1040 C.ar    1  UNL1        0.0013
     15 C          49.1425   15.4123  -26.5155 C.ar    1  UNL1        0.0016
     16 C          49.9617   16.3677  -27.1456 C.ar    1  UNL1        0.0206
     17 C          50.7743   17.1575  -26.3374 C.ar    1  UNL1        0.0985
     18 N          51.6270   18.1246  -26.7207 N.ar    1  UNL1       -0.2241
     19 C          52.1430   18.5580  -25.5401 C.ar    1  UNL1        0.1750
     20 N          51.6477   17.9053  -24.4610 N.ar    1  UNL1       -0.3349
     21 C          50.7854   17.0252  -24.9823 C.ar    1  UNL1        0.0757
     22 C          49.9910   16.0941  -24.3189 C.ar    1  UNL1        0.0185
     23 H          51.8859   18.0570  -23.4558 H       1  UNL1        0.1675
     24 C          48.9472   12.7336  -19.3432 C.ar    1  UNL1        0.0503
     25 C          48.7127   13.1276  -18.0106 C.ar    1  UNL1        0.0328
     26 C          49.0158   12.2705  -16.9453 C.ar    1  UNL1        0.1069
     27 C          49.5742   11.0146  -17.2021 C.ar    1  UNL1        0.0186
     28 C          49.8096   10.6072  -18.5147 C.ar    1  UNL1        0.0071
     29 C          49.4890   11.4496  -19.5876 C.ar    1  UNL1        0.0667
     30 S          48.7333   12.7955  -15.2887 S.O2    1  UNL1        0.0105
     31 C          50.2897   13.1759  -14.5180 C.3     1  UNL1        0.1816
     32 O          47.8572   14.0168  -15.2878 O.2     1  UNL1       -0.1686
     33 O          48.0442   11.7068  -14.5143 O.2     1  UNL1       -0.1686
     34 N          48.6614   13.6241  -20.4447 N.pl3   1  UNL1       -0.3325
     35 H          47.8491   13.4201  -21.0676 H       1  UNL1        0.1468
     36 C          50.8719   14.3947  -21.1723 C.3     1  UNL1        0.0229
     37 C          49.4557   14.8032  -20.7869 C.3     1  UNL1        0.0871
     38 C          46.3020   15.8795  -24.4626 C.3     1  UNL1        0.1688
     39 O          46.4052   16.7944  -23.3882 O.3     1  UNL1       -0.3463
     40 C          46.7219   18.0811  -23.8732 C.3     1  UNL1        0.1746
@<TRIPOS>BOND
     1    36    37    1
     2    37    34    1
     3    34    24    1
     4    24    25   ar
     5    25    26   ar
     6    26    30    1
     7    30    31    1
     8    30    32    2
     9    30    33    2
    10    26    27   ar
    11    27    28   ar
    12    28    29   ar
    13    29     1    1
    14     1     2    2
    15     1     3   am
    16     3     4    1
    17     4     5    1
    18     5     6    1
    19     6     7    1
    20     7     8   ar
    21     8     9   ar
    22     9    38    1
    23    38    39    1
    24    39    40    1
    25     9    10   ar
    26    10    14    1
    27    14    15   ar
    28    15    16   ar
    29    16    17   ar
    30    17    18   ar
    31    18    19   ar
    32    19    20   ar
    33    20    21   ar
    34    21    22   ar
    35    10    11   ar
    36    11    12   ar
    37    12    13    1
    38    29    24   ar
    39    13     3    1
    40    12     7   ar
    41    22    14   ar
    42    21    17   ar
    43    34    35    1
    44    20    23    1
@<TRIPOS>MOLECULE
*****
 40 44 0 0 0
SMALL
GASTEIGER

@<TRIPOS>ATOM
      1 C          48.2391   13.0016  -24.5813 C.2     1  UNL1        0.2506
      2 O          48.8696   11.9663  -24.2359 O.2     1  UNL1       -0.2699
      3 N          46.8121   12.9422  -24.7897 N.am    1  UNL1       -0.2680
      4 C          45.9798   14.1504  -24.7508 C.3     1  UNL1        0.1412
      5 C          45.7667   14.7145  -26.1557 C.3     1  UNL1        0.2268
      6 O          45.0927   13.7858  -27.0049 O.3     1  UNL1       -0.4739
      7 C          45.7372   12.6874  -27.5857 C.ar    1  UNL1        0.1360
      8 C          45.7884   12.6044  -28.9793 C.ar    1  UNL1        0.0348
      9 C          46.4841   11.5645  -29.6160 C.ar    1  UNL1        0.0103
     10 C          47.1286   10.5825  -28.8272 C.ar    1  UNL1       -0.0016
     11 C          47.0193   10.6332  -27.4299 C.ar    1  UNL1        0.0002
     12 C          46.3268   11.6776  -26.8014 C.ar    1  UNL1        0.0317
     13 C          46.2106   11.7094  -25.3022 C.3     1  UNL1        0.1236
     14 C          47.9199    9.4935  -29.4325 C.ar    1  UNL1        0.0013
     15 C          49.1549    9.1023  -28.8527 C.ar    1  UNL1        0.0016
     16 C          49.9119    8.0587  -29.4172 C.ar    1  UNL1        0.0206
     17 C          49.4021    7.4281  -30.5486 C.ar    1  UNL1        0.0985
     18 N          49.9499    6.4161  -31.2451 N.ar    1  UNL1       -0.2241
     19 C          49.0385    6.1990  -32.2300 C.ar    1  UNL1        0.1750
     20 N          47.9666    7.0252  -32.1672 N.ar    1  UNL1       -0.3349
     21 C          48.2124    7.7942  -31.1003 C.ar    1  UNL1        0.0757
     22 C          47.4322    8.8200  -30.5738 C.ar    1  UNL1        0.0185
     23 H          47.1408    7.0526  -32.8056 H       1  UNL1        0.1675
     24 C          50.1271   14.2660  -25.6607 C.ar    1  UNL1        0.0503
     25 C          50.7912   15.4906  -25.8730 C.ar    1  UNL1        0.0328
     26 C          50.3485   16.6641  -25.2499 C.ar    1  UNL1        0.1069
     27 C          49.2451   16.6208  -24.3921 C.ar    1  UNL1        0.0186
     28 C          48.5740   15.4182  -24.1733 C.ar    1  UNL1        0.0071
     29 C          48.9966   14.2437  -24.8099 C.ar    1  UNL1        0.0667
     30 S          51.2090   18.1770  -25.5149 S.O2    1  UNL1        0.0105
     31 C          52.4370   18.3861  -24.2463 C.3     1  UNL1        0.1816
     32 O          51.8742   18.1508  -26.8625 O.2     1  UNL1       -0.1686
     33 O          50.2462   19.3307  -25.4745 O.2     1  UNL1       -0.1686
     34 N          50.5955   13.0472  -26.2798 N.pl3   1  UNL1       -0.3325
     35 H          50.0139   12.5948  -27.0190 H       1  UNL1        0.1468
     36 C          51.8278   10.9365  -26.4694 C.3     1  UNL1        0.0229
     37 C          51.8363   12.3596  -25.9255 C.3     1  UNL1        0.0871
     38 C          46.5105   11.5175  -31.1292 C.3     1  UNL1        0.1688
     39 O          45.3476   12.1087  -31.6771 O.3     1  UNL1       -0.3463
     40 C          45.7020   13.1110  -32.6050 C.3     1  UNL1        0.1746
@<TRIPOS>BOND
     1    36    37    1
     2    37    34    1
     3    34    24    1
     4    24    25   ar
     5    25    26   ar
     6    26    30    1
     7    30    31    1
     8    30    32    2
     9    30    33    2
    10    26    27   ar
    11    27    28   ar
    12    28    29   ar
    13    29     1    1
    14     1     2    2
    15     1     3   am
    16     3     4    1
    17     4     5    1
    18     5     6    1
    19     6     7    1
    20     7     8   ar
    21     8     9   ar
    22     9    38    1
    23    38    39    1
    24    39    40    1
    25     9    10   ar
    26    10    14    1
    27    14    15   ar
    28    15    16   ar
    29    16    17   ar
    30    17    18   ar
    31    18    19   ar
    32    19    20   ar
    33    20    21   ar
    34    21    22   ar
    35    10    11   ar
    36    11    12   ar
    37    12    13    1
    38    29    24   ar
    39    13     3    1
    40    12     7   ar
    41    22    14   ar
    42    21    17   ar
    43    34    35    1
    44    20    23    1
@<TRIPOS>MOLECULE
*****
 40 44 0 0 0
SMALL
GASTEIGER

@<TRIPOS>ATOM
      1 C          46.6850   12.7201  -22.4435 C.2     1  UNL1        0.2506
      2 O          45.8653   11.9196  -22.9688 O.2     1  UNL1       -0.2699
      3 N          47.1211   13.8880  -23.1710 N.am    1  UNL1       -0.2680
      4 C          47.6945   15.0508  -22.4833 C.3     1  UNL1        0.1412
      5 C          49.2215   14.9766  -22.4616 C.3     1  UNL1        0.2268
      6 O          49.7723   14.9730  -23.7786 O.3     1  UNL1       -0.4739
      7 C          49.7674   13.8372  -24.5967 C.ar    1  UNL1        0.1360
      8 C          50.9921   13.3105  -25.0140 C.ar    1  UNL1        0.0348
      9 C          51.0502   12.1318  -25.7741 C.ar    1  UNL1        0.0103
     10 C          49.8451   11.4815  -26.1304 C.ar    1  UNL1       -0.0016
     11 C          48.6158   12.0494  -25.7653 C.ar    1  UNL1        0.0002
     12 C          48.5663   13.2242  -25.0019 C.ar    1  UNL1        0.0317
     13 C          47.2388   13.8249  -24.6292 C.3     1  UNL1        0.1236
     14 C          49.8383   10.2118  -26.8829 C.ar    1  UNL1        0.0013
     15 C          50.3406    9.0263  -26.2857 C.ar    1  UNL1        0.0016
     16 C          50.3296    7.8089  -26.9919 C.ar    1  UNL1        0.0206
     17 C          49.8048    7.8133  -28.2811 C.ar    1  UNL1        0.0985
     18 N          49.6936    6.7751  -29.1290 N.ar    1  UNL1       -0.2241
     19 C          49.1173    7.3390  -30.2234 C.ar    1  UNL1        0.1750
     20 N          48.8723    8.6642  -30.0837 N.ar    1  UNL1       -0.3349
     21 C          49.3122    8.9469  -28.8522 C.ar    1  UNL1        0.0757
     22 C          49.3034   10.1710  -28.1892 C.ar    1  UNL1        0.0185
     23 H          48.4396    9.3122  -30.7787 H       1  UNL1        0.1675
     24 C          48.5368   11.9353  -20.9325 C.ar    1  UNL1        0.0503
     25 C          49.0032   11.6891  -19.6257 C.ar    1  UNL1        0.0328
     26 C          48.1743   11.9001  -18.5167 C.ar    1  UNL1        0.1069
     27 C          46.8617   12.3435  -18.7054 C.ar    1  UNL1        0.0186
     28 C          46.3850   12.5954  -19.9914 C.ar    1  UNL1        0.0071
     29 C          47.2144   12.4081  -21.1051 C.ar    1  UNL1        0.0667
     30 S          48.7744   11.5643  -16.8959 S.O2    1  UNL1        0.0105
     31 C          49.1521   13.0974  -16.0785 C.3     1  UNL1        0.1816
     32 O          47.7290   10.8192  -16.1142 O.2     1  UNL1       -0.1686
     33 O          50.0147   10.7184  -16.9713 O.2     1  UNL1       -0.1686
     34 N          49.3787   11.6939  -22.0819 N.pl3   1  UNL1       -0.3325
     35 H          49.5216   12.4579  -22.7785 H       1  UNL1        0.1468
     36 C          49.0085    9.3446  -22.6761 C.3     1  UNL1        0.0229
     37 C          50.0409   10.4234  -22.3739 C.3     1  UNL1        0.0871
     38 C          52.4017   11.6003  -26.2028 C.3     1  UNL1        0.1688
     39 O          52.6657   11.9141  -27.5570 O.3     1  UNL1       -0.3463
     40 C          52.9639   10.7394  -28.2797 C.3     1  UNL1        0.1746
@<TRIPOS>BOND
     1    36    37    1
     2    37    34    1
     3    34    24    1
     4    24    25   ar
     5    25    26   ar
     6    26    30    1
     7    30    31    1
     8    30    32    2
     9    30    33    2
    10    26    27   ar
    11    27    28   ar
    12    28    29   ar
    13    29     1    1
    14     1     2    2
    15     1     3   am
    16     3     4    1
    17     4     5    1
    18     5     6    1
    19     6     7    1
    20     7     8   ar
    21     8     9   ar
    22     9    38    1
    23    38    39    1
    24    39    40    1
    25     9    10   ar
    26    10    14    1
    27    14    15   ar
    28    15    16   ar
    29    16    17   ar
    30    17    18   ar
    31    18    19   ar
    32    19    20   ar
    33    20    21   ar
    34    21    22   ar
    35    10    11   ar
    36    11    12   ar
    37    12    13    1
    38    29    24   ar
    39    13     3    1
    40    12     7   ar
    41    22    14   ar
    42    21    17   ar
    43    34    35    1
    44    20    23    1
@<TRIPOS>MOLECULE
*****
 40 44 0 0 0
SMALL
GASTEIGER

@<TRIPOS>ATOM
      1 C          47.0282   12.1802  -22.6189 C.2     1  UNL1        0.2506
      2 O          45.9132   12.4274  -22.0856 O.2     1  UNL1       -0.2699
      3 N          47.7469   10.9792  -22.2661 N.am    1  UNL1       -0.2680
      4 C          48.7857   10.4217  -23.1402 C.3     1  UNL1        0.1412
      5 C          50.1735   10.9066  -22.7203 C.3     1  UNL1        0.2268
      6 O          50.5000   10.4979  -21.3920 O.3     1  UNL1       -0.4739
      7 C          49.9784   11.1299  -20.2572 C.ar    1  UNL1        0.1360
      8 C          50.8654   11.7375  -19.3652 C.ar    1  UNL1        0.0348
      9 C          50.3946   12.4482  -18.2498 C.ar    1  UNL1        0.0103
     10 C          49.0002   12.5336  -18.0255 C.ar    1  UNL1       -0.0016
     11 C          48.1166   11.8670  -18.8867 C.ar    1  UNL1        0.0002
     12 C          48.5943   11.1634  -20.0012 C.ar    1  UNL1        0.0317
     13 C          47.6325   10.4452  -20.9075 C.3     1  UNL1        0.1236
     14 C          48.4382   13.3086  -16.9021 C.ar    1  UNL1        0.0013
     15 C          48.8403   13.0275  -15.5703 C.ar    1  UNL1        0.0016
     16 C          48.3172   13.7674  -14.4934 C.ar    1  UNL1        0.0206
     17 C          47.4067   14.7791  -14.7849 C.ar    1  UNL1        0.0985
     18 N          46.7880   15.6046  -13.9218 N.ar    1  UNL1       -0.2241
     19 C          46.0282   16.3814  -14.7386 C.ar    1  UNL1        0.1750
     20 N          46.1540   16.0712  -16.0515 N.ar    1  UNL1       -0.3349
     21 C          47.0277   15.0580  -16.0625 C.ar    1  UNL1        0.0757
     22 C          47.5209   14.3517  -17.1562 C.ar    1  UNL1        0.0185
     23 H          45.6777   16.5211  -16.8644 H       1  UNL1        0.1675
     24 C          47.4137   13.0202  -24.9585 C.ar    1  UNL1        0.0503
     25 C          47.9410   14.0098  -25.8120 C.ar    1  UNL1        0.0328
     26 C          48.6340   15.1102  -25.2922 C.ar    1  UNL1        0.1069
     27 C          48.8224   15.2227  -23.9112 C.ar    1  UNL1        0.0186
     28 C          48.3043   14.2544  -23.0519 C.ar    1  UNL1        0.0071
     29 C          47.5906   13.1617  -23.5618 C.ar    1  UNL1        0.0667
     30 S          49.3016   16.3215  -26.3816 S.O2    1  UNL1        0.0105
     31 C          50.0442   17.6256  -25.4281 C.3     1  UNL1        0.1816
     32 O          50.3390   15.6889  -27.2663 O.2     1  UNL1       -0.1686
     33 O          48.2125   16.8917  -27.2467 O.2     1  UNL1       -0.1686
     34 N          46.7210   11.8691  -25.4909 N.pl3   1  UNL1       -0.3325
     35 H          47.1764   10.9314  -25.4395 H       1  UNL1        0.1468
     36 C          44.3434   12.3592  -25.1500 C.3     1  UNL1        0.0229
     37 C          45.4120   11.9151  -26.1409 C.3     1  UNL1        0.0871
     38 C          51.3955   13.0892  -17.3117 C.3     1  UNL1        0.1688
     39 O          51.8400   12.1674  -16.3346 O.3     1  UNL1       -0.3463
     40 C          52.0646   12.8283  -15.1083 C.3     1  UNL1        0.1746
@<TRIPOS>BOND
     1    36    37    1
     2    37    34    1
     3    34    24    1
     4    24    25   ar
     5    25    26   ar
     6    26    30    1
     7    30    31    1
     8    30    32    2
     9    30    33    2
    10    26    27   ar
    11    27    28   ar
    12    28    29   ar
    13    29     1    1
    14     1     2    2
    15     1     3   am
    16     3     4    1
    17     4     5    1
    18     5     6    1
    19     6     7    1
    20     7     8   ar
    21     8     9   ar
    22     9    38    1
    23    38    39    1
    24    39    40    1
    25     9    10   ar
    26    10    14    1
    27    14    15   ar
    28    15    16   ar
    29    16    17   ar
    30    17    18   ar
    31    18    19   ar
    32    19    20   ar
    33    20    21   ar
    34    21    22   ar
    35    10    11   ar
    36    11    12   ar
    37    12    13    1
    38    29    24   ar
    39    13     3    1
    40    12     7   ar
    41    22    14   ar
    42    21    17   ar
    43    34    35    1
    44    20    23    1
@<TRIPOS>MOLECULE
*****
 40 44 0 0 0
SMALL
GASTEIGER

@<TRIPOS>ATOM
      1 C          46.7987   12.1233  -22.6525 C.2     1  UNL1        0.2506
      2 O          45.7075   12.3373  -22.0592 O.2     1  UNL1       -0.2699
      3 N          47.5604   10.9336  -22.3564 N.am    1  UNL1       -0.2680
      4 C          48.5648   10.4129  -23.2913 C.3     1  UNL1        0.1412
      5 C          49.9615   10.9223  -22.9347 C.3     1  UNL1        0.2268
      6 O          50.3645   10.5009  -21.6317 O.3     1  UNL1       -0.4739
      7 C          49.8882   11.1037  -20.4616 C.ar    1  UNL1        0.1360
      8 C          50.8064   11.7175  -19.6061 C.ar    1  UNL1        0.0348
      9 C          50.3782   12.4003  -18.4568 C.ar    1  UNL1        0.0103
     10 C          48.9957   12.4511  -18.1604 C.ar    1  UNL1       -0.0016
     11 C          48.0836   11.7780  -18.9862 C.ar    1  UNL1        0.0002
     12 C          48.5187   11.1023  -20.1349 C.ar    1  UNL1        0.0317
     13 C          47.5274   10.3765  -21.0026 C.3     1  UNL1        0.1236
     14 C          48.4754   13.1961  -16.9973 C.ar    1  UNL1        0.0013
     15 C          48.8871   12.8469  -15.6847 C.ar    1  UNL1        0.0016
     16 C          48.4039   13.5576  -14.5701 C.ar    1  UNL1        0.0206
     17 C          47.5229   14.6093  -14.8054 C.ar    1  UNL1        0.0985
     18 N          46.9438   15.4174  -13.8994 N.ar    1  UNL1       -0.2241
     19 C          46.1981   16.2516  -14.6714 C.ar    1  UNL1        0.1750
     20 N          46.2950   15.9925  -15.9978 N.ar    1  UNL1       -0.3349
     21 C          47.1349   14.9533  -16.0643 C.ar    1  UNL1        0.0757
     22 C          47.5891   14.2777  -17.1938 C.ar    1  UNL1        0.0185
     23 H          45.8220   16.4910  -16.7839 H       1  UNL1        0.1675
     24 C          48.2256   14.1178  -23.2129 C.ar    1  UNL1        0.0503
     25 C          48.6908   15.0339  -24.1774 C.ar    1  UNL1        0.0328
     26 C          48.2334   14.9771  -25.4999 C.ar    1  UNL1        0.1069
     27 C          47.2904   14.0124  -25.8675 C.ar    1  UNL1        0.0186
     28 C          46.8219   13.0959  -24.9267 C.ar    1  UNL1        0.0071
     29 C          47.2907   13.1314  -23.6067 C.ar    1  UNL1        0.0667
     30 S          48.8142   16.1470  -26.6805 S.O2    1  UNL1        0.0105
     31 C          49.1115   17.7021  -25.8715 C.3     1  UNL1        0.1816
     32 O          50.0891   15.6485  -27.3011 O.2     1  UNL1       -0.1686
     33 O          47.7907   16.3348  -27.7654 O.2     1  UNL1       -0.1686
     34 N          48.6738   14.1885  -21.8410 N.pl3   1  UNL1       -0.3325
     35 H          48.1373   13.6821  -21.1027 H       1  UNL1        0.1468
     36 C          51.1186   14.3484  -21.9262 C.3     1  UNL1        0.0229
     37 C          49.8311   14.9566  -21.3841 C.3     1  UNL1        0.0871
     38 C          51.4118   13.0494  -17.5605 C.3     1  UNL1        0.1688
     39 O          51.8611   12.1483  -16.5664 O.3     1  UNL1       -0.3463
     40 C          52.1121   12.8384  -15.3614 C.3     1  UNL1        0.1746
@<TRIPOS>BOND
     1    36    37    1
     2    37    34    1
     3    34    24    1
     4    24    25   ar
     5    25    26   ar
     6    26    30    1
     7    30    31    1
     8    30    32    2
     9    30    33    2
    10    26    27   ar
    11    27    28   ar
    12    28    29   ar
    13    29     1    1
    14     1     2    2
    15     1     3   am
    16     3     4    1
    17     4     5    1
    18     5     6    1
    19     6     7    1
    20     7     8   ar
    21     8     9   ar
    22     9    38    1
    23    38    39    1
    24    39    40    1
    25     9    10   ar
    26    10    14    1
    27    14    15   ar
    28    15    16   ar
    29    16    17   ar
    30    17    18   ar
    31    18    19   ar
    32    19    20   ar
    33    20    21   ar
    34    21    22   ar
    35    10    11   ar
    36    11    12   ar
    37    12    13    1
    38    29    24   ar
    39    13     3    1
    40    12     7   ar
    41    22    14   ar
    42    21    17   ar
    43    34    35    1
    44    20    23    1
@<TRIPOS>MOLECULE
*****
 40 44 0 0 0
SMALL
GASTEIGER

@<TRIPOS>ATOM
      1 C          46.5493   15.1761  -25.9702 C.2     1  UNL1        0.2506
      2 O          47.4370   16.0675  -25.8918 O.2     1  UNL1       -0.2699
      3 N          45.7050   14.8958  -24.8336 N.am    1  UNL1       -0.2680
      4 C          44.4105   14.2215  -24.9869 C.3     1  UNL1        0.1412
      5 C          44.5470   12.7155  -24.7611 C.3     1  UNL1        0.2268
      6 O          45.0064   12.4150  -23.4434 O.3     1  UNL1       -0.4739
      7 C          46.3453   12.5546  -23.0596 C.ar    1  UNL1        0.1360
      8 C          47.0376   11.4201  -22.6294 C.ar    1  UNL1        0.0348
      9 C          48.4011   11.4867  -22.3023 C.ar    1  UNL1        0.0103
     10 C          49.0732   12.7280  -22.3995 C.ar    1  UNL1       -0.0016
     11 C          48.3588   13.8770  -22.7686 C.ar    1  UNL1        0.0002
     12 C          46.9983   13.8014  -23.0983 C.ar    1  UNL1        0.0317
     13 C          46.2458   15.0461  -23.4811 C.3     1  UNL1        0.1236
     14 C          50.5170   12.8557  -22.1209 C.ar    1  UNL1        0.0013
     15 C          51.4339   13.0535  -23.1862 C.ar    1  UNL1        0.0016
     16 C          52.8114   13.1859  -22.9297 C.ar    1  UNL1        0.0206
     17 C          53.2318   13.1241  -21.6042 C.ar    1  UNL1        0.0985
     18 N          54.4871   13.2271  -21.1322 N.ar    1  UNL1       -0.2241
     19 C          54.3164   13.1016  -19.7895 C.ar    1  UNL1        0.1750
     20 N          53.0238   12.9287  -19.4221 N.ar    1  UNL1       -0.3349
     21 C          52.3531   12.9455  -20.5796 C.ar    1  UNL1        0.0757
     22 C          50.9833   12.8108  -20.7888 C.ar    1  UNL1        0.0185
     23 H          52.6426   12.8104  -18.4573 H       1  UNL1        0.1675
     24 C          46.9447   13.0914  -27.3215 C.ar    1  UNL1        0.0503
     25 C          46.7714   12.3879  -28.5302 C.ar    1  UNL1        0.0328
     26 C          46.1123   12.9784  -29.6157 C.ar    1  UNL1        0.1069
     27 C          45.6345   14.2882  -29.5087 C.ar    1  UNL1        0.0186
     28 C          45.7942   14.9976  -28.3189 C.ar    1  UNL1        0.0071
     29 C          46.4329   14.4067  -27.2205 C.ar    1  UNL1        0.0667
     30 S          45.9280   12.0857  -31.1219 S.O2    1  UNL1        0.0105
     31 C          46.5296   10.4272  -30.9009 C.3     1  UNL1        0.1816
     32 O          44.4773   12.0489  -31.5135 O.2     1  UNL1       -0.1686
     33 O          46.7065   12.7587  -32.2176 O.2     1  UNL1       -0.1686
     34 N          47.6473   12.4970  -26.2075 N.pl3   1  UNL1       -0.3325
     35 H          47.6526   12.9890  -25.2871 H       1  UNL1        0.1468
     36 C          49.8580   11.4806  -25.9092 C.3     1  UNL1        0.0229
     37 C          48.3976   11.2436  -26.2725 C.3     1  UNL1        0.0871
     38 C          49.1077   10.2296  -21.8406 C.3     1  UNL1        0.1688
     39 O          48.9169    9.1715  -22.7604 O.3     1  UNL1       -0.3463
     40 C          50.1615    8.7220  -23.2504 C.3     1  UNL1        0.1746
@<TRIPOS>BOND
     1    36    37    1
     2    37    34    1
     3    34    24    1
     4    24    25   ar
     5    25    26   ar
     6    26    30    1
     7    30    31    1
     8    30    32    2
     9    30    33    2
    10    26    27   ar
    11    27    28   ar
    12    28    29   ar
    13    29     1    1
    14     1     2    2
    15     1     3   am
    16     3     4    1
    17     4     5    1
    18     5     6    1
    19     6     7    1
    20     7     8   ar
    21     8     9   ar
    22     9    38    1
    23    38    39    1
    24    39    40    1
    25     9    10   ar
    26    10    14    1
    27    14    15   ar
    28    15    16   ar
    29    16    17   ar
    30    17    18   ar
    31    18    19   ar
    32    19    20   ar
    33    20    21   ar
    34    21    22   ar
    35    10    11   ar
    36    11    12   ar
    37    12    13    1
    38    29    24   ar
    39    13     3    1
    40    12     7   ar
    41    22    14   ar
    42    21    17   ar
    43    34    35    1
    44    20    23    1
@<TRIPOS>MOLECULE
*****
 40 44 0 0 0
SMALL
GASTEIGER

@<TRIPOS>ATOM
      1 C          50.7778   13.2373  -24.4515 C.2     1  UNL1        0.2506
      2 O          51.7954   13.3676  -23.7193 O.2     1  UNL1       -0.2699
      3 N          49.7280   14.2270  -24.4116 N.am    1  UNL1       -0.2680
      4 C          48.7706   14.3752  -25.5140 C.3     1  UNL1        0.1412
      5 C          47.4939   13.5792  -25.2419 C.3     1  UNL1        0.2268
      6 O          46.8270   14.0307  -24.0632 O.3     1  UNL1       -0.4739
      7 C          47.2621   13.6991  -22.7748 C.ar    1  UNL1        0.1360
      8 C          46.4009   12.9768  -21.9452 C.ar    1  UNL1        0.0348
      9 C          46.8112   12.5539  -20.6710 C.ar    1  UNL1        0.0103
     10 C          48.1128   12.8803  -20.2226 C.ar    1  UNL1       -0.0016
     11 C          48.9503   13.6615  -21.0322 C.ar    1  UNL1        0.0002
     12 C          48.5350   14.0758  -22.3054 C.ar    1  UNL1        0.0317
     13 C          49.4424   14.9226  -23.1551 C.3     1  UNL1        0.1236
     14 C          48.6242   12.4219  -18.9161 C.ar    1  UNL1        0.0013
     15 C          49.4307   11.2568  -18.8351 C.ar    1  UNL1        0.0016
     16 C          49.9308   10.8173  -17.5951 C.ar    1  UNL1        0.0206
     17 C          49.6129   11.5673  -16.4665 C.ar    1  UNL1        0.0985
     18 N          49.9805   11.3364  -15.1933 N.ar    1  UNL1       -0.2241
     19 C          49.4031   12.3669  -14.5205 C.ar    1  UNL1        0.1750
     20 N          48.7056   13.2109  -15.3184 N.ar    1  UNL1       -0.3349
     21 C          48.8486   12.6915  -16.5430 C.ar    1  UNL1        0.0757
     22 C          48.3347   13.1614  -17.7485 C.ar    1  UNL1        0.0185
     23 H          48.1793   14.0683  -15.0388 H       1  UNL1        0.1675
     24 C          49.8866   10.9290  -24.9047 C.ar    1  UNL1        0.0503
     25 C          49.7890    9.8241  -25.7740 C.ar    1  UNL1        0.0328
     26 C          50.4592    9.8175  -27.0036 C.ar    1  UNL1        0.1069
     27 C          51.2500   10.9112  -27.3691 C.ar    1  UNL1        0.0186
     28 C          51.3550   12.0143  -26.5227 C.ar    1  UNL1        0.0071
     29 C          50.6702   12.0387  -25.3004 C.ar    1  UNL1        0.0667
     30 S          50.3381    8.4156  -28.0618 S.O2    1  UNL1        0.0105
     31 C          48.9932    8.6517  -29.2005 C.3     1  UNL1        0.1816
     32 O          51.6220    8.2456  -28.8246 O.2     1  UNL1       -0.1686
     33 O          50.0929    7.1759  -27.2477 O.2     1  UNL1       -0.1686
     34 N          49.2189   10.9301  -23.6232 N.pl3   1  UNL1       -0.3325
     35 H          48.3956   11.5549  -23.4779 H       1  UNL1        0.1468
     36 C          48.4338    9.3937  -21.8818 C.3     1  UNL1        0.0229
     37 C          49.6309   10.1287  -22.4716 C.3     1  UNL1        0.0871
     38 C          45.8413   11.7737  -19.8087 C.3     1  UNL1        0.1688
     39 O          45.1763   12.6238  -18.8938 O.3     1  UNL1       -0.3463
     40 C          43.8533   12.1783  -18.6886 C.3     1  UNL1        0.1746
@<TRIPOS>BOND
     1    36    37    1
     2    37    34    1
     3    34    24    1
     4    24    25   ar
     5    25    26   ar
     6    26    30    1
     7    30    31    1
     8    30    32    2
     9    30    33    2
    10    26    27   ar
    11    27    28   ar
    12    28    29   ar
    13    29     1    1
    14     1     2    2
    15     1     3   am
    16     3     4    1
    17     4     5    1
    18     5     6    1
    19     6     7    1
    20     7     8   ar
    21     8     9   ar
    22     9    38    1
    23    38    39    1
    24    39    40    1
    25     9    10   ar
    26    10    14    1
    27    14    15   ar
    28    15    16   ar
    29    16    17   ar
    30    17    18   ar
    31    18    19   ar
    32    19    20   ar
    33    20    21   ar
    34    21    22   ar
    35    10    11   ar
    36    11    12   ar
    37    12    13    1
    38    29    24   ar
    39    13     3    1
    40    12     7   ar
    41    22    14   ar
    42    21    17   ar
    43    34    35    1
    44    20    23    1
@<TRIPOS>MOLECULE
*****
 40 44 0 0 0
SMALL
GASTEIGER

@<TRIPOS>ATOM
      1 C          46.2421   12.2789  -22.6632 C.2     1  UNL1        0.2506
      2 O          45.2976   12.2857  -21.8285 O.2     1  UNL1       -0.2699
      3 N          47.0854   11.1145  -22.7900 N.am    1  UNL1       -0.2680
      4 C          47.8810   10.8710  -23.9989 C.3     1  UNL1        0.1412
      5 C          49.3056   11.4008  -23.8333 C.3     1  UNL1        0.2268
      6 O          49.9915   10.7554  -22.7605 O.3     1  UNL1       -0.4739
      7 C          49.7594   11.0709  -21.4167 C.ar    1  UNL1        0.1360
      8 C          50.8207   11.5657  -20.6548 C.ar    1  UNL1        0.0348
      9 C          50.6287   11.9672  -19.3235 C.ar    1  UNL1        0.0103
     10 C          49.3411   11.8529  -18.7482 C.ar    1  UNL1       -0.0016
     11 C          48.2940   11.2947  -19.4957 C.ar    1  UNL1        0.0002
     12 C          48.4926   10.9006  -20.8264 C.ar    1  UNL1        0.0317
     13 C          47.3608   10.2936  -21.6091 C.3     1  UNL1        0.1236
     14 C          49.0602   12.3055  -17.3717 C.ar    1  UNL1        0.0013
     15 C          49.4544   11.5091  -16.2649 C.ar    1  UNL1        0.0016
     16 C          49.1995   11.9367  -14.9485 C.ar    1  UNL1        0.0206
     17 C          48.5601   13.1613  -14.7782 C.ar    1  UNL1        0.0985
     18 N          48.2222   13.7607  -13.6224 N.ar    1  UNL1       -0.2241
     19 C          47.6381   14.9150  -14.0400 C.ar    1  UNL1        0.1750
     20 N          47.6048   15.0477  -15.3880 N.ar    1  UNL1       -0.3349
     21 C          48.1908   13.9323  -15.8379 C.ar    1  UNL1        0.0757
     22 C          48.4244   13.5476  -17.1554 C.ar    1  UNL1        0.0185
     23 H          47.2119   15.8393  -15.9440 H       1  UNL1        0.1675
     24 C          47.4873   14.4230  -23.0883 C.ar    1  UNL1        0.0503
     25 C          47.7038   15.5485  -23.9081 C.ar    1  UNL1        0.0328
     26 C          46.9403   15.7511  -25.0646 C.ar    1  UNL1        0.1069
     27 C          45.9383   14.8368  -25.4039 C.ar    1  UNL1        0.0186
     28 C          45.7129   13.7157  -24.6060 C.ar    1  UNL1        0.0071
     29 C          46.4868   13.4936  -23.4592 C.ar    1  UNL1        0.0667
     30 S          47.2162   17.1769  -26.0600 S.O2    1  UNL1        0.0105
     31 C          48.8605   17.7881  -25.7704 C.3     1  UNL1        0.1816
     32 O          47.0587   16.8185  -27.5111 O.2     1  UNL1       -0.1686
     33 O          46.2170   18.2459  -25.7159 O.2     1  UNL1       -0.1686
     34 N          48.2537   14.2229  -21.8798 N.pl3   1  UNL1       -0.3325
     35 H          47.9085   13.5472  -21.1632 H       1  UNL1        0.1468
     36 C          50.5512   14.6592  -22.6153 C.3     1  UNL1        0.0229
     37 C          49.4915   14.9304  -21.5548 C.3     1  UNL1        0.0871
     38 C          51.8104   12.4967  -18.5385 C.3     1  UNL1        0.1688
     39 O          52.9269   12.7094  -19.3811 O.3     1  UNL1       -0.3463
     40 C          52.9528   14.0481  -19.8264 C.3     1  UNL1        0.1746
@<TRIPOS>BOND
     1    36    37    1
     2    37    34    1
     3    34    24    1
     4    24    25   ar
     5    25    26   ar
     6    26    30    1
     7    30    31    1
     8    30    32    2
     9    30    33    2
    10    26    27   ar
    11    27    28   ar
    12    28    29   ar
    13    29     1    1
    14     1     2    2
    15     1     3   am
    16     3     4    1
    17     4     5    1
    18     5     6    1
    19     6     7    1
    20     7     8   ar
    21     8     9   ar
    22     9    38    1
    23    38    39    1
    24    39    40    1
    25     9    10   ar
    26    10    14    1
    27    14    15   ar
    28    15    16   ar
    29    16    17   ar
    30    17    18   ar
    31    18    19   ar
    32    19    20   ar
    33    20    21   ar
    34    21    22   ar
    35    10    11   ar
    36    11    12   ar
    37    12    13    1
    38    29    24   ar
    39    13     3    1
    40    12     7   ar
    41    22    14   ar
    42    21    17   ar
    43    34    35    1
    44    20    23    1
