@<TRIPOS>MOLECULE
*****
 52 57 0 0 0
SMALL
GASTEIGER

@<TRIPOS>ATOM
      1 C           6.4114   75.0915   23.1782 C.ar    1  UNL1        0.0502
      2 C           7.6055   75.5025   22.5691 C.ar    1  UNL1        0.0148
      3 C           8.7624   75.6814   23.3302 C.ar    1  UNL1        0.0080
      4 C           8.7447   75.4675   24.7185 C.ar    1  UNL1        0.0808
      5 C           7.5526   75.0310   25.3278 C.ar    1  UNL1        0.1457
      6 F           7.5112   74.7335   26.6511 F       1  UNL1       -0.2040
      7 C           6.3970   74.8486   24.5612 C.ar    1  UNL1        0.0443
      8 N           3.1607   74.9472   20.5377 N.pl3   1  UNL1       -0.3017
      9 C           3.2629   76.0737   21.4708 C.3     1  UNL1        0.1123
     10 C           3.9909   75.6270   22.7387 C.3     1  UNL1        0.1122
     11 N           5.2226   74.9081   22.3867 N.pl3   1  UNL1       -0.3040
     12 C           5.1210   73.7861   21.4445 C.3     1  UNL1        0.1122
     13 C           4.3884   74.2311   20.1779 C.3     1  UNL1        0.1123
     14 C           1.2922   75.5518   19.0347 C.ar    1  UNL1        0.1521
     15 C           0.0646   75.2143   18.4341 C.ar    1  UNL1        0.0455
     16 C          -0.5418   73.9648   18.6654 C.ar    1  UNL1        0.0891
     17 C           0.0985   73.0478   19.5314 C.ar    1  UNL1        0.0653
     18 CL         -0.5989   71.4878   19.9601 Cl      1  UNL1       -0.0820
     19 C           1.3154   73.3871   20.1299 C.ar    1  UNL1        0.0292
     20 C           1.9149   74.6293   19.8925 C.ar    1  UNL1        0.0832
     21 C          -1.8277   73.6571   17.9879 C.2     1  UNL1        0.3390
     22 O          -1.8361   73.3274   16.7706 O.2     1  UNL1       -0.2451
     23 O          -3.0327   73.6948   18.6828 O.3     1  UNL1       -0.4771
     24 H          -3.9074   73.4751   18.2213 H       1  UNL1        0.2954
     25 C           2.9931   76.9731   17.8662 C.3     1  UNL1        0.2525
     26 O           1.9258   76.7810   18.7886 O.3     1  UNL1       -0.4702
     27 C           9.9794   75.6929   25.5012 C.2     1  UNL1        0.2483
     28 O          10.9722   74.9428   25.2971 O.2     1  UNL1       -0.2701
     29 N          10.0693   76.7799   26.4453 N.am    1  UNL1       -0.2945
     30 H           9.2483   77.4193   26.5339 H       1  UNL1        0.1501
     31 C          11.3040   77.2267   27.1142 C.3     1  UNL1        0.1535
     32 C          12.2279   78.0040   26.1911 C.2     1  UNL1        0.2443
     33 O          11.7886   79.0175   25.5824 O.2     1  UNL1       -0.2730
     34 N          13.5659   77.5406   25.9307 N.am    1  UNL1       -0.2825
     35 H          13.9409   76.7392   26.4826 H       1  UNL1        0.1549
     36 C          14.4847   78.2073   25.0496 C.ar    1  UNL1        0.0535
     37 C          14.9425   77.5444   23.9032 C.ar    1  UNL1        0.0353
     38 C          15.8181   78.1960   23.0313 C.ar    1  UNL1        0.1002
     39 N          16.2084   79.4730   23.2854 N.ar    1  UNL1       -0.2422
     40 C          15.7640   80.1492   24.3776 C.ar    1  UNL1        0.1002
     41 C          14.8885   79.5337   25.2759 C.ar    1  UNL1        0.0353
     42 C          10.9764   77.9240   28.4574 C.3     1  UNL1        0.0569
     43 C           9.5993   77.6341   28.9852 C.ar    1  UNL1       -0.0017
     44 C           8.5871   78.5590   29.2277 C.ar    1  UNL1        0.0681
     45 N           7.4737   77.9345   29.6743 N.ar    1  UNL1       -0.3523
     46 C           7.7729   76.6247   29.7177 C.ar    1  UNL1        0.0563
     47 C           6.9321   75.5788   30.0956 C.ar    1  UNL1        0.0170
     48 C           7.4469   74.2704   30.0474 C.ar    1  UNL1        0.0015
     49 C           8.7750   74.0391   29.6266 C.ar    1  UNL1        0.0001
     50 C           9.6005   75.1137   29.2499 C.ar    1  UNL1        0.0012
     51 C           9.0628   76.4009   29.3093 C.ar    1  UNL1        0.0131
     52 H           6.5648   78.3826   29.9260 H       1  UNL1        0.1660
@<TRIPOS>BOND
     1    25    26    1
     2    26    14    1
     3    14    15   ar
     4    15    16   ar
     5    16    21    1
     6    21    22    2
     7    21    23    1
     8    16    17   ar
     9    17    18    1
    10    17    19   ar
    11    19    20   ar
    12    20     8    1
    13     8     9    1
    14     9    10    1
    15    10    11    1
    16    11     1    1
    17     1     2   ar
    18     2     3   ar
    19     3     4   ar
    20     4    27    1
    21    27    28    2
    22    27    29   am
    23    29    31    1
    24    31    42    1
    25    42    43    1
    26    43    44   ar
    27    44    45   ar
    28    45    46   ar
    29    46    47   ar
    30    47    48   ar
    31    48    49   ar
    32    49    50   ar
    33    50    51   ar
    34    31    32    1
    35    32    33    2
    36    32    34   am
    37    34    36    1
    38    36    37   ar
    39    37    38   ar
    40    38    39   ar
    41    39    40   ar
    42    40    41   ar
    43     4     5   ar
    44     5     6    1
    45     5     7   ar
    46    11    12    1
    47    12    13    1
    48    20    14   ar
    49    13     8    1
    50     7     1   ar
    51    51    43   ar
    52    41    36   ar
    53    51    46   ar
    54    23    24    1
    55    29    30    1
    56    45    52    1
    57    34    35    1
@<TRIPOS>MOLECULE
*****
 52 57 0 0 0
SMALL
GASTEIGER

@<TRIPOS>ATOM
      1 C          10.8648   79.7904   25.8397 C.ar    1  UNL1        0.0502
      2 C          10.5824   81.1635   25.8085 C.ar    1  UNL1        0.0148
      3 C          11.5425   82.0727   25.3599 C.ar    1  UNL1        0.0080
      4 C          12.8098   81.6286   24.9474 C.ar    1  UNL1        0.0808
      5 C          13.0861   80.2478   24.9549 C.ar    1  UNL1        0.1457
      6 F          14.2665   79.7679   24.4883 F       1  UNL1       -0.2040
      7 C          12.1202   79.3399   25.4008 C.ar    1  UNL1        0.0443
      8 N           7.6243   77.3230   26.8250 N.pl3   1  UNL1       -0.3017
      9 C           7.6439   78.6987   27.3321 C.3     1  UNL1        0.1123
     10 C           9.0903   79.1603   27.5109 C.3     1  UNL1        0.1122
     11 N           9.8694   78.8586   26.3027 N.pl3   1  UNL1       -0.3040
     12 C           9.8414   77.4828   25.7896 C.3     1  UNL1        0.1122
     13 C           8.3946   77.0187   25.6152 C.3     1  UNL1        0.1123
     14 C           5.5917   75.9148   26.7815 C.ar    1  UNL1        0.1521
     15 C           4.7750   74.9495   27.4002 C.ar    1  UNL1        0.0455
     16 C           5.1296   74.3782   28.6373 C.ar    1  UNL1        0.0891
     17 C           6.3238   74.8029   29.2654 C.ar    1  UNL1        0.0653
     18 CL          6.8331   74.2208   30.8482 Cl      1  UNL1       -0.0820
     19 C           7.1309   75.7647   28.6508 C.ar    1  UNL1        0.0292
     20 C           6.7746   76.3257   27.4191 C.ar    1  UNL1        0.0832
     21 C           4.2381   73.3493   29.2321 C.2     1  UNL1        0.3390
     22 O           3.4624   73.6575   30.1774 O.2     1  UNL1       -0.2451
     23 O           4.2176   72.0468   28.7426 O.3     1  UNL1       -0.4771
     24 H           3.6018   71.3493   29.1433 H       1  UNL1        0.2954
     25 C           3.9444   76.6298   25.0339 C.3     1  UNL1        0.2525
     26 O           5.2684   76.4704   25.5326 O.3     1  UNL1       -0.4702
     27 C          13.8149   82.6192   24.5043 C.2     1  UNL1        0.2483
     28 O          14.9758   82.2187   24.2181 O.2     1  UNL1       -0.2701
     29 N          13.4659   84.0106   24.3520 N.am    1  UNL1       -0.2945
     30 H          12.4757   84.2886   24.5333 H       1  UNL1        0.1501
     31 C          14.3135   85.0366   23.7194 C.3     1  UNL1        0.1535
     32 C          14.5428   84.7827   22.2386 C.2     1  UNL1        0.2443
     33 O          15.3390   83.8723   21.8806 O.2     1  UNL1       -0.2730
     34 N          13.9370   85.6308   21.2453 N.am    1  UNL1       -0.2825
     35 H          13.2344   86.3404   21.5456 H       1  UNL1        0.1549
     36 C          14.1306   85.4682   19.8307 C.ar    1  UNL1        0.0535
     37 C          13.8341   86.5324   18.9689 C.ar    1  UNL1        0.0353
     38 C          14.0417   86.3876   17.5950 C.ar    1  UNL1        0.1002
     39 N          14.5460   85.2263   17.1005 N.ar    1  UNL1       -0.2422
     40 C          14.8633   84.1845   17.9139 C.ar    1  UNL1        0.1002
     41 C          14.6697   84.2873   19.2938 C.ar    1  UNL1        0.0353
     42 C          13.8086   86.4570   24.0733 C.3     1  UNL1        0.0569
     43 C          14.6472   87.1756   25.0928 C.ar    1  UNL1       -0.0017
     44 C          14.2885   87.4798   26.4033 C.ar    1  UNL1        0.0681
     45 N          15.3045   88.1079   27.0375 N.ar    1  UNL1       -0.3523
     46 C          16.3009   88.2046   26.1404 C.ar    1  UNL1        0.0563
     47 C          17.5645   88.7594   26.3387 C.ar    1  UNL1        0.0170
     48 C          18.4691   88.7378   25.2614 C.ar    1  UNL1        0.0015
     49 C          18.0952   88.1681   24.0245 C.ar    1  UNL1        0.0001
     50 C          16.8137   87.6144   23.8533 C.ar    1  UNL1        0.0012
     51 C          15.9371   87.6514   24.9394 C.ar    1  UNL1        0.0131
     52 H          15.3120   88.4415   28.0269 H       1  UNL1        0.1660
@<TRIPOS>BOND
     1    25    26    1
     2    26    14    1
     3    14    15   ar
     4    15    16   ar
     5    16    21    1
     6    21    22    2
     7    21    23    1
     8    16    17   ar
     9    17    18    1
    10    17    19   ar
    11    19    20   ar
    12    20     8    1
    13     8     9    1
    14     9    10    1
    15    10    11    1
    16    11     1    1
    17     1     2   ar
    18     2     3   ar
    19     3     4   ar
    20     4    27    1
    21    27    28    2
    22    27    29   am
    23    29    31    1
    24    31    42    1
    25    42    43    1
    26    43    44   ar
    27    44    45   ar
    28    45    46   ar
    29    46    47   ar
    30    47    48   ar
    31    48    49   ar
    32    49    50   ar
    33    50    51   ar
    34    31    32    1
    35    32    33    2
    36    32    34   am
    37    34    36    1
    38    36    37   ar
    39    37    38   ar
    40    38    39   ar
    41    39    40   ar
    42    40    41   ar
    43     4     5   ar
    44     5     6    1
    45     5     7   ar
    46    11    12    1
    47    12    13    1
    48    20    14   ar
    49    13     8    1
    50     7     1   ar
    51    51    43   ar
    52    41    36   ar
    53    51    46   ar
    54    23    24    1
    55    29    30    1
    56    45    52    1
    57    34    35    1
@<TRIPOS>MOLECULE
*****
 52 57 0 0 0
SMALL
GASTEIGER

@<TRIPOS>ATOM
      1 C          10.8621   79.7400   25.8396 C.ar    1  UNL1        0.0502
      2 C          10.5814   81.1135   25.8159 C.ar    1  UNL1        0.0148
      3 C          11.5424   82.0240   25.3716 C.ar    1  UNL1        0.0080
      4 C          12.8089   81.5806   24.9561 C.ar    1  UNL1        0.0808
      5 C          13.0836   80.1994   24.9560 C.ar    1  UNL1        0.1457
      6 F          14.2631   79.7206   24.4862 F       1  UNL1       -0.2040
      7 C          12.1168   79.2903   25.3976 C.ar    1  UNL1        0.0443
      8 N           7.6213   77.2664   26.8083 N.pl3   1  UNL1       -0.3017
      9 C           7.6327   78.6442   27.3101 C.3     1  UNL1        0.1123
     10 C           9.0761   79.1109   27.4988 C.3     1  UNL1        0.1122
     11 N           9.8659   78.8070   26.2982 N.pl3   1  UNL1       -0.3040
     12 C           9.8463   77.4290   25.7903 C.3     1  UNL1        0.1122
     13 C           8.4024   76.9598   25.6060 C.3     1  UNL1        0.1123
     14 C           5.6217   75.8133   26.7295 C.ar    1  UNL1        0.1521
     15 C           4.8016   74.8491   27.3455 C.ar    1  UNL1        0.0455
     16 C           5.1193   74.3228   28.6122 C.ar    1  UNL1        0.0891
     17 C           6.2787   74.7921   29.2727 C.ar    1  UNL1        0.0653
     18 CL          6.7375   74.2689   30.8911 Cl      1  UNL1       -0.0820
     19 C           7.0892   75.7528   28.6605 C.ar    1  UNL1        0.0292
     20 C           6.7699   76.2688   27.3994 C.ar    1  UNL1        0.0832
     21 C           4.2267   73.2928   29.2034 C.2     1  UNL1        0.3390
     22 O           3.4409   73.6018   30.1402 O.2     1  UNL1       -0.2451
     23 O           4.2163   71.9881   28.7197 O.3     1  UNL1       -0.4771
     24 H           3.5998   71.2896   29.1177 H       1  UNL1        0.2954
     25 C           4.1124   76.9519   25.0851 C.3     1  UNL1        0.2525
     26 O           5.3362   76.3242   25.4526 O.3     1  UNL1       -0.4702
     27 C          13.8149   82.5723   24.5176 C.2     1  UNL1        0.2483
     28 O          14.9732   82.1710   24.2218 O.2     1  UNL1       -0.2701
     29 N          13.4697   83.9662   24.3808 N.am    1  UNL1       -0.2945
     30 H          12.4812   84.2456   24.5697 H       1  UNL1        0.1501
     31 C          14.3174   84.9958   23.7541 C.3     1  UNL1        0.1535
     32 C          14.5091   84.7755   22.2626 C.2     1  UNL1        0.2443
     33 O          15.2713   83.8530   21.8640 O.2     1  UNL1       -0.2730
     34 N          13.9081   85.6670   21.3050 N.am    1  UNL1       -0.2825
     35 H          13.2324   86.3878   21.6386 H       1  UNL1        0.1549
     36 C          14.0681   85.5372   19.8829 C.ar    1  UNL1        0.0535
     37 C          13.7967   86.6360   19.0568 C.ar    1  UNL1        0.0353
     38 C          13.9722   86.5223   17.6756 C.ar    1  UNL1        0.1002
     39 N          14.4215   85.3570   17.1391 N.ar    1  UNL1       -0.2422
     40 C          14.7137   84.2812   17.9169 C.ar    1  UNL1        0.1002
     41 C          14.5506   84.3522   19.3028 C.ar    1  UNL1        0.0353
     42 C          13.8413   86.4138   24.1542 C.3     1  UNL1        0.0569
     43 C          14.8949   87.2559   24.8174 C.ar    1  UNL1       -0.0017
     44 C          16.0187   87.8141   24.2139 C.ar    1  UNL1        0.0681
     45 N          16.7294   88.5330   25.1124 N.ar    1  UNL1       -0.3523
     46 C          16.0665   88.4335   26.2776 C.ar    1  UNL1        0.0563
     47 C          16.4032   89.0261   27.4938 C.ar    1  UNL1        0.0170
     48 C          15.5515   88.8055   28.5915 C.ar    1  UNL1        0.0015
     49 C          14.3949   88.0074   28.4507 C.ar    1  UNL1        0.0001
     50 C          14.0792   87.4228   27.2110 C.ar    1  UNL1        0.0012
     51 C          14.9436   87.6581   26.1402 C.ar    1  UNL1        0.0131
     52 H          17.6104   89.0634   24.9312 H       1  UNL1        0.1660
@<TRIPOS>BOND
     1    25    26    1
     2    26    14    1
     3    14    15   ar
     4    15    16   ar
     5    16    21    1
     6    21    22    2
     7    21    23    1
     8    16    17   ar
     9    17    18    1
    10    17    19   ar
    11    19    20   ar
    12    20     8    1
    13     8     9    1
    14     9    10    1
    15    10    11    1
    16    11     1    1
    17     1     2   ar
    18     2     3   ar
    19     3     4   ar
    20     4    27    1
    21    27    28    2
    22    27    29   am
    23    29    31    1
    24    31    42    1
    25    42    43    1
    26    43    44   ar
    27    44    45   ar
    28    45    46   ar
    29    46    47   ar
    30    47    48   ar
    31    48    49   ar
    32    49    50   ar
    33    50    51   ar
    34    31    32    1
    35    32    33    2
    36    32    34   am
    37    34    36    1
    38    36    37   ar
    39    37    38   ar
    40    38    39   ar
    41    39    40   ar
    42    40    41   ar
    43     4     5   ar
    44     5     6    1
    45     5     7   ar
    46    11    12    1
    47    12    13    1
    48    20    14   ar
    49    13     8    1
    50     7     1   ar
    51    51    43   ar
    52    41    36   ar
    53    51    46   ar
    54    23    24    1
    55    29    30    1
    56    45    52    1
    57    34    35    1
@<TRIPOS>MOLECULE
*****
 52 57 0 0 0
SMALL
GASTEIGER

@<TRIPOS>ATOM
      1 C           6.3112   75.7190   23.3120 C.ar    1  UNL1        0.0502
      2 C           7.4216   76.3031   22.6861 C.ar    1  UNL1        0.0148
      3 C           8.5452   76.6640   23.4326 C.ar    1  UNL1        0.0080
      4 C           8.5750   76.4618   24.8224 C.ar    1  UNL1        0.0808
      5 C           7.4705   75.8527   25.4485 C.ar    1  UNL1        0.1457
      6 F           7.4891   75.5637   26.7742 F       1  UNL1       -0.2040
      7 C           6.3487   75.4885   24.6966 C.ar    1  UNL1        0.0443
      8 N           3.1225   75.0201   20.6844 N.pl3   1  UNL1       -0.3017
      9 C           3.0982   76.2253   21.5193 C.3     1  UNL1        0.1123
     10 C           3.8538   75.9636   22.8223 C.3     1  UNL1        0.1122
     11 N           5.1565   75.3485   22.5356 N.pl3   1  UNL1       -0.3040
     12 C           5.1810   74.1471   21.6912 C.3     1  UNL1        0.1122
     13 C           4.4211   74.4067   20.3896 C.3     1  UNL1        0.1123
     14 C           1.2418   75.2842   19.1003 C.ar    1  UNL1        0.1521
     15 C           0.0613   74.7740   18.5277 C.ar    1  UNL1        0.0455
     16 C          -0.4395   73.5097   18.8927 C.ar    1  UNL1        0.0891
     17 C           0.2587   72.7562   19.8651 C.ar    1  UNL1        0.0653
     18 CL         -0.3102   71.1988   20.4605 Cl      1  UNL1       -0.0820
     19 C           1.4285   73.2670   20.4352 C.ar    1  UNL1        0.0292
     20 C           1.9232   74.5227   20.0650 C.ar    1  UNL1        0.0832
     21 C          -1.6790   73.0153   18.2396 C.2     1  UNL1        0.3390
     22 O          -2.6218   73.8146   17.9893 O.2     1  UNL1       -0.2451
     23 O          -1.8108   71.6814   17.8657 O.3     1  UNL1       -0.4771
     24 H          -2.6530   71.3484   17.4116 H       1  UNL1        0.2954
     25 C           2.8713   76.7076   17.8364 C.3     1  UNL1        0.2525
     26 O           1.7719   76.5291   18.7233 O.3     1  UNL1       -0.4702
     27 C           9.7685   76.8808   25.5891 C.2     1  UNL1        0.2483
     28 O          10.8515   76.2594   25.4127 O.2     1  UNL1       -0.2701
     29 N           9.7138   78.0096   26.4856 N.am    1  UNL1       -0.2945
     30 H           8.8158   78.5388   26.5506 H       1  UNL1        0.1501
     31 C          10.8783   78.6429   27.1292 C.3     1  UNL1        0.1535
     32 C          11.9818   78.9899   26.1436 C.2     1  UNL1        0.2443
     33 O          11.8561   80.0021   25.4015 O.2     1  UNL1       -0.2730
     34 N          13.1206   78.1240   25.9808 N.am    1  UNL1       -0.2825
     35 H          13.2470   77.3246   26.6383 H       1  UNL1        0.1549
     36 C          14.1869   78.3732   25.0504 C.ar    1  UNL1        0.0535
     37 C          14.4060   77.4744   23.9980 C.ar    1  UNL1        0.0353
     38 C          15.4267   77.7235   23.0775 C.ar    1  UNL1        0.1002
     39 N          16.1906   78.8419   23.1927 N.ar    1  UNL1       -0.2422
     40 C          15.9878   79.7428   24.1901 C.ar    1  UNL1        0.1002
     41 C          14.9784   79.5310   25.1327 C.ar    1  UNL1        0.0353
     42 C          10.4296   79.8036   28.0506 C.3     1  UNL1        0.0569
     43 C           9.6603   79.3670   29.2658 C.ar    1  UNL1       -0.0017
     44 C          10.1047   79.3846   30.5852 C.ar    1  UNL1        0.0681
     45 N           9.1330   78.9449   31.4168 N.ar    1  UNL1       -0.3523
     46 C           8.0799   78.6484   30.6358 C.ar    1  UNL1        0.0563
     47 C           6.8325   78.1777   31.0435 C.ar    1  UNL1        0.0170
     48 C           5.8590   77.9508   30.0535 C.ar    1  UNL1        0.0015
     49 C           6.1504   78.1974   28.6938 C.ar    1  UNL1        0.0001
     50 C           7.4174   78.6734   28.3114 C.ar    1  UNL1        0.0012
     51 C           8.3635   78.8878   29.3155 C.ar    1  UNL1        0.0131
     52 H           9.1909   78.8616   32.4560 H       1  UNL1        0.1660
@<TRIPOS>BOND
     1    25    26    1
     2    26    14    1
     3    14    15   ar
     4    15    16   ar
     5    16    21    1
     6    21    22    2
     7    21    23    1
     8    16    17   ar
     9    17    18    1
    10    17    19   ar
    11    19    20   ar
    12    20     8    1
    13     8     9    1
    14     9    10    1
    15    10    11    1
    16    11     1    1
    17     1     2   ar
    18     2     3   ar
    19     3     4   ar
    20     4    27    1
    21    27    28    2
    22    27    29   am
    23    29    31    1
    24    31    42    1
    25    42    43    1
    26    43    44   ar
    27    44    45   ar
    28    45    46   ar
    29    46    47   ar
    30    47    48   ar
    31    48    49   ar
    32    49    50   ar
    33    50    51   ar
    34    31    32    1
    35    32    33    2
    36    32    34   am
    37    34    36    1
    38    36    37   ar
    39    37    38   ar
    40    38    39   ar
    41    39    40   ar
    42    40    41   ar
    43     4     5   ar
    44     5     6    1
    45     5     7   ar
    46    11    12    1
    47    12    13    1
    48    20    14   ar
    49    13     8    1
    50     7     1   ar
    51    51    43   ar
    52    41    36   ar
    53    51    46   ar
    54    23    24    1
    55    29    30    1
    56    45    52    1
    57    34    35    1
@<TRIPOS>MOLECULE
*****
 52 57 0 0 0
SMALL
GASTEIGER

@<TRIPOS>ATOM
      1 C          11.2931   80.1782   25.5049 C.ar    1  UNL1        0.0502
      2 C          10.7538   81.4329   25.1873 C.ar    1  UNL1        0.0148
      3 C          11.5848   82.4746   24.7702 C.ar    1  UNL1        0.0080
      4 C          12.9738   82.2870   24.6766 C.ar    1  UNL1        0.0808
      5 C          13.5141   81.0204   24.9714 C.ar    1  UNL1        0.1457
      6 F          14.8388   80.7712   24.8158 F       1  UNL1       -0.2040
      7 C          12.6778   79.9782   25.3846 C.ar    1  UNL1        0.0443
      8 N           8.8381   77.2732   27.2639 N.pl3   1  UNL1       -0.3017
      9 C          10.2910   77.1643   27.4298 C.3     1  UNL1        0.1123
     10 C          10.9944   77.7834   26.2219 C.3     1  UNL1        0.1122
     11 N          10.4298   79.1084   25.9334 N.pl3   1  UNL1       -0.3040
     12 C           8.9736   79.2184   25.7771 C.3     1  UNL1        0.1122
     13 C           8.2693   78.5949   26.9829 C.3     1  UNL1        0.1123
     14 C           7.5794   75.7958   28.7966 C.ar    1  UNL1        0.1521
     15 C           6.7521   74.6729   28.9872 C.ar    1  UNL1        0.0455
     16 C           6.3059   73.9018   27.8969 C.ar    1  UNL1        0.0891
     17 C           6.7169   74.2652   26.5931 C.ar    1  UNL1        0.0653
     18 CL          6.2897   73.3346   25.1596 Cl      1  UNL1       -0.0820
     19 C           7.5419   75.3783   26.4070 C.ar    1  UNL1        0.0292
     20 C           7.9786   76.1430   27.4948 C.ar    1  UNL1        0.0832
     21 C           5.4181   72.7396   28.1582 C.2     1  UNL1        0.3390
     22 O           4.3900   72.8800   28.8750 O.2     1  UNL1       -0.2451
     23 O           5.6820   71.4936   27.5975 O.3     1  UNL1       -0.4771
     24 H           5.0699   70.7048   27.7690 H       1  UNL1        0.2954
     25 C           7.1784   77.5089   30.5808 C.3     1  UNL1        0.2525
     26 O           8.0065   76.5941   29.8705 O.3     1  UNL1       -0.4702
     27 C          13.8303   83.4183   24.2589 C.2     1  UNL1        0.2483
     28 O          14.7671   83.2008   23.4432 O.2     1  UNL1       -0.2701
     29 N          13.5728   84.7562   24.7329 N.am    1  UNL1       -0.2945
     30 H          12.7454   84.9041   25.3527 H       1  UNL1        0.1501
     31 C          14.2173   85.9791   24.2224 C.3     1  UNL1        0.1535
     32 C          13.9331   86.2260   22.7500 C.2     1  UNL1        0.2443
     33 O          12.9217   86.9024   22.4175 O.2     1  UNL1       -0.2730
     34 N          14.7491   85.6169   21.7320 N.am    1  UNL1       -0.2825
     35 H          15.6164   85.1109   22.0136 H       1  UNL1        0.1549
     36 C          14.5238   85.7828   20.3226 C.ar    1  UNL1        0.0535
     37 C          14.5001   84.6544   19.4921 C.ar    1  UNL1        0.0353
     38 C          14.2590   84.8076   18.1247 C.ar    1  UNL1        0.1002
     39 N          14.0307   86.0435   17.6070 N.ar    1  UNL1       -0.2422
     40 C          14.0261   87.1540   18.3909 C.ar    1  UNL1        0.1002
     41 C          14.2643   87.0451   19.7634 C.ar    1  UNL1        0.0353
     42 C          13.9315   87.1791   25.1583 C.3     1  UNL1        0.0569
     43 C          15.1453   87.7167   25.8632 C.ar    1  UNL1       -0.0017
     44 C          15.3146   87.8649   27.2373 C.ar    1  UNL1        0.0681
     45 N          16.5452   88.3543   27.5115 N.ar    1  UNL1       -0.3523
     46 C          17.1544   88.5179   26.3244 C.ar    1  UNL1        0.0563
     47 C          18.4502   88.9793   26.0969 C.ar    1  UNL1        0.0170
     48 C          18.8980   89.0537   24.7654 C.ar    1  UNL1        0.0015
     49 C          18.0507   88.6690   23.7030 C.ar    1  UNL1        0.0001
     50 C          16.7482   88.2060   23.9622 C.ar    1  UNL1        0.0012
     51 C          16.3310   88.1444   25.2932 C.ar    1  UNL1        0.0131
     52 H          16.9410   88.5555   28.4566 H       1  UNL1        0.1660
@<TRIPOS>BOND
     1    25    26    1
     2    26    14    1
     3    14    15   ar
     4    15    16   ar
     5    16    21    1
     6    21    22    2
     7    21    23    1
     8    16    17   ar
     9    17    18    1
    10    17    19   ar
    11    19    20   ar
    12    20     8    1
    13     8     9    1
    14     9    10    1
    15    10    11    1
    16    11     1    1
    17     1     2   ar
    18     2     3   ar
    19     3     4   ar
    20     4    27    1
    21    27    28    2
    22    27    29   am
    23    29    31    1
    24    31    42    1
    25    42    43    1
    26    43    44   ar
    27    44    45   ar
    28    45    46   ar
    29    46    47   ar
    30    47    48   ar
    31    48    49   ar
    32    49    50   ar
    33    50    51   ar
    34    31    32    1
    35    32    33    2
    36    32    34   am
    37    34    36    1
    38    36    37   ar
    39    37    38   ar
    40    38    39   ar
    41    39    40   ar
    42    40    41   ar
    43     4     5   ar
    44     5     6    1
    45     5     7   ar
    46    11    12    1
    47    12    13    1
    48    20    14   ar
    49    13     8    1
    50     7     1   ar
    51    51    43   ar
    52    41    36   ar
    53    51    46   ar
    54    23    24    1
    55    29    30    1
    56    45    52    1
    57    34    35    1
@<TRIPOS>MOLECULE
*****
 52 57 0 0 0
SMALL
GASTEIGER

@<TRIPOS>ATOM
      1 C          10.8209   79.5816   26.0088 C.ar    1  UNL1        0.0502
      2 C          10.5541   80.9555   26.0927 C.ar    1  UNL1        0.0148
      3 C          11.4904   81.8866   25.6386 C.ar    1  UNL1        0.0080
      4 C          12.7189   81.4628   25.1052 C.ar    1  UNL1        0.0808
      5 C          12.9780   80.0828   24.9976 C.ar    1  UNL1        0.1457
      6 F          14.1154   79.6277   24.4143 F       1  UNL1       -0.2040
      7 C          12.0356   79.1533   25.4495 C.ar    1  UNL1        0.0443
      8 N           8.2244   76.4496   27.0133 N.pl3   1  UNL1       -0.3017
      9 C           8.0033   77.1751   25.7584 C.3     1  UNL1        0.1123
     10 C           8.4991   78.6141   25.9019 C.3     1  UNL1        0.1122
     11 N           9.8501   78.6273   26.4782 N.pl3   1  UNL1       -0.3040
     12 C          10.0732   77.8923   27.7300 C.3     1  UNL1        0.1122
     13 C           9.5730   76.4540   27.5886 C.3     1  UNL1        0.1123
     14 C           6.4175   76.1383   28.6730 C.ar    1  UNL1        0.1521
     15 C           5.4185   75.3213   29.2351 C.ar    1  UNL1        0.0455
     16 C           5.1630   74.0309   28.7329 C.ar    1  UNL1        0.0891
     17 C           5.9427   73.5544   27.6532 C.ar    1  UNL1        0.0653
     18 CL          5.7711   71.9311   26.9905 Cl      1  UNL1       -0.0820
     19 C           6.9371   74.3662   27.0995 C.ar    1  UNL1        0.0292
     20 C           7.1832   75.6496   27.6008 C.ar    1  UNL1        0.0832
     21 C           4.0823   73.2224   29.3540 C.2     1  UNL1        0.3390
     22 O           3.2520   73.7695   30.1297 O.2     1  UNL1       -0.2451
     23 O           3.9461   71.8669   29.0706 O.3     1  UNL1       -0.4771
     24 H           3.2025   71.3196   29.4875 H       1  UNL1        0.2954
     25 C           6.8786   77.7835   30.5059 C.3     1  UNL1        0.2525
     26 O           6.6627   77.4397   29.1412 O.3     1  UNL1       -0.4702
     27 C          13.7015   82.4743   24.6589 C.2     1  UNL1        0.2483
     28 O          14.8311   82.0855   24.2552 O.2     1  UNL1       -0.2701
     29 N          13.3624   83.8762   24.6359 N.am    1  UNL1       -0.2945
     30 H          12.3932   84.1490   24.9132 H       1  UNL1        0.1501
     31 C          14.1740   84.9385   24.0160 C.3     1  UNL1        0.1535
     32 C          14.3166   84.7714   22.5122 C.2     1  UNL1        0.2443
     33 O          15.0195   83.8287   22.0559 O.2     1  UNL1       -0.2730
     34 N          13.7390   85.7318   21.6082 N.am    1  UNL1       -0.2825
     35 H          13.1104   86.4716   21.9891 H       1  UNL1        0.1549
     36 C          13.8563   85.6537   20.1782 C.ar    1  UNL1        0.0535
     37 C          13.5454   86.7768   19.4000 C.ar    1  UNL1        0.0353
     38 C          13.6793   86.7136   18.0109 C.ar    1  UNL1        0.1002
     39 N          14.1265   85.5740   17.4203 N.ar    1  UNL1       -0.2422
     40 C          14.4564   84.4759   18.1504 C.ar    1  UNL1        0.1002
     41 C          14.3356   84.4964   19.5423 C.ar    1  UNL1        0.0353
     42 C          13.6934   86.3352   24.4806 C.3     1  UNL1        0.0569
     43 C          14.7706   87.1900   25.0871 C.ar    1  UNL1       -0.0017
     44 C          15.9059   87.6801   24.4472 C.ar    1  UNL1        0.0681
     45 N          16.6381   88.4357   25.2971 N.ar    1  UNL1       -0.3523
     46 C          15.9774   88.4266   26.4677 C.ar    1  UNL1        0.0563
     47 C          16.3338   89.0856   27.6434 C.ar    1  UNL1        0.0170
     48 C          15.4809   88.9564   28.7548 C.ar    1  UNL1        0.0015
     49 C          14.3038   88.1809   28.6670 C.ar    1  UNL1        0.0001
     50 C          13.9686   87.5279   27.4673 C.ar    1  UNL1        0.0012
     51 C          14.8346   87.6731   26.3818 C.ar    1  UNL1        0.0131
     52 H          17.5316   88.9308   25.0809 H       1  UNL1        0.1660
@<TRIPOS>BOND
     1    25    26    1
     2    26    14    1
     3    14    15   ar
     4    15    16   ar
     5    16    21    1
     6    21    22    2
     7    21    23    1
     8    16    17   ar
     9    17    18    1
    10    17    19   ar
    11    19    20   ar
    12    20     8    1
    13     8     9    1
    14     9    10    1
    15    10    11    1
    16    11     1    1
    17     1     2   ar
    18     2     3   ar
    19     3     4   ar
    20     4    27    1
    21    27    28    2
    22    27    29   am
    23    29    31    1
    24    31    42    1
    25    42    43    1
    26    43    44   ar
    27    44    45   ar
    28    45    46   ar
    29    46    47   ar
    30    47    48   ar
    31    48    49   ar
    32    49    50   ar
    33    50    51   ar
    34    31    32    1
    35    32    33    2
    36    32    34   am
    37    34    36    1
    38    36    37   ar
    39    37    38   ar
    40    38    39   ar
    41    39    40   ar
    42    40    41   ar
    43     4     5   ar
    44     5     6    1
    45     5     7   ar
    46    11    12    1
    47    12    13    1
    48    20    14   ar
    49    13     8    1
    50     7     1   ar
    51    51    43   ar
    52    41    36   ar
    53    51    46   ar
    54    23    24    1
    55    29    30    1
    56    45    52    1
    57    34    35    1
@<TRIPOS>MOLECULE
*****
 52 57 0 0 0
SMALL
GASTEIGER

@<TRIPOS>ATOM
      1 C           6.5505   75.0357   22.8583 C.ar    1  UNL1        0.0502
      2 C           7.7463   75.3168   22.1823 C.ar    1  UNL1        0.0148
      3 C           8.9375   75.4825   22.8918 C.ar    1  UNL1        0.0080
      4 C           8.9541   75.3853   24.2931 C.ar    1  UNL1        0.0808
      5 C           7.7587   75.0786   24.9714 C.ar    1  UNL1        0.1457
      6 F           7.7443   74.8945   26.3157 F       1  UNL1       -0.2040
      7 C           6.5685   74.9090   24.2567 C.ar    1  UNL1        0.0443
      8 N           3.1660   74.9567   20.3887 N.pl3   1  UNL1       -0.3017
      9 C           3.2856   76.0224   21.3887 C.3     1  UNL1        0.1123
     10 C           4.0948   75.5180   22.5837 C.3     1  UNL1        0.1122
     11 N           5.3262   74.8651   22.1199 N.pl3   1  UNL1       -0.3040
     12 C           5.2066   73.8046   21.1110 C.3     1  UNL1        0.1122
     13 C           4.3930   74.3070   19.9175 C.3     1  UNL1        0.1123
     14 C           1.2429   75.5649   18.9577 C.ar    1  UNL1        0.1521
     15 C          -0.0065   75.2290   18.4028 C.ar    1  UNL1        0.0455
     16 C          -0.6044   73.9793   18.6543 C.ar    1  UNL1        0.0891
     17 C           0.0674   73.0604   19.4941 C.ar    1  UNL1        0.0653
     18 CL         -0.6141   71.4999   19.9456 Cl      1  UNL1       -0.0820
     19 C           1.3061   73.3982   20.0472 C.ar    1  UNL1        0.0292
     20 C           1.8968   74.6406   19.7899 C.ar    1  UNL1        0.0832
     21 C          -1.9149   73.6734   18.0249 C.2     1  UNL1        0.3390
     22 O          -1.9660   73.3162   16.8165 O.2     1  UNL1       -0.2451
     23 O          -3.0967   73.7429   18.7562 O.3     1  UNL1       -0.4771
     24 H          -3.9883   73.5244   18.3277 H       1  UNL1        0.2954
     25 C           2.9132   76.9839   17.7432 C.3     1  UNL1        0.2525
     26 O           1.8674   76.7943   18.6905 O.3     1  UNL1       -0.4702
     27 C          10.2265   75.5940   25.0180 C.2     1  UNL1        0.2483
     28 O          11.2993   75.1993   24.4857 O.2     1  UNL1       -0.2701
     29 N          10.2519   76.2801   26.2866 N.am    1  UNL1       -0.2945
     30 H           9.3497   76.6515   26.6593 H       1  UNL1        0.1501
     31 C          11.4677   76.7300   26.9871 C.3     1  UNL1        0.1535
     32 C          12.3172   77.6722   26.1502 C.2     1  UNL1        0.2443
     33 O          11.8301   78.7694   25.7632 O.2     1  UNL1       -0.2730
     34 N          13.6336   77.2838   25.7150 N.am    1  UNL1       -0.2825
     35 H          14.0515   76.4044   26.0882 H       1  UNL1        0.1549
     36 C          14.4814   78.1098   24.9002 C.ar    1  UNL1        0.0535
     37 C          14.7807   79.4130   25.3193 C.ar    1  UNL1        0.0353
     38 C          15.6226   80.2126   24.5425 C.ar    1  UNL1        0.1002
     39 N          16.1625   79.7212   23.3959 N.ar    1  UNL1       -0.2422
     40 C          15.9079   78.4539   22.9752 C.ar    1  UNL1        0.1002
     41 C          15.0700   77.6216   23.7218 C.ar    1  UNL1        0.0353
     42 C          11.1229   77.2407   28.4076 C.3     1  UNL1        0.0569
     43 C           9.7502   76.8591   28.8860 C.ar    1  UNL1       -0.0017
     44 C           9.3662   75.6359   29.4292 C.ar    1  UNL1        0.0681
     45 N           8.0584   75.6614   29.7729 N.ar    1  UNL1       -0.3523
     46 C           7.6121   76.8878   29.4510 C.ar    1  UNL1        0.0563
     47 C           6.3270   77.3948   29.6387 C.ar    1  UNL1        0.0170
     48 C           6.0795   78.7227   29.2456 C.ar    1  UNL1        0.0015
     49 C           7.1104   79.5057   28.6808 C.ar    1  UNL1        0.0001
     50 C           8.3981   78.9683   28.5044 C.ar    1  UNL1        0.0012
     51 C           8.6136   77.6475   28.9024 C.ar    1  UNL1        0.0131
     52 H           7.5117   74.8852   30.2076 H       1  UNL1        0.1660
@<TRIPOS>BOND
     1    25    26    1
     2    26    14    1
     3    14    15   ar
     4    15    16   ar
     5    16    21    1
     6    21    22    2
     7    21    23    1
     8    16    17   ar
     9    17    18    1
    10    17    19   ar
    11    19    20   ar
    12    20     8    1
    13     8     9    1
    14     9    10    1
    15    10    11    1
    16    11     1    1
    17     1     2   ar
    18     2     3   ar
    19     3     4   ar
    20     4    27    1
    21    27    28    2
    22    27    29   am
    23    29    31    1
    24    31    42    1
    25    42    43    1
    26    43    44   ar
    27    44    45   ar
    28    45    46   ar
    29    46    47   ar
    30    47    48   ar
    31    48    49   ar
    32    49    50   ar
    33    50    51   ar
    34    31    32    1
    35    32    33    2
    36    32    34   am
    37    34    36    1
    38    36    37   ar
    39    37    38   ar
    40    38    39   ar
    41    39    40   ar
    42    40    41   ar
    43     4     5   ar
    44     5     6    1
    45     5     7   ar
    46    11    12    1
    47    12    13    1
    48    20    14   ar
    49    13     8    1
    50     7     1   ar
    51    51    43   ar
    52    41    36   ar
    53    51    46   ar
    54    23    24    1
    55    29    30    1
    56    45    52    1
    57    34    35    1
@<TRIPOS>MOLECULE
*****
 52 57 0 0 0
SMALL
GASTEIGER

@<TRIPOS>ATOM
      1 C          10.8158   79.7196   25.8685 C.ar    1  UNL1        0.0502
      2 C          10.4964   81.0824   25.7864 C.ar    1  UNL1        0.0148
      3 C          11.4382   82.0025   25.3213 C.ar    1  UNL1        0.0080
      4 C          12.7235   81.5803   24.9431 C.ar    1  UNL1        0.0808
      5 C          13.0375   80.2089   25.0016 C.ar    1  UNL1        0.1457
      6 F          14.2378   79.7466   24.5693 F       1  UNL1       -0.2040
      7 C          12.0899   79.2898   25.4638 C.ar    1  UNL1        0.0443
      8 N           7.7356   77.4074   27.5196 N.pl3   1  UNL1       -0.3017
      9 C           8.8369   77.8387   28.3863 C.3     1  UNL1        0.1123
     10 C          10.1133   77.9910   27.5588 C.3     1  UNL1        0.1122
     11 N           9.8392   78.7765   26.3481 N.pl3   1  UNL1       -0.3040
     12 C           8.7297   78.3497   25.4856 C.3     1  UNL1        0.1122
     13 C           7.4537   78.1924   26.3138 C.3     1  UNL1        0.1123
     14 C           6.9708   75.0684   27.2741 C.ar    1  UNL1        0.1521
     15 C           6.0982   74.0337   27.6610 C.ar    1  UNL1        0.0455
     16 C           5.1406   74.2277   28.6748 C.ar    1  UNL1        0.0891
     17 C           5.0552   75.4954   29.2965 C.ar    1  UNL1        0.0653
     18 CL          3.8483   75.8833   30.5199 Cl      1  UNL1       -0.0820
     19 C           5.9201   76.5224   28.9074 C.ar    1  UNL1        0.0292
     20 C           6.8726   76.3218   27.9018 C.ar    1  UNL1        0.0832
     21 C           4.2604   73.0926   29.0544 C.2     1  UNL1        0.3390
     22 O           4.3820   71.9791   28.4748 O.2     1  UNL1       -0.2451
     23 O           3.3160   73.2236   30.0680 O.3     1  UNL1       -0.4771
     24 H           2.7236   72.4453   30.3319 H       1  UNL1        0.2954
     25 C           7.6851   74.5485   24.9292 C.3     1  UNL1        0.2525
     26 O           7.9528   74.8812   26.2874 O.3     1  UNL1       -0.4702
     27 C          13.7079   82.5832   24.4814 C.2     1  UNL1        0.2483
     28 O          14.9191   82.2453   24.3874 O.2     1  UNL1       -0.2701
     29 N          13.2893   83.9089   24.0965 N.am    1  UNL1       -0.2945
     30 H          12.2681   84.1260   24.1239 H       1  UNL1        0.1501
     31 C          14.1387   84.9088   23.4257 C.3     1  UNL1        0.1535
     32 C          14.6323   84.4469   22.0645 C.2     1  UNL1        0.2443
     33 O          15.6515   83.7075   21.9916 O.2     1  UNL1       -0.2730
     34 N          14.0085   84.9218   20.8569 N.am    1  UNL1       -0.2825
     35 H          13.1318   85.4822   20.9262 H       1  UNL1        0.1549
     36 C          14.4379   84.5504   19.5368 C.ar    1  UNL1        0.0535
     37 C          13.4790   84.2470   18.5612 C.ar    1  UNL1        0.0353
     38 C          13.8902   83.9074   17.2701 C.ar    1  UNL1        0.1002
     39 N          15.2131   83.8897   16.9585 N.ar    1  UNL1       -0.2422
     40 C          16.1652   84.2003   17.8776 C.ar    1  UNL1        0.1002
     41 C          15.7969   84.5440   19.1808 C.ar    1  UNL1        0.0353
     42 C          13.4614   86.3012   23.4427 C.3     1  UNL1        0.0569
     43 C          13.9627   87.2459   22.3866 C.ar    1  UNL1       -0.0017
     44 C          15.2414   87.7889   22.2921 C.ar    1  UNL1        0.0681
     45 N          15.3404   88.5762   21.1969 N.ar    1  UNL1       -0.3523
     46 C          14.1369   88.5370   20.5995 C.ar    1  UNL1        0.0563
     47 C          13.7586   89.1768   19.4199 C.ar    1  UNL1        0.0170
     48 C          12.4442   88.9818   18.9578 C.ar    1  UNL1        0.0015
     49 C          11.5477   88.1604   19.6762 C.ar    1  UNL1        0.0001
     50 C          11.9572   87.5262   20.8629 C.ar    1  UNL1        0.0012
     51 C          13.2667   87.7395   21.2977 C.ar    1  UNL1        0.0131
     52 H          16.1856   89.1005   20.8790 H       1  UNL1        0.1660
@<TRIPOS>BOND
     1    25    26    1
     2    26    14    1
     3    14    15   ar
     4    15    16   ar
     5    16    21    1
     6    21    22    2
     7    21    23    1
     8    16    17   ar
     9    17    18    1
    10    17    19   ar
    11    19    20   ar
    12    20     8    1
    13     8     9    1
    14     9    10    1
    15    10    11    1
    16    11     1    1
    17     1     2   ar
    18     2     3   ar
    19     3     4   ar
    20     4    27    1
    21    27    28    2
    22    27    29   am
    23    29    31    1
    24    31    42    1
    25    42    43    1
    26    43    44   ar
    27    44    45   ar
    28    45    46   ar
    29    46    47   ar
    30    47    48   ar
    31    48    49   ar
    32    49    50   ar
    33    50    51   ar
    34    31    32    1
    35    32    33    2
    36    32    34   am
    37    34    36    1
    38    36    37   ar
    39    37    38   ar
    40    38    39   ar
    41    39    40   ar
    42    40    41   ar
    43     4     5   ar
    44     5     6    1
    45     5     7   ar
    46    11    12    1
    47    12    13    1
    48    20    14   ar
    49    13     8    1
    50     7     1   ar
    51    51    43   ar
    52    41    36   ar
    53    51    46   ar
    54    23    24    1
    55    29    30    1
    56    45    52    1
    57    34    35    1
@<TRIPOS>MOLECULE
*****
 52 57 0 0 0
SMALL
GASTEIGER

@<TRIPOS>ATOM
      1 C          11.2629   79.4348   25.2778 C.ar    1  UNL1        0.0502
      2 C          11.9634   78.2363   25.4750 C.ar    1  UNL1        0.0148
      3 C          11.2779   77.0586   25.7800 C.ar    1  UNL1        0.0080
      4 C           9.8791   77.0588   25.9088 C.ar    1  UNL1        0.0808
      5 C           9.1722   78.2563   25.6867 C.ar    1  UNL1        0.1457
      6 F           7.8160   78.2849   25.7198 F       1  UNL1       -0.2040
      7 C           9.8622   79.4329   25.3769 C.ar    1  UNL1        0.0443
      8 N          13.3019   83.0763   24.9017 N.pl3   1  UNL1       -0.3017
      9 C          11.8448   83.0966   25.0649 C.3     1  UNL1        0.1123
     10 C          11.2434   81.8209   24.4750 C.3     1  UNL1        0.1122
     11 N          11.9764   80.6450   24.9625 N.pl3   1  UNL1       -0.3040
     12 C          13.4368   80.6297   24.8076 C.3     1  UNL1        0.1122
     13 C          14.0386   81.9079   25.3932 C.3     1  UNL1        0.1123
     14 C          14.3898   85.2709   25.2428 C.ar    1  UNL1        0.1521
     15 C          15.0628   86.3844   24.7053 C.ar    1  UNL1        0.0455
     16 C          15.3718   86.4579   23.3336 C.ar    1  UNL1        0.0891
     17 C          14.9793   85.3928   22.4897 C.ar    1  UNL1        0.0653
     18 CL         15.2389   85.4053   20.7473 Cl      1  UNL1       -0.0820
     19 C          14.3074   84.2901   23.0254 C.ar    1  UNL1        0.0292
     20 C          14.0068   84.2214   24.3905 C.ar    1  UNL1        0.0832
     21 C          16.1013   87.6491   22.8274 C.2     1  UNL1        0.3390
     22 O          15.5844   88.7950   22.9282 O.2     1  UNL1       -0.2451
     23 O          17.3695   87.5302   22.2670 O.3     1  UNL1       -0.4771
     24 H          17.8693   88.3450   21.9314 H       1  UNL1        0.2954
     25 C          14.3774   86.1784   27.5784 C.3     1  UNL1        0.2525
     26 O          14.1030   85.1677   26.6140 O.3     1  UNL1       -0.4702
     27 C           9.1846   75.8011   26.2606 C.2     1  UNL1        0.2483
     28 O           9.6266   75.1122   27.2198 O.2     1  UNL1       -0.2701
     29 N           7.9944   75.3906   25.5563 N.am    1  UNL1       -0.2945
     30 H           7.6226   76.0247   24.8144 H       1  UNL1        0.1501
     31 C           7.1077   74.2837   25.9560 C.3     1  UNL1        0.1535
     32 C           6.4071   74.5368   27.2808 C.2     1  UNL1        0.2443
     33 O           5.9264   73.5647   27.9248 O.2     1  UNL1       -0.2730
     34 N           6.2024   75.8794   27.7588 N.am    1  UNL1       -0.2825
     35 H           6.6544   76.6716   27.2532 H       1  UNL1        0.1549
     36 C           5.5254   76.1957   28.9862 C.ar    1  UNL1        0.0535
     37 C           6.1740   75.9702   30.2076 C.ar    1  UNL1        0.0353
     38 C           5.5294   76.2969   31.4031 C.ar    1  UNL1        0.1002
     39 N           4.2869   76.8474   31.3793 N.ar    1  UNL1       -0.2422
     40 C           3.6415   77.0977   30.2094 C.ar    1  UNL1        0.1002
     41 C           4.2500   76.7847   28.9913 C.ar    1  UNL1        0.0353
     42 C           6.1776   73.8786   24.7863 C.3     1  UNL1        0.0569
     43 C           5.6970   75.0315   23.9503 C.ar    1  UNL1       -0.0017
     44 C           6.1563   75.3943   22.6869 C.ar    1  UNL1        0.0681
     45 N           5.4742   76.4676   22.2265 N.ar    1  UNL1       -0.3523
     46 C           4.5897   76.7872   23.1869 C.ar    1  UNL1        0.0563
     47 C           3.6479   77.8148   23.1593 C.ar    1  UNL1        0.0170
     48 C           2.7999   77.9605   24.2723 C.ar    1  UNL1        0.0015
     49 C           2.9102   77.0852   25.3752 C.ar    1  UNL1        0.0001
     50 C           3.8690   76.0563   25.3752 C.ar    1  UNL1        0.0012
     51 C           4.6975   75.9371   24.2578 C.ar    1  UNL1        0.0131
     52 H           5.6060   76.9438   21.3067 H       1  UNL1        0.1660
@<TRIPOS>BOND
     1    25    26    1
     2    26    14    1
     3    14    15   ar
     4    15    16   ar
     5    16    21    1
     6    21    22    2
     7    21    23    1
     8    16    17   ar
     9    17    18    1
    10    17    19   ar
    11    19    20   ar
    12    20     8    1
    13     8     9    1
    14     9    10    1
    15    10    11    1
    16    11     1    1
    17     1     2   ar
    18     2     3   ar
    19     3     4   ar
    20     4    27    1
    21    27    28    2
    22    27    29   am
    23    29    31    1
    24    31    42    1
    25    42    43    1
    26    43    44   ar
    27    44    45   ar
    28    45    46   ar
    29    46    47   ar
    30    47    48   ar
    31    48    49   ar
    32    49    50   ar
    33    50    51   ar
    34    31    32    1
    35    32    33    2
    36    32    34   am
    37    34    36    1
    38    36    37   ar
    39    37    38   ar
    40    38    39   ar
    41    39    40   ar
    42    40    41   ar
    43     4     5   ar
    44     5     6    1
    45     5     7   ar
    46    11    12    1
    47    12    13    1
    48    20    14   ar
    49    13     8    1
    50     7     1   ar
    51    51    43   ar
    52    41    36   ar
    53    51    46   ar
    54    23    24    1
    55    29    30    1
    56    45    52    1
    57    34    35    1
