@<TRIPOS>MOLECULE
*****
 24 27 0 0 0
SMALL
GASTEIGER

@<TRIPOS>ATOM
      1 C          48.3862   13.6708  -22.8092 C.3     1  UNL1        0.1420
      2 O          49.6554   13.4934  -22.2262 O.3     1  UNL1       -0.3753
      3 C          47.9988   15.1739  -22.7815 C.3     1  UNL1        0.0395
      4 C          47.3099   15.4916  -24.1230 C.3     1  UNL1        0.0036
      5 C          47.1540   14.1370  -24.8041 C.3     1  UNL1        0.0035
      6 C          46.9683   14.0867  -26.3338 C.3     1  UNL1        0.0045
      7 C          45.7758   14.9327  -26.7980 C.3     1  UNL1        0.0050
      8 C          45.7292   14.9712  -28.3275 C.3     1  UNL1        0.0261
      9 C          45.9414   13.6194  -28.9739 C.ar    1  UNL1       -0.0231
     10 C          45.6585   13.4997  -30.3444 C.ar    1  UNL1        0.0320
     11 C          45.8611   12.2928  -31.0129 C.ar    1  UNL1        0.1333
     12 O          45.5677   12.2010  -32.3717 O.3     1  UNL1       -0.5055
     13 C          46.3510   11.1884  -30.3139 C.ar    1  UNL1        0.0363
     14 C          46.6484   11.2906  -28.9541 C.ar    1  UNL1       -0.0015
     15 C          46.4878   12.5129  -28.2654 C.ar    1  UNL1       -0.0263
     16 C          46.7253   12.6071  -26.7564 C.3     1  UNL1        0.0220
     17 C          47.8534   11.6687  -26.2267 C.3     1  UNL1        0.0045
     18 C          48.1247   11.8386  -24.7101 C.3     1  UNL1        0.0035
     19 C          48.3700   13.3228  -24.3331 C.3     1  UNL1        0.0333
     20 C          49.7197   13.7951  -24.9738 C.3     1  UNL1        0.0033
     21 H          49.8884   12.5310  -22.3089 H       1  UNL1        0.2114
     22 H          45.7026   11.3381  -32.8857 H       1  UNL1        0.2922
     23 C          46.5773   12.2735  -21.3895 C.1     1  UNL1       -0.0119
     24 C          47.3872   12.8995  -22.0269 C.1     1  UNL1       -0.0526
@<TRIPOS>BOND
     1    23    24    3
     2     1    24    1
     3     1     2    1
     4     1     3    1
     5     3     4    1
     6     4     5    1
     7     5     6    1
     8     6     7    1
     9     7     8    1
    10     8     9    1
    11     9    10   ar
    12    10    11   ar
    13    11    12    1
    14    11    13   ar
    15    13    14   ar
    16    14    15   ar
    17    15    16    1
    18    16    17    1
    19    17    18    1
    20    18    19    1
    21    19    20    1
    22    19     1    1
    23    19     5    1
    24    16     6    1
    25    15     9   ar
    26     2    21    1
    27    12    22    1
@<TRIPOS>MOLECULE
*****
 24 27 0 0 0
SMALL
GASTEIGER

@<TRIPOS>ATOM
      1 C          51.6263   11.8575  -24.4469 C.3     1  UNL1        0.1420
      2 O          51.4014   11.5183  -23.0991 O.3     1  UNL1       -0.3753
      3 C          53.1265   12.1937  -24.6626 C.3     1  UNL1        0.0395
      4 C          53.5394   11.5860  -26.0174 C.3     1  UNL1        0.0036
      5 C          52.2354   11.0822  -26.6249 C.3     1  UNL1        0.0035
      6 C          52.2906    9.9970  -27.7186 C.3     1  UNL1        0.0045
      7 C          53.1739   10.4147  -28.9011 C.3     1  UNL1        0.0050
      8 C          53.3169    9.2478  -29.8814 C.3     1  UNL1        0.0261
      9 C          52.0109    8.5432  -30.1785 C.ar    1  UNL1       -0.0231
     10 C          51.9868    7.6395  -31.2533 C.ar    1  UNL1        0.0320
     11 C          50.8270    6.9307  -31.5647 C.ar    1  UNL1        0.1333
     12 O          50.8298    6.0440  -32.6392 O.3     1  UNL1       -0.5055
     13 C          49.6743    7.1197  -30.8004 C.ar    1  UNL1        0.0363
     14 C          49.6817    8.0051  -29.7217 C.ar    1  UNL1       -0.0015
     15 C          50.8553    8.7045  -29.3641 C.ar    1  UNL1       -0.0263
     16 C          50.8448    9.7435  -28.2405 C.3     1  UNL1        0.0220
     17 C          49.8653    9.4125  -27.0723 C.3     1  UNL1        0.0045
     18 C          49.9296   10.4404  -25.9139 C.3     1  UNL1        0.0035
     19 C          51.3831   10.6570  -25.4181 C.3     1  UNL1        0.0333
     20 C          51.8893    9.3419  -24.7329 C.3     1  UNL1        0.0033
     21 H          50.4454   11.2615  -23.0129 H       1  UNL1        0.2114
     22 H          50.0032    5.5151  -32.8920 H       1  UNL1        0.2922
     23 C          50.1490   14.0222  -25.0563 C.1     1  UNL1       -0.0119
     24 C          50.8100   13.0512  -24.7836 C.1     1  UNL1       -0.0526
@<TRIPOS>BOND
     1    23    24    3
     2     1    24    1
     3     1     2    1
     4     1     3    1
     5     3     4    1
     6     4     5    1
     7     5     6    1
     8     6     7    1
     9     7     8    1
    10     8     9    1
    11     9    10   ar
    12    10    11   ar
    13    11    12    1
    14    11    13   ar
    15    13    14   ar
    16    14    15   ar
    17    15    16    1
    18    16    17    1
    19    17    18    1
    20    18    19    1
    21    19    20    1
    22    19     1    1
    23    19     5    1
    24    16     6    1
    25    15     9   ar
    26     2    21    1
    27    12    22    1
@<TRIPOS>MOLECULE
*****
 24 27 0 0 0
SMALL
GASTEIGER

@<TRIPOS>ATOM
      1 C          49.8417   11.0892  -22.9149 C.3     1  UNL1        0.1420
      2 O          50.2056   10.8607  -21.5741 O.3     1  UNL1       -0.3753
      3 C          48.3581   10.6879  -23.1342 C.3     1  UNL1        0.0395
      4 C          47.7317   11.7480  -24.0610 C.3     1  UNL1        0.0036
      5 C          48.9048   12.6186  -24.4955 C.3     1  UNL1        0.0035
      6 C          48.6264   14.0447  -25.0112 C.3     1  UNL1        0.0045
      7 C          47.6384   14.0508  -26.1846 C.3     1  UNL1        0.0050
      8 C          47.2809   15.4920  -26.5563 C.3     1  UNL1        0.0261
      9 C          48.4788   16.4143  -26.6255 C.ar    1  UNL1       -0.0231
     10 C          48.2958   17.6791  -27.2081 C.ar    1  UNL1        0.0320
     11 C          49.3470   18.5927  -27.2768 C.ar    1  UNL1        0.1333
     12 O          49.1387   19.8386  -27.8644 O.3     1  UNL1       -0.5055
     13 C          50.5976   18.2488  -26.7610 C.ar    1  UNL1        0.0363
     14 C          50.7962   17.0010  -26.1684 C.ar    1  UNL1       -0.0015
     15 C          49.7364   16.0748  -26.0529 C.ar    1  UNL1       -0.0263
     16 C          49.9706   14.6722  -25.4870 C.3     1  UNL1        0.0220
     17 C          51.0589   14.6062  -24.3712 C.3     1  UNL1        0.0045
     18 C          51.2225   13.1898  -23.7632 C.3     1  UNL1        0.0035
     19 C          49.8646   12.6054  -23.2945 C.3     1  UNL1        0.0333
     20 C          49.3443   13.4398  -22.0746 C.3     1  UNL1        0.0033
     21 H          51.1412   11.1761  -21.4623 H       1  UNL1        0.2114
     22 H          49.8822   20.5240  -27.9311 H       1  UNL1        0.2922
     23 C          51.4012    9.5802  -24.5058 C.1     1  UNL1       -0.0119
     24 C          50.7025   10.2576  -23.7937 C.1     1  UNL1       -0.0526
@<TRIPOS>BOND
     1    23    24    3
     2     1    24    1
     3     1     2    1
     4     1     3    1
     5     3     4    1
     6     4     5    1
     7     5     6    1
     8     6     7    1
     9     7     8    1
    10     8     9    1
    11     9    10   ar
    12    10    11   ar
    13    11    12    1
    14    11    13   ar
    15    13    14   ar
    16    14    15   ar
    17    15    16    1
    18    16    17    1
    19    17    18    1
    20    18    19    1
    21    19    20    1
    22    19     1    1
    23    19     5    1
    24    16     6    1
    25    15     9   ar
    26     2    21    1
    27    12    22    1
@<TRIPOS>MOLECULE
*****
 24 27 0 0 0
SMALL
GASTEIGER

@<TRIPOS>ATOM
      1 C          51.2700   10.3924  -26.6465 C.3     1  UNL1        0.1420
      2 O          51.9500   11.3251  -27.4526 O.3     1  UNL1       -0.3753
      3 C          52.2927    9.4670  -25.9340 C.3     1  UNL1        0.0395
      4 C          51.7821    9.2449  -24.4969 C.3     1  UNL1        0.0036
      5 C          50.4007    9.8888  -24.4772 C.3     1  UNL1        0.0035
      6 C          49.7893   10.3046  -23.1243 C.3     1  UNL1        0.0045
      7 C          49.7231    9.1325  -22.1369 C.3     1  UNL1        0.0050
      8 C          49.2535    9.6312  -20.7680 C.3     1  UNL1        0.0261
      9 C          48.0710   10.5730  -20.8399 C.ar    1  UNL1       -0.0231
     10 C          47.4044   10.8760  -19.6414 C.ar    1  UNL1        0.0320
     11 C          46.3269   11.7611  -19.6275 C.ar    1  UNL1        0.1333
     12 O          45.6809   12.0402  -18.4250 O.3     1  UNL1       -0.5055
     13 C          45.9035   12.3546  -20.8178 C.ar    1  UNL1        0.0363
     14 C          46.5600   12.0746  -22.0170 C.ar    1  UNL1       -0.0015
     15 C          47.6775   11.2117  -22.0490 C.ar    1  UNL1       -0.0263
     16 C          48.3440   10.8302  -23.3728 C.3     1  UNL1        0.0220
     17 C          48.3236   11.9602  -24.4481 C.3     1  UNL1        0.0045
     18 C          49.0704   11.5748  -25.7506 C.3     1  UNL1        0.0035
     19 C          50.5064   11.0659  -25.4604 C.3     1  UNL1        0.0333
     20 C          51.3682   12.2554  -24.9148 C.3     1  UNL1        0.0033
     21 H          51.2674   11.9285  -27.8493 H       1  UNL1        0.2114
     22 H          44.8943   12.6775  -18.3816 H       1  UNL1        0.2922
     23 C          49.6753    8.8927  -28.2111 C.1     1  UNL1       -0.0119
     24 C          50.3888    9.5654  -27.5093 C.1     1  UNL1       -0.0526
@<TRIPOS>BOND
     1    23    24    3
     2     1    24    1
     3     1     2    1
     4     1     3    1
     5     3     4    1
     6     4     5    1
     7     5     6    1
     8     6     7    1
     9     7     8    1
    10     8     9    1
    11     9    10   ar
    12    10    11   ar
    13    11    12    1
    14    11    13   ar
    15    13    14   ar
    16    14    15   ar
    17    15    16    1
    18    16    17    1
    19    17    18    1
    20    18    19    1
    21    19    20    1
    22    19     1    1
    23    19     5    1
    24    16     6    1
    25    15     9   ar
    26     2    21    1
    27    12    22    1
@<TRIPOS>MOLECULE
*****
 24 27 0 0 0
SMALL
GASTEIGER

@<TRIPOS>ATOM
      1 C          47.4634   16.3533  -24.7557 C.3     1  UNL1        0.1420
      2 O          48.2439   17.1107  -25.6497 O.3     1  UNL1       -0.3753
      3 C          46.4053   15.5344  -25.5432 C.3     1  UNL1        0.0395
      4 C          46.3178   14.1459  -24.8799 C.3     1  UNL1        0.0036
      5 C          47.1817   14.2632  -23.6297 C.3     1  UNL1        0.0035
      6 C          47.7369   12.9791  -22.9818 C.3     1  UNL1        0.0045
      7 C          46.6247   11.9812  -22.6347 C.3     1  UNL1        0.0050
      8 C          47.2387   10.6697  -22.1386 C.3     1  UNL1        0.0261
      9 C          48.3603   10.8654  -21.1415 C.ar    1  UNL1       -0.0231
     10 C          48.8084    9.7380  -20.4339 C.ar    1  UNL1        0.0320
     11 C          49.8595    9.8378  -19.5229 C.ar    1  UNL1        0.1333
     12 O          50.2807    8.7042  -18.8312 O.3     1  UNL1       -0.5055
     13 C          50.4757   11.0720  -19.3097 C.ar    1  UNL1        0.0363
     14 C          50.0519   12.2015  -20.0114 C.ar    1  UNL1       -0.0015
     15 C          49.0155   12.1164  -20.9669 C.ar    1  UNL1       -0.0263
     16 C          48.4859   13.3672  -21.6721 C.3     1  UNL1        0.0220
     17 C          49.5679   14.4599  -21.9347 C.3     1  UNL1        0.0045
     18 C          49.0220   15.6820  -22.7163 C.3     1  UNL1        0.0035
     19 C          48.2923   15.2536  -24.0160 C.3     1  UNL1        0.0333
     20 C          49.3400   14.6531  -25.0146 C.3     1  UNL1        0.0033
     21 H          48.9386   17.5784  -25.1149 H       1  UNL1        0.2114
     22 H          51.0405    8.7437  -18.1618 H       1  UNL1        0.2922
     23 C          46.1977   18.0265  -23.0711 C.1     1  UNL1       -0.0119
     24 C          46.7658   17.2777  -23.8264 C.1     1  UNL1       -0.0526
@<TRIPOS>BOND
     1    23    24    3
     2     1    24    1
     3     1     2    1
     4     1     3    1
     5     3     4    1
     6     4     5    1
     7     5     6    1
     8     6     7    1
     9     7     8    1
    10     8     9    1
    11     9    10   ar
    12    10    11   ar
    13    11    12    1
    14    11    13   ar
    15    13    14   ar
    16    14    15   ar
    17    15    16    1
    18    16    17    1
    19    17    18    1
    20    18    19    1
    21    19    20    1
    22    19     1    1
    23    19     5    1
    24    16     6    1
    25    15     9   ar
    26     2    21    1
    27    12    22    1
@<TRIPOS>MOLECULE
*****
 24 27 0 0 0
SMALL
GASTEIGER

@<TRIPOS>ATOM
      1 C          47.1740   13.2599  -23.2768 C.3     1  UNL1        0.1420
      2 O          46.3085   13.6092  -22.2227 O.3     1  UNL1       -0.3753
      3 C          47.6694   11.8005  -23.0903 C.3     1  UNL1        0.0395
      4 C          47.6854   11.1432  -24.4843 C.3     1  UNL1        0.0036
      5 C          47.3802   12.2830  -25.4490 C.3     1  UNL1        0.0035
      6 C          46.8310   11.9492  -26.8504 C.3     1  UNL1        0.0045
      7 C          47.7466   10.9836  -27.6135 C.3     1  UNL1        0.0050
      8 C          47.0832   10.5673  -28.9287 C.3     1  UNL1        0.0261
      9 C          46.4699   11.7229  -29.6897 C.ar    1  UNL1       -0.0231
     10 C          46.0736   11.4929  -31.0173 C.ar    1  UNL1        0.0320
     11 C          45.4721   12.5023  -31.7682 C.ar    1  UNL1        0.1333
     12 O          45.0930   12.2480  -33.0845 O.3     1  UNL1       -0.5055
     13 C          45.2602   13.7577  -31.1960 C.ar    1  UNL1        0.0363
     14 C          45.6372   14.0023  -29.8747 C.ar    1  UNL1       -0.0015
     15 C          46.2124   12.9840  -29.0831 C.ar    1  UNL1       -0.0263
     16 C          46.7105   13.2717  -27.6649 C.3     1  UNL1        0.0220
     17 C          45.8733   14.3413  -26.8976 C.3     1  UNL1        0.0045
     18 C          46.3523   14.5584  -25.4395 C.3     1  UNL1        0.0035
     19 C          46.4500   13.2203  -24.6617 C.3     1  UNL1        0.0333
     20 C          45.0082   12.6402  -24.4620 C.3     1  UNL1        0.0033
     21 H          45.9744   14.5272  -22.4043 H       1  UNL1        0.2114
     22 H          44.6551   12.9604  -33.6568 H       1  UNL1        0.2922
     23 C          49.2941   14.9163  -23.2477 C.1     1  UNL1       -0.0119
     24 C          48.3442   14.1737  -23.2593 C.1     1  UNL1       -0.0526
@<TRIPOS>BOND
     1    23    24    3
     2     1    24    1
     3     1     2    1
     4     1     3    1
     5     3     4    1
     6     4     5    1
     7     5     6    1
     8     6     7    1
     9     7     8    1
    10     8     9    1
    11     9    10   ar
    12    10    11   ar
    13    11    12    1
    14    11    13   ar
    15    13    14   ar
    16    14    15   ar
    17    15    16    1
    18    16    17    1
    19    17    18    1
    20    18    19    1
    21    19    20    1
    22    19     1    1
    23    19     5    1
    24    16     6    1
    25    15     9   ar
    26     2    21    1
    27    12    22    1
@<TRIPOS>MOLECULE
*****
 24 27 0 0 0
SMALL
GASTEIGER

@<TRIPOS>ATOM
      1 C          46.3869   14.8644  -26.9611 C.3     1  UNL1        0.1420
      2 O          45.3204   15.7830  -26.9914 O.3     1  UNL1       -0.3753
      3 C          47.7347   15.6160  -27.1309 C.3     1  UNL1        0.0395
      4 C          48.7470   14.9582  -26.1728 C.3     1  UNL1        0.0036
      5 C          48.0156   13.7410  -25.6191 C.3     1  UNL1        0.0035
      6 C          48.4937   13.1223  -24.2904 C.3     1  UNL1        0.0045
      7 C          49.9785   12.7392  -24.3341 C.3     1  UNL1        0.0050
      8 C          50.4369   12.2746  -22.9495 C.3     1  UNL1        0.0261
      9 C          49.4716   11.3198  -22.2810 C.ar    1  UNL1       -0.0231
     10 C          49.9165   10.6364  -21.1375 C.ar    1  UNL1        0.0320
     11 C          49.0705    9.7655  -20.4516 C.ar    1  UNL1        0.1333
     12 O          49.5394    9.0971  -19.3227 O.3     1  UNL1       -0.5055
     13 C          47.7651    9.5685  -20.9048 C.ar    1  UNL1        0.0363
     14 C          47.3012   10.2469  -22.0328 C.ar    1  UNL1       -0.0015
     15 C          48.1274   11.1628  -22.7205 C.ar    1  UNL1       -0.0263
     16 C          47.6553   11.8398  -24.0092 C.3     1  UNL1        0.0220
     17 C          46.1244   12.1369  -24.0519 C.3     1  UNL1        0.0045
     18 C          45.6857   12.8899  -25.3338 C.3     1  UNL1        0.0035
     19 C          46.5381   14.1634  -25.5721 C.3     1  UNL1        0.0333
     20 C          46.2255   15.2046  -24.4437 C.3     1  UNL1        0.0033
     21 H          44.4837   15.2722  -26.8290 H       1  UNL1        0.2114
     22 H          48.9503    8.4568  -18.8032 H       1  UNL1        0.2922
     23 C          46.0917   13.1257  -28.9932 C.1     1  UNL1       -0.0119
     24 C          46.2244   13.9038  -28.0816 C.1     1  UNL1       -0.0526
@<TRIPOS>BOND
     1    23    24    3
     2     1    24    1
     3     1     2    1
     4     1     3    1
     5     3     4    1
     6     4     5    1
     7     5     6    1
     8     6     7    1
     9     7     8    1
    10     8     9    1
    11     9    10   ar
    12    10    11   ar
    13    11    12    1
    14    11    13   ar
    15    13    14   ar
    16    14    15   ar
    17    15    16    1
    18    16    17    1
    19    17    18    1
    20    18    19    1
    21    19    20    1
    22    19     1    1
    23    19     5    1
    24    16     6    1
    25    15     9   ar
    26     2    21    1
    27    12    22    1
@<TRIPOS>MOLECULE
*****
 24 27 0 0 0
SMALL
GASTEIGER

@<TRIPOS>ATOM
      1 C          49.4512   10.4510  -21.8088 C.3     1  UNL1        0.1420
      2 O          50.4567   10.6885  -20.8524 O.3     1  UNL1       -0.3753
      3 C          48.1218   10.0844  -21.0959 C.3     1  UNL1        0.0395
      4 C          46.9843   10.7845  -21.8649 C.3     1  UNL1        0.0036
      5 C          47.6615   11.3775  -23.0949 C.3     1  UNL1        0.0035
      6 C          46.9776   12.5442  -23.8351 C.3     1  UNL1        0.0045
      7 C          45.5481   12.1938  -24.2676 C.3     1  UNL1        0.0050
      8 C          44.8654   13.4300  -24.8580 C.3     1  UNL1        0.0261
      9 C          45.7375   14.1983  -25.8274 C.ar    1  UNL1       -0.0231
     10 C          45.1238   15.1853  -26.6159 C.ar    1  UNL1        0.0320
     11 C          45.8713   15.9541  -27.5074 C.ar    1  UNL1        0.1333
     12 O          45.2360   16.9233  -28.2808 O.3     1  UNL1       -0.5055
     13 C          47.2464   15.7423  -27.6195 C.ar    1  UNL1        0.0363
     14 C          47.8761   14.7738  -26.8365 C.ar    1  UNL1       -0.0015
     15 C          47.1460   14.0102  -25.8994 C.ar    1  UNL1       -0.0263
     16 C          47.8137   12.8856  -25.1045 C.3     1  UNL1        0.0220
     17 C          49.3088   13.1540  -24.7491 C.3     1  UNL1        0.0045
     18 C          49.9385   12.0353  -23.8804 C.3     1  UNL1        0.0035
     19 C          49.0813   11.7325  -22.6239 C.3     1  UNL1        0.0333
     20 C          49.1259   12.9715  -21.6656 C.3     1  UNL1        0.0033
     21 H          51.2738   10.9686  -21.3436 H       1  UNL1        0.2114
     22 H          45.7505   17.4973  -28.9386 H       1  UNL1        0.2922
     23 C          50.2047    8.3912  -23.3674 C.1     1  UNL1       -0.0119
     24 C          49.8673    9.3152  -22.6700 C.1     1  UNL1       -0.0526
@<TRIPOS>BOND
     1    23    24    3
     2     1    24    1
     3     1     2    1
     4     1     3    1
     5     3     4    1
     6     4     5    1
     7     5     6    1
     8     6     7    1
     9     7     8    1
    10     8     9    1
    11     9    10   ar
    12    10    11   ar
    13    11    12    1
    14    11    13   ar
    15    13    14   ar
    16    14    15   ar
    17    15    16    1
    18    16    17    1
    19    17    18    1
    20    18    19    1
    21    19    20    1
    22    19     1    1
    23    19     5    1
    24    16     6    1
    25    15     9   ar
    26     2    21    1
    27    12    22    1
@<TRIPOS>MOLECULE
*****
 24 27 0 0 0
SMALL
GASTEIGER

@<TRIPOS>ATOM
      1 C          47.3438   12.0654  -22.5087 C.3     1  UNL1        0.1420
      2 O          46.1140   11.4022  -22.3357 O.3     1  UNL1       -0.3753
      3 C          48.3450   11.1358  -23.2459 C.3     1  UNL1        0.0395
      4 C          49.1257   12.0096  -24.2470 C.3     1  UNL1        0.0036
      5 C          48.6891   13.4357  -23.9327 C.3     1  UNL1        0.0035
      6 C          48.8599   14.5243  -25.0111 C.3     1  UNL1        0.0045
      7 C          50.3090   14.6250  -25.5042 C.3     1  UNL1        0.0050
      8 C          50.3931   15.6077  -26.6748 C.3     1  UNL1        0.0261
      9 C          49.6256   16.8915  -26.4438 C.ar    1  UNL1       -0.0231
     10 C          49.8512   17.9555  -27.3325 C.ar    1  UNL1        0.0320
     11 C          49.1556   19.1568  -27.1996 C.ar    1  UNL1        0.1333
     12 O          49.4025   20.1974  -28.0924 O.3     1  UNL1       -0.5055
     13 C          48.2232   19.3065  -26.1718 C.ar    1  UNL1        0.0363
     14 C          47.9772   18.2569  -25.2855 C.ar    1  UNL1       -0.0015
     15 C          48.6412   17.0183  -25.4242 C.ar    1  UNL1       -0.0263
     16 C          48.4431   15.8964  -24.4023 C.3     1  UNL1        0.0220
     17 C          47.0109   15.8373  -23.7869 C.3     1  UNL1        0.0045
     18 C          46.8151   14.6475  -22.8130 C.3     1  UNL1        0.0035
     19 C          47.2325   13.3011  -23.4597 C.3     1  UNL1        0.0333
     20 C          46.2328   12.9598  -24.6170 C.3     1  UNL1        0.0033
     21 H          45.4875   12.0444  -21.9087 H       1  UNL1        0.2114
     22 H          48.9149   21.0829  -28.0220 H       1  UNL1        0.2922
     23 C          48.3422   12.6849  -20.0881 C.1     1  UNL1       -0.0119
     24 C          47.8956   12.4083  -21.1735 C.1     1  UNL1       -0.0526
@<TRIPOS>BOND
     1    23    24    3
     2     1    24    1
     3     1     2    1
     4     1     3    1
     5     3     4    1
     6     4     5    1
     7     5     6    1
     8     6     7    1
     9     7     8    1
    10     8     9    1
    11     9    10   ar
    12    10    11   ar
    13    11    12    1
    14    11    13   ar
    15    13    14   ar
    16    14    15   ar
    17    15    16    1
    18    16    17    1
    19    17    18    1
    20    18    19    1
    21    19    20    1
    22    19     1    1
    23    19     5    1
    24    16     6    1
    25    15     9   ar
    26     2    21    1
    27    12    22    1
