@<TRIPOS>MOLECULE
*****
 38 42 0 0 0
SMALL
GASTEIGER

@<TRIPOS>ATOM
      1 C         -30.1274   50.4302   -9.5153 C.ar    1  UNL1        0.1316
      2 C         -31.1445   50.1832   -8.5756 C.ar    1  UNL1        0.0280
      3 C         -30.8798   50.2460   -7.1992 C.ar    1  UNL1        0.0664
      4 C         -29.5828   50.5569   -6.7400 C.ar    1  UNL1        0.2091
      5 N         -28.6166   50.7740   -7.6849 N.ar    1  UNL1       -0.1315
      6 C         -27.3031   51.0484   -7.5616 C.ar    1  UNL1        0.3133
      7 C         -26.7734   51.1510   -8.8410 C.ar    1  UNL1        0.1320
      8 N         -27.7482   50.9399   -9.7544 N.ar    1  UNL1       -0.2941
      9 C         -28.8515   50.7211   -9.0117 C.ar    1  UNL1        0.3119
     10 H         -27.6699   50.9450  -10.7357 H       1  UNL1        0.1718
     11 N         -30.6551   50.3066  -13.8336 N.3     1  UNL1       -0.2647
     12 C         -31.3395   51.3190  -12.9956 C.3     1  UNL1        0.0941
     13 C         -30.5707   51.6064  -11.7025 C.3     1  UNL1        0.1084
     14 N         -30.3956   50.3694  -10.9325 N.pl3   1  UNL1       -0.2988
     15 C         -30.4975   49.0805  -11.6274 C.3     1  UNL1        0.1084
     16 C         -29.9845   49.2202  -13.0665 C.3     1  UNL1        0.0941
     17 C         -31.5818   49.7750  -14.8527 C.3     1  UNL1        0.1200
     18 N         -29.7507   48.7173  -17.8509 N.ar    1  UNL1       -0.3128
     19 C         -29.9694   50.0343  -18.0443 C.ar    1  UNL1        0.1780
     20 N         -30.6575   50.6041  -17.0328 N.ar    1  UNL1       -0.2273
     21 C         -30.8708   49.5950  -16.1637 C.ar    1  UNL1        0.0885
     22 C         -30.3197   48.4277  -16.6621 C.ar    1  UNL1        0.0537
     23 C         -30.2777   47.0976  -15.9662 C.3     1  UNL1        0.0514
     24 C         -27.5571   48.3954  -18.9050 C.3     1  UNL1        0.0265
     25 C         -28.9672   47.8443  -18.7267 C.3     1  UNL1        0.1073
     26 C         -25.3642   51.4397   -9.2058 C.ar    1  UNL1        0.0218
     27 C         -24.3063   51.1654   -8.3245 C.ar    1  UNL1        0.0013
     28 C         -22.9850   51.4450   -8.6850 C.ar    1  UNL1       -0.0042
     29 C         -22.6764   52.0108   -9.9435 C.ar    1  UNL1       -0.0228
     30 C         -23.7495   52.2817  -10.8195 C.ar    1  UNL1       -0.0042
     31 C         -25.0686   52.0012  -10.4567 C.ar    1  UNL1        0.0013
     32 C         -21.2334   52.3358  -10.3825 C.3     1  UNL1        0.0189
     33 C         -20.3722   52.6390   -9.1370 C.3     1  UNL1        0.0044
     34 C         -21.2433   53.5692  -11.3116 C.3     1  UNL1        0.0044
     35 C         -20.5562   51.1750  -11.1503 C.3     1  UNL1        0.0044
     36 C         -29.2910   50.6200   -5.2475 C.3     1  UNL1        0.0873
     37 C         -30.4677   51.2324   -4.4771 C.3     1  UNL1        0.0111
     38 C         -28.9386   49.2317   -4.7018 C.3     1  UNL1        0.0111
@<TRIPOS>BOND
     1    24    25    1
     2    25    18    1
     3    18    19   ar
     4    19    20   ar
     5    20    21   ar
     6    21    17    1
     7    17    11    1
     8    11    12    1
     9    12    13    1
    10    13    14    1
    11    14     1    1
    12     1     2   ar
    13     2     3   ar
    14     3     4   ar
    15     4    36    1
    16    36    37    1
    17    36    38    1
    18     4     5   ar
    19     5     6   ar
    20     6     7   ar
    21     7    26    1
    22    26    27   ar
    23    27    28   ar
    24    28    29   ar
    25    29    32    1
    26    32    33    1
    27    32    34    1
    28    32    35    1
    29    29    30   ar
    30    30    31   ar
    31     7     8   ar
    32     8     9   ar
    33    14    15    1
    34    15    16    1
    35    21    22   ar
    36    22    23    1
    37    22    18   ar
    38    16    11    1
    39     9     1   ar
    40     9     5   ar
    41    31    26   ar
    42     8    10    1
@<TRIPOS>MOLECULE
*****
 38 42 0 0 0
SMALL
GASTEIGER

@<TRIPOS>ATOM
      1 C         -28.9215   50.1909   -7.9846 C.ar    1  UNL1        0.1316
      2 C         -30.2340   50.1745   -8.4904 C.ar    1  UNL1        0.0280
      3 C         -30.4998   50.5766   -9.8080 C.ar    1  UNL1        0.0664
      4 C         -29.4482   51.0067  -10.6440 C.ar    1  UNL1        0.2091
      5 N         -28.1879   51.0246  -10.1102 N.ar    1  UNL1       -0.1315
      6 C         -27.0089   51.4112  -10.6358 C.ar    1  UNL1        0.3133
      7 C         -26.0387   51.2489   -9.6560 C.ar    1  UNL1        0.1320
      8 N         -26.6084   50.7672   -8.5280 N.ar    1  UNL1       -0.2941
      9 C         -27.9116   50.6395   -8.8478 C.ar    1  UNL1        0.3119
     10 H         -26.1719   50.5580   -7.6707 H       1  UNL1        0.1718
     11 N         -28.3052   49.1024   -3.8161 N.3     1  UNL1       -0.2647
     12 C         -27.2861   49.8590   -4.5808 C.3     1  UNL1        0.0941
     13 C         -27.9099   50.6662   -5.7231 C.3     1  UNL1        0.1084
     14 N         -28.6427   49.7755   -6.6305 N.pl3   1  UNL1       -0.2988
     15 C         -29.0829   48.4651   -6.1365 C.3     1  UNL1        0.1084
     16 C         -29.4172   48.5549   -4.6420 C.3     1  UNL1        0.0941
     17 C         -27.6587   48.0592   -2.9953 C.3     1  UNL1        0.1200
     18 N         -29.9451   46.4199   -0.6403 N.ar    1  UNL1       -0.3128
     19 C         -29.7952   47.6650   -0.1433 C.ar    1  UNL1        0.1780
     20 N         -28.9598   48.4255   -0.8816 N.ar    1  UNL1       -0.2273
     21 C         -28.5772   47.6176   -1.8916 C.ar    1  UNL1        0.0885
     22 C         -29.1757   46.3784   -1.7481 C.ar    1  UNL1        0.0537
     23 C         -29.0659   45.2233   -2.7015 C.3     1  UNL1        0.0514
     24 C         -31.5537   45.8973    1.1389 C.3     1  UNL1        0.0265
     25 C         -30.8439   45.3923   -0.1120 C.3     1  UNL1        0.1073
     26 C         -24.5896   51.5469   -9.7732 C.ar    1  UNL1        0.0218
     27 C         -23.7325   51.4735   -8.6636 C.ar    1  UNL1        0.0013
     28 C         -22.3701   51.7587   -8.7929 C.ar    1  UNL1       -0.0042
     29 C         -21.8174   52.1284  -10.0407 C.ar    1  UNL1       -0.0228
     30 C         -22.6905   52.1984  -11.1476 C.ar    1  UNL1       -0.0042
     31 C         -24.0511   51.9129  -11.0156 C.ar    1  UNL1        0.0013
     32 C         -20.3206   52.4518  -10.2288 C.3     1  UNL1        0.0189
     33 C         -19.5735   52.2260   -8.8963 C.3     1  UNL1        0.0044
     34 C         -20.1627   53.9258  -10.6616 C.3     1  UNL1        0.0044
     35 C         -19.6395   51.5712  -11.3040 C.3     1  UNL1        0.0044
     36 C         -29.7341   51.4492  -12.0719 C.3     1  UNL1        0.0873
     37 C         -30.4772   50.3580  -12.8532 C.3     1  UNL1        0.0111
     38 C         -30.5163   52.7673  -12.0879 C.3     1  UNL1        0.0111
@<TRIPOS>BOND
     1    24    25    1
     2    25    18    1
     3    18    19   ar
     4    19    20   ar
     5    20    21   ar
     6    21    17    1
     7    17    11    1
     8    11    12    1
     9    12    13    1
    10    13    14    1
    11    14     1    1
    12     1     2   ar
    13     2     3   ar
    14     3     4   ar
    15     4    36    1
    16    36    37    1
    17    36    38    1
    18     4     5   ar
    19     5     6   ar
    20     6     7   ar
    21     7    26    1
    22    26    27   ar
    23    27    28   ar
    24    28    29   ar
    25    29    32    1
    26    32    33    1
    27    32    34    1
    28    32    35    1
    29    29    30   ar
    30    30    31   ar
    31     7     8   ar
    32     8     9   ar
    33    14    15    1
    34    15    16    1
    35    21    22   ar
    36    22    23    1
    37    22    18   ar
    38    16    11    1
    39     9     1   ar
    40     9     5   ar
    41    31    26   ar
    42     8    10    1
@<TRIPOS>MOLECULE
*****
 38 42 0 0 0
SMALL
GASTEIGER

@<TRIPOS>ATOM
      1 C         -28.1408   48.6683   -8.6743 C.ar    1  UNL1        0.1316
      2 C         -29.4683   48.6148   -9.1364 C.ar    1  UNL1        0.0280
      3 C         -29.8868   49.4157  -10.2096 C.ar    1  UNL1        0.0664
      4 C         -28.9765   50.2902  -10.8391 C.ar    1  UNL1        0.2091
      5 N         -27.6987   50.3262  -10.3499 N.ar    1  UNL1       -0.1315
      6 C         -26.6337   51.0699  -10.7082 C.ar    1  UNL1        0.3133
      7 C         -25.5820   50.7302   -9.8679 C.ar    1  UNL1        0.1320
      8 N         -25.9885   49.7839   -8.9913 N.ar    1  UNL1       -0.2941
      9 C         -27.2763   49.5626   -9.3217 C.ar    1  UNL1        0.3119
     10 H         -25.4644   49.3554   -8.2765 H       1  UNL1        0.1718
     11 N         -26.7144   45.9992   -5.5465 N.3     1  UNL1       -0.2647
     12 C         -28.1594   46.2584   -5.7481 C.3     1  UNL1        0.0941
     13 C         -28.4742   46.6530   -7.1940 C.3     1  UNL1        0.1084
     14 N         -27.7048   47.8441   -7.5722 N.pl3   1  UNL1       -0.2988
     15 C         -26.4931   48.1768   -6.8133 C.3     1  UNL1        0.1084
     16 C         -25.8119   46.8915   -6.3261 C.3     1  UNL1        0.0941
     17 C         -26.3899   46.0040   -4.1062 C.3     1  UNL1        0.1200
     18 N         -29.1311   47.4184   -2.1198 N.ar    1  UNL1       -0.3128
     19 C         -29.4083   46.0994   -2.1740 C.ar    1  UNL1        0.1780
     20 N         -28.5009   45.4034   -2.8906 N.ar    1  UNL1       -0.2273
     21 C         -27.6111   46.3327   -3.2955 C.ar    1  UNL1        0.0885
     22 C         -27.9943   47.5778   -2.8293 C.ar    1  UNL1        0.0537
     23 C         -27.2353   48.8623   -2.9999 C.3     1  UNL1        0.0514
     24 C         -29.9738   48.0061    0.1098 C.3     1  UNL1        0.0265
     25 C         -29.8795   48.4174   -1.3550 C.3     1  UNL1        0.1073
     26 C         -24.2078   51.2905   -9.8823 C.ar    1  UNL1        0.0218
     27 C         -23.4467   51.3998   -8.7076 C.ar    1  UNL1        0.0013
     28 C         -22.1542   51.9311   -8.7404 C.ar    1  UNL1       -0.0042
     29 C         -21.5776   52.3728   -9.9534 C.ar    1  UNL1       -0.0228
     30 C         -22.3539   52.2573  -11.1266 C.ar    1  UNL1       -0.0042
     31 C         -23.6449   51.7259  -11.0910 C.ar    1  UNL1        0.0013
     32 C         -20.1555   52.9655  -10.0357 C.3     1  UNL1        0.0189
     33 C         -19.4414   52.4188  -11.2911 C.3     1  UNL1        0.0044
     34 C         -19.3569   52.5646   -8.7762 C.3     1  UNL1        0.0044
     35 C         -20.1459   54.5106  -10.1256 C.3     1  UNL1        0.0044
     36 C         -29.4290   51.1647  -11.9997 C.3     1  UNL1        0.0873
     37 C         -30.3535   50.3923  -12.9494 C.3     1  UNL1        0.0111
     38 C         -30.1067   52.4411  -11.4887 C.3     1  UNL1        0.0111
@<TRIPOS>BOND
     1    24    25    1
     2    25    18    1
     3    18    19   ar
     4    19    20   ar
     5    20    21   ar
     6    21    17    1
     7    17    11    1
     8    11    12    1
     9    12    13    1
    10    13    14    1
    11    14     1    1
    12     1     2   ar
    13     2     3   ar
    14     3     4   ar
    15     4    36    1
    16    36    37    1
    17    36    38    1
    18     4     5   ar
    19     5     6   ar
    20     6     7   ar
    21     7    26    1
    22    26    27   ar
    23    27    28   ar
    24    28    29   ar
    25    29    32    1
    26    32    33    1
    27    32    34    1
    28    32    35    1
    29    29    30   ar
    30    30    31   ar
    31     7     8   ar
    32     8     9   ar
    33    14    15    1
    34    15    16    1
    35    21    22   ar
    36    22    23    1
    37    22    18   ar
    38    16    11    1
    39     9     1   ar
    40     9     5   ar
    41    31    26   ar
    42     8    10    1
@<TRIPOS>MOLECULE
*****
 38 42 0 0 0
SMALL
GASTEIGER

@<TRIPOS>ATOM
      1 C         -26.7005   51.5007   -8.1299 C.ar    1  UNL1        0.1316
      2 C         -26.9452   51.8975   -6.8027 C.ar    1  UNL1        0.0280
      3 C         -28.2216   51.7597   -6.2368 C.ar    1  UNL1        0.0664
      4 C         -29.2802   51.2211   -6.9976 C.ar    1  UNL1        0.2091
      5 N         -29.0068   50.8626   -8.2900 N.ar    1  UNL1       -0.1315
      6 C         -29.8009   50.3645   -9.2578 C.ar    1  UNL1        0.3133
      7 C         -29.0236   50.2011  -10.3966 C.ar    1  UNL1        0.1320
      8 N         -27.7556   50.5962  -10.1415 N.ar    1  UNL1       -0.2941
      9 C         -27.7866   50.9844   -8.8511 C.ar    1  UNL1        0.3119
     10 H         -26.9869   50.5996  -10.7566 H       1  UNL1        0.1718
     11 N         -22.7802   51.6512  -10.0139 N.3     1  UNL1       -0.2647
     12 C         -22.9352   51.6581   -8.5403 C.3     1  UNL1        0.0941
     13 C         -24.2332   50.9762   -8.0979 C.3     1  UNL1        0.1084
     14 N         -25.3882   51.6380   -8.7157 N.pl3   1  UNL1       -0.2988
     15 C         -25.1832   52.4349   -9.9312 C.3     1  UNL1        0.1084
     16 C         -24.0513   51.8276  -10.7700 C.3     1  UNL1        0.0941
     17 C         -21.7510   52.6269  -10.4246 C.3     1  UNL1        0.1200
     18 N         -18.3966   51.9021   -9.1272 N.ar    1  UNL1       -0.3128
     19 C         -19.1160   52.2123   -8.0291 C.ar    1  UNL1        0.1780
     20 N         -20.3962   52.5293   -8.3151 N.ar    1  UNL1       -0.2273
     21 C         -20.4803   52.4025   -9.6553 C.ar    1  UNL1        0.0885
     22 C         -19.2515   52.0212  -10.1644 C.ar    1  UNL1        0.0537
     23 C         -18.9444   51.7046  -11.5999 C.3     1  UNL1        0.0514
     24 C         -16.3867   51.5941   -7.7517 C.3     1  UNL1        0.0265
     25 C         -17.0074   51.4403   -9.1354 C.3     1  UNL1        0.1073
     26 C         -29.4655   49.6832  -11.7153 C.ar    1  UNL1        0.0218
     27 C         -30.0498   48.4135  -11.8475 C.ar    1  UNL1        0.0013
     28 C         -30.4591   47.9419  -13.0982 C.ar    1  UNL1       -0.0042
     29 C         -30.2971   48.7272  -14.2627 C.ar    1  UNL1       -0.0228
     30 C         -29.7081   50.0014  -14.1153 C.ar    1  UNL1       -0.0042
     31 C         -29.3001   50.4701  -12.8646 C.ar    1  UNL1        0.0013
     32 C         -30.7340   48.2466  -15.6622 C.3     1  UNL1        0.0189
     33 C         -31.5828   49.3434  -16.3415 C.3     1  UNL1        0.0044
     34 C         -31.5749   46.9588  -15.5251 C.3     1  UNL1        0.0044
     35 C         -29.5405   47.9309  -16.5958 C.3     1  UNL1        0.0044
     36 C         -30.6674   51.0759   -6.3884 C.3     1  UNL1        0.0873
     37 C         -30.9404   49.6260   -5.9682 C.3     1  UNL1        0.0111
     38 C         -30.8468   52.0348   -5.2061 C.3     1  UNL1        0.0111
@<TRIPOS>BOND
     1    24    25    1
     2    25    18    1
     3    18    19   ar
     4    19    20   ar
     5    20    21   ar
     6    21    17    1
     7    17    11    1
     8    11    12    1
     9    12    13    1
    10    13    14    1
    11    14     1    1
    12     1     2   ar
    13     2     3   ar
    14     3     4   ar
    15     4    36    1
    16    36    37    1
    17    36    38    1
    18     4     5   ar
    19     5     6   ar
    20     6     7   ar
    21     7    26    1
    22    26    27   ar
    23    27    28   ar
    24    28    29   ar
    25    29    32    1
    26    32    33    1
    27    32    34    1
    28    32    35    1
    29    29    30   ar
    30    30    31   ar
    31     7     8   ar
    32     8     9   ar
    33    14    15    1
    34    15    16    1
    35    21    22   ar
    36    22    23    1
    37    22    18   ar
    38    16    11    1
    39     9     1   ar
    40     9     5   ar
    41    31    26   ar
    42     8    10    1
@<TRIPOS>MOLECULE
*****
 38 42 0 0 0
SMALL
GASTEIGER

@<TRIPOS>ATOM
      1 C         -26.6066   51.1382  -10.7205 C.ar    1  UNL1        0.1316
      2 C         -27.4000   51.5354  -11.8120 C.ar    1  UNL1        0.0280
      3 C         -28.6989   51.0308  -11.9755 C.ar    1  UNL1        0.0664
      4 C         -29.2254   50.1124  -11.0434 C.ar    1  UNL1        0.2091
      5 N         -28.4168   49.7374  -10.0047 N.ar    1  UNL1       -0.1315
      6 C         -28.6176   48.8676   -8.9953 C.ar    1  UNL1        0.3133
      7 C         -27.4609   48.8403   -8.2278 C.ar    1  UNL1        0.1320
      8 N         -26.5455   49.6844   -8.7557 N.ar    1  UNL1       -0.2941
      9 C         -27.1673   50.2129   -9.8284 C.ar    1  UNL1        0.3119
     10 H         -25.6348   49.8700   -8.4311 H       1  UNL1        0.1718
     11 N         -22.5559   52.5355   -9.9581 N.3     1  UNL1       -0.2647
     12 C         -23.7162   53.4563   -9.9186 C.3     1  UNL1        0.0941
     13 C         -25.0164   52.7246   -9.5724 C.3     1  UNL1        0.1084
     14 N         -25.2706   51.6567  -10.5464 N.pl3   1  UNL1       -0.2988
     15 C         -24.1479   51.1312  -11.3326 C.3     1  UNL1        0.1084
     16 C         -22.8588   51.1825  -10.5025 C.3     1  UNL1        0.0941
     17 C         -21.4210   53.1722  -10.6555 C.3     1  UNL1        0.1200
     18 N         -18.0928   52.2541   -9.4140 N.ar    1  UNL1       -0.3128
     19 C         -18.7124   52.7834   -8.3390 C.ar    1  UNL1        0.1780
     20 N         -19.9665   53.2009   -8.6113 N.ar    1  UNL1       -0.2273
     21 C         -20.1393   52.9101   -9.9170 C.ar    1  UNL1        0.0885
     22 C         -18.9880   52.3311  -10.4208 C.ar    1  UNL1        0.0537
     23 C         -18.7976   51.7973  -11.8115 C.3     1  UNL1        0.0514
     24 C         -16.1287   51.7381   -8.0346 C.3     1  UNL1        0.0265
     25 C         -16.7624   51.6434   -9.4179 C.3     1  UNL1        0.1073
     26 C         -27.2125   48.0265   -7.0119 C.ar    1  UNL1        0.0218
     27 C         -28.1973   47.8608   -6.0250 C.ar    1  UNL1        0.0013
     28 C         -27.9449   47.0912   -4.8857 C.ar    1  UNL1       -0.0042
     29 C         -26.6946   46.4595   -4.6943 C.ar    1  UNL1       -0.0228
     30 C         -25.7137   46.6347   -5.6940 C.ar    1  UNL1       -0.0042
     31 C         -25.9686   47.4039   -6.8314 C.ar    1  UNL1        0.0013
     32 C         -26.3729   45.6019   -3.4527 C.3     1  UNL1        0.0189
     33 C         -26.2379   44.1213   -3.8705 C.3     1  UNL1        0.0044
     34 C         -27.5135   45.7414   -2.4210 C.3     1  UNL1        0.0044
     35 C         -25.0549   46.0148   -2.7544 C.3     1  UNL1        0.0044
     36 C         -30.6319   49.5586  -11.2214 C.3     1  UNL1        0.0873
     37 C         -31.5751   50.6165  -11.8083 C.3     1  UNL1        0.0111
     38 C         -30.6145   48.2947  -12.0885 C.3     1  UNL1        0.0111
@<TRIPOS>BOND
     1    24    25    1
     2    25    18    1
     3    18    19   ar
     4    19    20   ar
     5    20    21   ar
     6    21    17    1
     7    17    11    1
     8    11    12    1
     9    12    13    1
    10    13    14    1
    11    14     1    1
    12     1     2   ar
    13     2     3   ar
    14     3     4   ar
    15     4    36    1
    16    36    37    1
    17    36    38    1
    18     4     5   ar
    19     5     6   ar
    20     6     7   ar
    21     7    26    1
    22    26    27   ar
    23    27    28   ar
    24    28    29   ar
    25    29    32    1
    26    32    33    1
    27    32    34    1
    28    32    35    1
    29    29    30   ar
    30    30    31   ar
    31     7     8   ar
    32     8     9   ar
    33    14    15    1
    34    15    16    1
    35    21    22   ar
    36    22    23    1
    37    22    18   ar
    38    16    11    1
    39     9     1   ar
    40     9     5   ar
    41    31    26   ar
    42     8    10    1
@<TRIPOS>MOLECULE
*****
 38 42 0 0 0
SMALL
GASTEIGER

@<TRIPOS>ATOM
      1 C         -26.5756   51.1401  -10.6249 C.ar    1  UNL1        0.1316
      2 C         -27.4161   51.5501  -11.6757 C.ar    1  UNL1        0.0280
      3 C         -28.7286   51.0643  -11.7752 C.ar    1  UNL1        0.0664
      4 C         -29.2217   50.1524  -10.8187 C.ar    1  UNL1        0.2091
      5 N         -28.3683   49.7646   -9.8214 N.ar    1  UNL1       -0.1315
      6 C         -28.5315   48.8965   -8.8038 C.ar    1  UNL1        0.3133
      7 C         -27.3388   48.8516   -8.0944 C.ar    1  UNL1        0.1320
      8 N         -26.4386   49.6831   -8.6663 N.ar    1  UNL1       -0.2941
      9 C         -27.1049   50.2219   -9.7067 C.ar    1  UNL1        0.3119
     10 H         -25.5104   49.8553   -8.3870 H       1  UNL1        0.1718
     11 N         -22.4690   52.4701  -10.0691 N.3     1  UNL1       -0.2647
     12 C         -23.6136   53.3999   -9.9239 C.3     1  UNL1        0.0941
     13 C         -24.8982   52.6686   -9.5231 C.3     1  UNL1        0.1084
     14 N         -25.2253   51.6393  -10.5167 N.pl3   1  UNL1       -0.2988
     15 C         -24.1602   51.1320  -11.3901 C.3     1  UNL1        0.1084
     16 C         -22.8213   51.1408  -10.6413 C.3     1  UNL1        0.0941
     17 C         -21.3724   53.1210  -10.8132 C.3     1  UNL1        0.1200
     18 N         -19.5480   55.2003   -8.4031 N.ar    1  UNL1       -0.3128
     19 C         -20.1985   56.0896   -9.1814 C.ar    1  UNL1        0.1780
     20 N         -20.9244   55.5001  -10.1545 N.ar    1  UNL1       -0.2273
     21 C         -20.7226   54.1795   -9.9682 C.ar    1  UNL1        0.0885
     22 C         -19.8719   53.9860   -8.8943 C.ar    1  UNL1        0.0537
     23 C         -19.4564   52.6631   -8.3176 C.3     1  UNL1        0.0514
     24 C         -18.7631   57.0276   -6.9638 C.3     1  UNL1        0.0265
     25 C         -18.7486   55.5250   -7.2205 C.3     1  UNL1        0.1073
     26 C         -27.0425   48.0328   -6.8926 C.ar    1  UNL1        0.0218
     27 C         -27.8556   48.0853   -5.7493 C.ar    1  UNL1        0.0013
     28 C         -27.5602   47.3073   -4.6261 C.ar    1  UNL1       -0.0042
     29 C         -26.4377   46.4479   -4.6085 C.ar    1  UNL1       -0.0228
     30 C         -25.6289   46.4052   -5.7645 C.ar    1  UNL1       -0.0042
     31 C         -25.9263   47.1834   -6.8853 C.ar    1  UNL1        0.0013
     32 C         -26.0743   45.5723   -3.3912 C.3     1  UNL1        0.0189
     33 C         -25.8381   44.1183   -3.8548 C.3     1  UNL1        0.0044
     34 C         -27.2329   45.6033   -2.3706 C.3     1  UNL1        0.0044
     35 C         -24.7939   46.0467   -2.6625 C.3     1  UNL1        0.0044
     36 C         -30.6431   49.6191  -10.9274 C.3     1  UNL1        0.0873
     37 C         -31.5553   50.6141  -11.6560 C.3     1  UNL1        0.0111
     38 C         -30.6604   48.2499  -11.6163 C.3     1  UNL1        0.0111
@<TRIPOS>BOND
     1    24    25    1
     2    25    18    1
     3    18    19   ar
     4    19    20   ar
     5    20    21   ar
     6    21    17    1
     7    17    11    1
     8    11    12    1
     9    12    13    1
    10    13    14    1
    11    14     1    1
    12     1     2   ar
    13     2     3   ar
    14     3     4   ar
    15     4    36    1
    16    36    37    1
    17    36    38    1
    18     4     5   ar
    19     5     6   ar
    20     6     7   ar
    21     7    26    1
    22    26    27   ar
    23    27    28   ar
    24    28    29   ar
    25    29    32    1
    26    32    33    1
    27    32    34    1
    28    32    35    1
    29    29    30   ar
    30    30    31   ar
    31     7     8   ar
    32     8     9   ar
    33    14    15    1
    34    15    16    1
    35    21    22   ar
    36    22    23    1
    37    22    18   ar
    38    16    11    1
    39     9     1   ar
    40     9     5   ar
    41    31    26   ar
    42     8    10    1
@<TRIPOS>MOLECULE
*****
 38 42 0 0 0
SMALL
GASTEIGER

@<TRIPOS>ATOM
      1 C         -29.4791   50.2655   -8.2694 C.ar    1  UNL1        0.1316
      2 C         -30.7624   50.1490   -8.8336 C.ar    1  UNL1        0.0280
      3 C         -30.9650   50.3643  -10.2051 C.ar    1  UNL1        0.0664
      4 C         -29.8783   50.7043  -11.0377 C.ar    1  UNL1        0.2091
      5 N         -28.6486   50.8247  -10.4487 N.ar    1  UNL1       -0.1315
      6 C         -27.4505   51.1664  -10.9618 C.ar    1  UNL1        0.3133
      7 C         -26.5309   51.1609   -9.9216 C.ar    1  UNL1        0.1320
      8 N         -27.1511   50.8208   -8.7689 N.ar    1  UNL1       -0.2941
      9 C         -28.4329   50.6192   -9.1335 C.ar    1  UNL1        0.3119
     10 H         -26.7570   50.7392   -7.8704 H       1  UNL1        0.1718
     11 N         -29.0878   49.4500   -4.0123 N.3     1  UNL1       -0.2647
     12 C         -29.2059   50.8329   -4.5312 C.3     1  UNL1        0.0941
     13 C         -29.9503   50.8810   -5.8688 C.3     1  UNL1        0.1084
     14 N         -29.2653   50.0423   -6.8593 N.pl3   1  UNL1       -0.2988
     15 C         -28.3664   48.9808   -6.3903 C.3     1  UNL1        0.1084
     16 C         -28.8775   48.4125   -5.0601 C.3     1  UNL1        0.0941
     17 C         -28.0592   49.3865   -2.9550 C.3     1  UNL1        0.1200
     18 N         -26.7588   45.9651   -2.7021 N.ar    1  UNL1       -0.3128
     19 C         -25.8294   46.6193   -3.4288 C.ar    1  UNL1        0.1780
     20 N         -26.1486   47.9129   -3.6429 N.ar    1  UNL1       -0.2273
     21 C         -27.3300   48.0744   -3.0124 C.ar    1  UNL1        0.0885
     22 C         -27.7158   46.8780   -2.4341 C.ar    1  UNL1        0.0537
     23 C         -28.9321   46.6549   -1.5820 C.3     1  UNL1        0.0514
     24 C         -25.2096   44.2195   -1.9412 C.3     1  UNL1        0.0265
     25 C         -26.6606   44.5801   -2.2384 C.3     1  UNL1        0.1073
     26 C         -25.0831   51.4762  -10.0051 C.ar    1  UNL1        0.0218
     27 C         -24.4736   51.8121  -11.2245 C.ar    1  UNL1        0.0013
     28 C         -23.1081   52.1052  -11.2840 C.ar    1  UNL1       -0.0042
     29 C         -22.3035   52.0719  -10.1219 C.ar    1  UNL1       -0.0228
     30 C         -22.9291   51.7326   -8.9030 C.ar    1  UNL1       -0.0042
     31 C         -24.2935   51.4403   -8.8463 C.ar    1  UNL1        0.0013
     32 C         -20.7934   52.3878  -10.1416 C.3     1  UNL1        0.0189
     33 C         -20.0724   51.3978  -11.0823 C.3     1  UNL1        0.0044
     34 C         -20.2198   52.2495   -8.7146 C.3     1  UNL1        0.0044
     35 C         -20.4791   53.8200  -10.6372 C.3     1  UNL1        0.0044
     36 C         -30.0959   50.9443  -12.5249 C.3     1  UNL1        0.0873
     37 C         -31.4919   50.4838  -12.9632 C.3     1  UNL1        0.0111
     38 C         -29.8659   52.4179  -12.8787 C.3     1  UNL1        0.0111
@<TRIPOS>BOND
     1    24    25    1
     2    25    18    1
     3    18    19   ar
     4    19    20   ar
     5    20    21   ar
     6    21    17    1
     7    17    11    1
     8    11    12    1
     9    12    13    1
    10    13    14    1
    11    14     1    1
    12     1     2   ar
    13     2     3   ar
    14     3     4   ar
    15     4    36    1
    16    36    37    1
    17    36    38    1
    18     4     5   ar
    19     5     6   ar
    20     6     7   ar
    21     7    26    1
    22    26    27   ar
    23    27    28   ar
    24    28    29   ar
    25    29    32    1
    26    32    33    1
    27    32    34    1
    28    32    35    1
    29    29    30   ar
    30    30    31   ar
    31     7     8   ar
    32     8     9   ar
    33    14    15    1
    34    15    16    1
    35    21    22   ar
    36    22    23    1
    37    22    18   ar
    38    16    11    1
    39     9     1   ar
    40     9     5   ar
    41    31    26   ar
    42     8    10    1
