@<TRIPOS>MOLECULE
*****
 37 42 0 0 0
SMALL
GASTEIGER

@<TRIPOS>ATOM
      1 C         -20.4720   -7.3837   -8.7991 C.ar    1  UNL1        0.1095
      2 N         -20.1270   -7.0492   -7.5303 N.ar    1  UNL1       -0.1677
      3 N         -19.2755   -7.9640   -7.0800 N.ar    1  UNL1       -0.2319
      4 C         -18.6160   -7.9034   -5.7827 C.3     1  UNL1        0.1554
      5 C         -19.0535   -8.8554   -8.0582 C.ar    1  UNL1        0.1649
      6 N         -18.1941   -9.9022   -8.0336 N.ar    1  UNL1       -0.2121
      7 C         -18.0932  -10.6845   -9.1515 C.ar    1  UNL1        0.1417
      8 N         -18.8684  -10.4154  -10.2531 N.ar    1  UNL1       -0.2159
      9 C         -19.7366   -9.3615  -10.2817 C.ar    1  UNL1        0.1375
     10 C         -19.7995   -8.5466   -9.1512 C.ar    1  UNL1        0.0865
     11 C         -22.5815   -6.7383  -10.1064 C.ar    1  UNL1        0.0809
     12 C         -21.2867   -6.5245   -9.6695 C.ar    1  UNL1        0.0577
     13 C         -20.8597   -5.4002  -10.3504 C.ar    1  UNL1        0.1231
     14 N         -21.8458   -4.9673  -11.1601 N.ar    1  UNL1       -0.1676
     15 N         -22.8834   -5.7755  -11.0053 N.ar    1  UNL1       -0.2488
     16 C         -24.1115   -5.6513  -11.7827 C.3     1  UNL1        0.1537
     17 C         -25.9047  -11.3090   -8.8580 C.3     1  UNL1        0.0310
     18 C         -25.0278  -10.1404   -9.1975 C.ar    1  UNL1       -0.0218
     19 C         -23.9176   -9.8333   -8.3963 C.ar    1  UNL1       -0.0042
     20 C         -23.1209   -8.7233   -8.6916 C.ar    1  UNL1        0.0012
     21 C         -23.4312   -7.9010   -9.7840 C.ar    1  UNL1        0.0174
     22 C         -24.5533   -8.1951  -10.5722 C.ar    1  UNL1        0.0012
     23 C         -25.3502   -9.3048  -10.2775 C.ar    1  UNL1       -0.0042
     24 N         -20.6041   -9.1779  -11.4037 N.pl3   1  UNL1       -0.2917
     25 C         -20.3700   -8.1786  -12.4234 C.3     1  UNL1        0.0937
     26 C         -21.5406   -8.3261  -13.3803 C.3     1  UNL1        0.0391
     27 C         -22.0196   -9.7817  -13.2290 C.3     1  UNL1        0.0790
     28 C         -21.5950  -10.1630  -11.8017 C.3     1  UNL1        0.1081
     29 N         -23.4886   -9.9312  -13.4354 N.3     1  UNL1       -0.2723
     30 C         -23.9442   -9.5760  -14.8025 C.3     1  UNL1        0.0721
     31 C         -23.5151  -10.6093  -15.8553 C.3     1  UNL1        0.0174
     32 C         -24.0216  -12.0013  -15.4783 C.3     1  UNL1        0.0029
     33 C         -23.5934  -12.3696  -14.0576 C.3     1  UNL1        0.0174
     34 C         -24.0023  -11.2731  -13.0598 C.3     1  UNL1        0.0721
     35 C         -17.1509  -11.8571   -9.1591 C.3     1  UNL1        0.0587
     36 C         -17.8136  -13.0762   -9.8081 C.3     1  UNL1        0.0080
     37 C         -16.6852  -12.1789   -7.7359 C.3     1  UNL1        0.0080
@<TRIPOS>BOND
     1    17    18    1
     2    18    19   ar
     3    19    20   ar
     4    20    21   ar
     5    21    11    1
     6    11    12   ar
     7    12     1    1
     8     1     2   ar
     9     2     3   ar
    10     3     4    1
    11     3     5   ar
    12     5     6   ar
    13     6     7   ar
    14     7    35    1
    15    35    36    1
    16    35    37    1
    17     7     8   ar
    18     8     9   ar
    19     9    24    1
    20    24    25    1
    21    25    26    1
    22    26    27    1
    23    27    29    1
    24    29    30    1
    25    30    31    1
    26    31    32    1
    27    32    33    1
    28    33    34    1
    29    27    28    1
    30     9    10   ar
    31    12    13   ar
    32    13    14   ar
    33    14    15   ar
    34    15    16    1
    35    21    22   ar
    36    22    23   ar
    37    23    18   ar
    38    15    11   ar
    39    10     1   ar
    40    10     5   ar
    41    28    24    1
    42    34    29    1
@<TRIPOS>MOLECULE
*****
 37 42 0 0 0
SMALL
GASTEIGER

@<TRIPOS>ATOM
      1 C         -21.0904  -10.3145  -12.0034 C.ar    1  UNL1        0.1095
      2 N         -20.2229  -11.1565  -11.3876 N.ar    1  UNL1       -0.1677
      3 N         -20.3572  -12.3594  -11.9352 N.ar    1  UNL1       -0.2319
      4 C         -19.5351  -13.5127  -11.5948 C.3     1  UNL1        0.1554
      5 C         -21.2761  -12.2819  -12.9102 C.ar    1  UNL1        0.1649
      6 N         -21.6536  -13.2662  -13.7607 N.ar    1  UNL1       -0.2121
      7 C         -22.5953  -12.9767  -14.7100 C.ar    1  UNL1        0.1417
      8 N         -23.1505  -11.7217  -14.7696 N.ar    1  UNL1       -0.2159
      9 C         -22.7733  -10.7268  -13.9135 C.ar    1  UNL1        0.1375
     10 C         -21.7820  -11.0226  -12.9775 C.ar    1  UNL1        0.0865
     11 C         -22.0383   -8.1474  -11.0134 C.ar    1  UNL1        0.0809
     12 C         -21.1222   -8.8656  -11.7603 C.ar    1  UNL1        0.0577
     13 C         -20.3232   -7.9115  -12.3616 C.ar    1  UNL1        0.1231
     14 N         -20.7445   -6.6840  -11.9998 N.ar    1  UNL1       -0.1676
     15 N         -21.7762   -6.8325  -11.1829 N.ar    1  UNL1       -0.2488
     16 C         -22.5356   -5.7078  -10.6477 C.3     1  UNL1        0.1537
     17 C         -26.6051  -10.3218   -8.2012 C.3     1  UNL1        0.0310
     18 C         -25.4263   -9.7758   -8.9507 C.ar    1  UNL1       -0.0218
     19 C         -24.1491  -10.3231   -8.7554 C.ar    1  UNL1       -0.0042
     20 C         -23.0442   -9.7913   -9.4266 C.ar    1  UNL1        0.0012
     21 C         -23.2012   -8.6993  -10.2918 C.ar    1  UNL1        0.0174
     22 C         -24.4739   -8.1381  -10.4706 C.ar    1  UNL1        0.0012
     23 C         -25.5790   -8.6693   -9.7999 C.ar    1  UNL1       -0.0042
     24 N         -23.4503   -9.4673  -13.9356 N.pl3   1  UNL1       -0.2917
     25 C         -22.9849   -8.3379  -14.7108 C.3     1  UNL1        0.0937
     26 C         -23.9797   -7.2302  -14.4093 C.3     1  UNL1        0.0391
     27 C         -25.2856   -7.9422  -14.0106 C.3     1  UNL1        0.0790
     28 C         -24.8134   -9.2983  -13.4621 C.3     1  UNL1        0.1081
     29 N         -26.0779   -7.1766  -13.0062 N.3     1  UNL1       -0.2723
     30 C         -26.0860   -5.7104  -13.2357 C.3     1  UNL1        0.0721
     31 C         -26.9231   -5.3086  -14.4596 C.3     1  UNL1        0.0174
     32 C         -28.3548   -5.8265  -14.3238 C.3     1  UNL1        0.0029
     33 C         -28.3654   -7.3304  -14.0493 C.3     1  UNL1        0.0174
     34 C         -27.4680   -7.6753  -12.8488 C.3     1  UNL1        0.0721
     35 C         -23.0404  -14.0461  -15.6699 C.3     1  UNL1        0.0587
     36 C         -24.5090  -13.8450  -16.0567 C.3     1  UNL1        0.0080
     37 C         -22.8182  -15.4353  -15.0643 C.3     1  UNL1        0.0080
@<TRIPOS>BOND
     1    17    18    1
     2    18    19   ar
     3    19    20   ar
     4    20    21   ar
     5    21    11    1
     6    11    12   ar
     7    12     1    1
     8     1     2   ar
     9     2     3   ar
    10     3     4    1
    11     3     5   ar
    12     5     6   ar
    13     6     7   ar
    14     7    35    1
    15    35    36    1
    16    35    37    1
    17     7     8   ar
    18     8     9   ar
    19     9    24    1
    20    24    25    1
    21    25    26    1
    22    26    27    1
    23    27    29    1
    24    29    30    1
    25    30    31    1
    26    31    32    1
    27    32    33    1
    28    33    34    1
    29    27    28    1
    30     9    10   ar
    31    12    13   ar
    32    13    14   ar
    33    14    15   ar
    34    15    16    1
    35    21    22   ar
    36    22    23   ar
    37    23    18   ar
    38    15    11   ar
    39    10     1   ar
    40    10     5   ar
    41    28    24    1
    42    34    29    1
@<TRIPOS>MOLECULE
*****
 37 42 0 0 0
SMALL
GASTEIGER

@<TRIPOS>ATOM
      1 C         -21.7529  -10.7189  -11.9962 C.ar    1  UNL1        0.1095
      2 N         -20.6324  -11.4038  -12.3369 N.ar    1  UNL1       -0.1677
      3 N         -21.0033  -12.5171  -12.9597 N.ar    1  UNL1       -0.2319
      4 C         -20.0778  -13.4743  -13.5506 C.3     1  UNL1        0.1554
      5 C         -22.3424  -12.5299  -13.0448 C.ar    1  UNL1        0.1649
      6 N         -23.1151  -13.4501  -13.6702 N.ar    1  UNL1       -0.2121
      7 C         -24.4711  -13.2684  -13.6663 C.ar    1  UNL1        0.1417
      8 N         -25.0196  -12.1877  -13.0197 N.ar    1  UNL1       -0.2159
      9 C         -24.2443  -11.2581  -12.3874 C.ar    1  UNL1        0.1375
     10 C         -22.8609  -11.4322  -12.4344 C.ar    1  UNL1        0.0865
     11 C         -21.9505   -8.1632  -12.0635 C.ar    1  UNL1        0.0809
     12 C         -21.7313   -9.3674  -11.4195 C.ar    1  UNL1        0.0577
     13 C         -21.3337   -9.0233  -10.1414 C.ar    1  UNL1        0.1231
     14 N         -21.3081   -7.6809  -10.0280 N.ar    1  UNL1       -0.1676
     15 N         -21.6855   -7.1676  -11.1890 N.ar    1  UNL1       -0.2488
     16 C         -21.7061   -5.7335  -11.4557 C.3     1  UNL1        0.1537
     17 C         -23.1493   -7.4726  -17.6830 C.3     1  UNL1        0.0310
     18 C         -22.8470   -7.6777  -16.2283 C.ar    1  UNL1       -0.0218
     19 C         -23.8250   -7.4103  -15.2584 C.ar    1  UNL1       -0.0042
     20 C         -23.5324   -7.5670  -13.9005 C.ar    1  UNL1        0.0012
     21 C         -22.2557   -7.9817  -13.4958 C.ar    1  UNL1        0.0174
     22 C         -21.2713   -8.2283  -14.4638 C.ar    1  UNL1        0.0012
     23 C         -21.5632   -8.0718  -15.8216 C.ar    1  UNL1       -0.0042
     24 N         -24.8558  -10.2075  -11.6341 N.pl3   1  UNL1       -0.2917
     25 C         -24.6416  -10.0304  -10.2143 C.3     1  UNL1        0.0937
     26 C         -25.4985   -8.8320   -9.8441 C.3     1  UNL1        0.0391
     27 C         -25.6415   -8.0085  -11.1374 C.3     1  UNL1        0.0790
     28 C         -25.4705   -9.0478  -12.2570 C.3     1  UNL1        0.1081
     29 N         -26.9487   -7.2971  -11.2281 N.3     1  UNL1       -0.2723
     30 C         -26.8246   -5.8277  -11.3952 C.3     1  UNL1        0.0721
     31 C         -26.3152   -5.4327  -12.7898 C.3     1  UNL1        0.0174
     32 C         -27.2228   -6.0098  -13.8758 C.3     1  UNL1        0.0029
     33 C         -27.3929   -7.5186  -13.6974 C.3     1  UNL1        0.0174
     34 C         -27.8510   -7.8538  -12.2680 C.3     1  UNL1        0.0721
     35 C         -25.3604  -14.2717  -14.3488 C.3     1  UNL1        0.0587
     36 C         -24.8321  -14.5941  -15.7501 C.3     1  UNL1        0.0080
     37 C         -26.8009  -13.7551  -14.4113 C.3     1  UNL1        0.0080
@<TRIPOS>BOND
     1    17    18    1
     2    18    19   ar
     3    19    20   ar
     4    20    21   ar
     5    21    11    1
     6    11    12   ar
     7    12     1    1
     8     1     2   ar
     9     2     3   ar
    10     3     4    1
    11     3     5   ar
    12     5     6   ar
    13     6     7   ar
    14     7    35    1
    15    35    36    1
    16    35    37    1
    17     7     8   ar
    18     8     9   ar
    19     9    24    1
    20    24    25    1
    21    25    26    1
    22    26    27    1
    23    27    29    1
    24    29    30    1
    25    30    31    1
    26    31    32    1
    27    32    33    1
    28    33    34    1
    29    27    28    1
    30     9    10   ar
    31    12    13   ar
    32    13    14   ar
    33    14    15   ar
    34    15    16    1
    35    21    22   ar
    36    22    23   ar
    37    23    18   ar
    38    15    11   ar
    39    10     1   ar
    40    10     5   ar
    41    28    24    1
    42    34    29    1
@<TRIPOS>MOLECULE
*****
 37 42 0 0 0
SMALL
GASTEIGER

@<TRIPOS>ATOM
      1 C         -22.5705   -9.0333  -14.9542 C.ar    1  UNL1        0.1095
      2 N         -22.7198   -8.6105  -16.2347 N.ar    1  UNL1       -0.1677
      3 N         -23.0999   -9.6495  -16.9701 N.ar    1  UNL1       -0.2319
      4 C         -23.4410   -9.5734  -18.3841 C.3     1  UNL1        0.1554
      5 C         -23.2230  -10.7166  -16.1657 C.ar    1  UNL1        0.1649
      6 N         -23.6601  -11.9529  -16.5054 N.ar    1  UNL1       -0.2121
      7 C         -23.7388  -12.9045  -15.5256 C.ar    1  UNL1        0.1417
      8 N         -23.3578  -12.6036  -14.2406 N.ar    1  UNL1       -0.2159
      9 C         -22.9159  -11.3586  -13.8941 C.ar    1  UNL1        0.1375
     10 C         -22.8801  -10.3856  -14.8932 C.ar    1  UNL1        0.0865
     11 C         -23.1990   -7.3513  -13.1236 C.ar    1  UNL1        0.0809
     12 C         -22.2978   -8.1275  -13.8296 C.ar    1  UNL1        0.0577
     13 C         -21.0546   -7.7560  -13.3536 C.ar    1  UNL1        0.1231
     14 N         -21.2031   -6.7999  -12.4159 N.ar    1  UNL1       -0.1676
     15 N         -22.4987   -6.5632  -12.2781 N.ar    1  UNL1       -0.2488
     16 C         -23.0293   -5.5299  -11.3955 C.3     1  UNL1        0.1537
     17 C         -28.9047   -7.0175  -14.0324 C.3     1  UNL1        0.0310
     18 C         -27.4291   -7.0896  -13.7736 C.ar    1  UNL1       -0.0218
     19 C         -26.5723   -6.1040  -14.2868 C.ar    1  UNL1       -0.0042
     20 C         -25.1930   -6.1900  -14.0762 C.ar    1  UNL1        0.0012
     21 C         -24.6531   -7.2679  -13.3604 C.ar    1  UNL1        0.0174
     22 C         -25.5069   -8.2646  -12.8660 C.ar    1  UNL1        0.0012
     23 C         -26.8860   -8.1792  -13.0760 C.ar    1  UNL1       -0.0042
     24 N         -22.4264  -11.1139  -12.5729 N.pl3   1  UNL1       -0.2917
     25 C         -21.0454  -11.3211  -12.1950 C.3     1  UNL1        0.0937
     26 C         -20.9953  -10.9691  -10.7182 C.3     1  UNL1        0.0391
     27 C         -22.1572   -9.9857  -10.4861 C.3     1  UNL1        0.0790
     28 C         -23.1659  -10.3397  -11.5907 C.3     1  UNL1        0.1081
     29 N         -22.7525  -10.1053   -9.1244 N.3     1  UNL1       -0.2723
     30 C         -23.0793   -8.8026   -8.4931 C.3     1  UNL1        0.0721
     31 C         -24.2856   -8.1140   -9.1497 C.3     1  UNL1        0.0174
     32 C         -25.5076   -9.0318   -9.1225 C.3     1  UNL1        0.0029
     33 C         -25.1791  -10.3933   -9.7353 C.3     1  UNL1        0.0174
     34 C         -23.9325  -11.0058   -9.0748 C.3     1  UNL1        0.0721
     35 C         -24.2173  -14.2892  -15.8669 C.3     1  UNL1        0.0587
     36 C         -25.5411  -14.5916  -15.1577 C.3     1  UNL1        0.0080
     37 C         -23.1517  -15.3283  -15.5053 C.3     1  UNL1        0.0080
@<TRIPOS>BOND
     1    17    18    1
     2    18    19   ar
     3    19    20   ar
     4    20    21   ar
     5    21    11    1
     6    11    12   ar
     7    12     1    1
     8     1     2   ar
     9     2     3   ar
    10     3     4    1
    11     3     5   ar
    12     5     6   ar
    13     6     7   ar
    14     7    35    1
    15    35    36    1
    16    35    37    1
    17     7     8   ar
    18     8     9   ar
    19     9    24    1
    20    24    25    1
    21    25    26    1
    22    26    27    1
    23    27    29    1
    24    29    30    1
    25    30    31    1
    26    31    32    1
    27    32    33    1
    28    33    34    1
    29    27    28    1
    30     9    10   ar
    31    12    13   ar
    32    13    14   ar
    33    14    15   ar
    34    15    16    1
    35    21    22   ar
    36    22    23   ar
    37    23    18   ar
    38    15    11   ar
    39    10     1   ar
    40    10     5   ar
    41    28    24    1
    42    34    29    1
@<TRIPOS>MOLECULE
*****
 37 42 0 0 0
SMALL
GASTEIGER

@<TRIPOS>ATOM
      1 C         -22.5811   -9.0274  -14.2765 C.ar    1  UNL1        0.1095
      2 N         -22.5749   -8.9848  -15.6326 N.ar    1  UNL1       -0.1677
      3 N         -23.0300  -10.1487  -16.0835 N.ar    1  UNL1       -0.2319
      4 C         -23.2484  -10.4550  -17.4906 C.3     1  UNL1        0.1554
      5 C         -23.3531  -10.9149  -15.0303 C.ar    1  UNL1        0.1649
      6 N         -23.9206  -12.1447  -15.0549 N.ar    1  UNL1       -0.2121
      7 C         -24.1981  -12.7544  -13.8620 C.ar    1  UNL1        0.1417
      8 N         -23.8810  -12.1315  -12.6795 N.ar    1  UNL1       -0.2159
      9 C         -23.3081  -10.8921  -12.6503 C.ar    1  UNL1        0.1375
     10 C         -23.0687  -10.2632  -13.8723 C.ar    1  UNL1        0.0865
     11 C         -23.1688   -7.0589  -12.7420 C.ar    1  UNL1        0.0809
     12 C         -22.2796   -7.8652  -13.4291 C.ar    1  UNL1        0.0577
     13 C         -21.0494   -7.2545  -13.2755 C.ar    1  UNL1        0.1231
     14 N         -21.1956   -6.1347  -12.5406 N.ar    1  UNL1       -0.1676
     15 N         -22.4752   -6.0243  -12.2177 N.ar    1  UNL1       -0.2488
     16 C         -23.0146   -4.8865  -11.4812 C.3     1  UNL1        0.1537
     17 C         -28.9274   -7.6291  -12.6653 C.3     1  UNL1        0.0310
     18 C         -27.4329   -7.5062  -12.6965 C.ar    1  UNL1       -0.0218
     19 C         -26.6659   -7.9261  -11.5991 C.ar    1  UNL1       -0.0042
     20 C         -25.2759   -7.7789  -11.6132 C.ar    1  UNL1        0.0012
     21 C         -24.6376   -7.1999  -12.7191 C.ar    1  UNL1        0.0174
     22 C         -25.4057   -6.7603  -13.8070 C.ar    1  UNL1        0.0012
     23 C         -26.7955   -6.9073  -13.7936 C.ar    1  UNL1       -0.0042
     24 N         -22.8939  -10.3232  -11.4054 N.pl3   1  UNL1       -0.2917
     25 C         -23.7364  -10.3064  -10.2294 C.3     1  UNL1        0.0937
     26 C         -22.9097   -9.5892   -9.1760 C.3     1  UNL1        0.0391
     27 C         -21.4405   -9.8045   -9.5837 C.3     1  UNL1        0.0790
     28 C         -21.5068  -10.0118  -11.1054 C.3     1  UNL1        0.1081
     29 N         -20.5635   -8.6575   -9.2122 N.3     1  UNL1       -0.2723
     30 C         -20.7442   -8.1884   -7.8158 C.3     1  UNL1        0.0721
     31 C         -20.1829   -9.1775   -6.7830 C.3     1  UNL1        0.0174
     32 C         -18.7050   -9.4569   -7.0557 C.3     1  UNL1        0.0029
     33 C         -18.4942   -9.9057   -8.5019 C.3     1  UNL1        0.0174
     34 C         -19.1245   -8.9043   -9.4845 C.3     1  UNL1        0.0721
     35 C         -24.8260  -14.1215  -13.8511 C.3     1  UNL1        0.0587
     36 C         -25.0164  -14.6380  -15.2807 C.3     1  UNL1        0.0080
     37 C         -26.1585  -14.0926  -13.0964 C.3     1  UNL1        0.0080
@<TRIPOS>BOND
     1    17    18    1
     2    18    19   ar
     3    19    20   ar
     4    20    21   ar
     5    21    11    1
     6    11    12   ar
     7    12     1    1
     8     1     2   ar
     9     2     3   ar
    10     3     4    1
    11     3     5   ar
    12     5     6   ar
    13     6     7   ar
    14     7    35    1
    15    35    36    1
    16    35    37    1
    17     7     8   ar
    18     8     9   ar
    19     9    24    1
    20    24    25    1
    21    25    26    1
    22    26    27    1
    23    27    29    1
    24    29    30    1
    25    30    31    1
    26    31    32    1
    27    32    33    1
    28    33    34    1
    29    27    28    1
    30     9    10   ar
    31    12    13   ar
    32    13    14   ar
    33    14    15   ar
    34    15    16    1
    35    21    22   ar
    36    22    23   ar
    37    23    18   ar
    38    15    11   ar
    39    10     1   ar
    40    10     5   ar
    41    28    24    1
    42    34    29    1
@<TRIPOS>MOLECULE
*****
 37 42 0 0 0
SMALL
GASTEIGER

@<TRIPOS>ATOM
      1 C         -22.8572   -8.2469  -14.5822 C.ar    1  UNL1        0.1095
      2 N         -22.6149   -8.2659  -15.9170 N.ar    1  UNL1       -0.1677
      3 N         -23.5387   -7.5211  -16.5142 N.ar    1  UNL1       -0.2319
      4 C         -23.5630   -7.2318  -17.9415 C.3     1  UNL1        0.1554
      5 C         -24.3433   -7.0062  -15.5717 C.ar    1  UNL1        0.1649
      6 N         -25.3646   -6.1349  -15.7527 N.ar    1  UNL1       -0.2121
      7 C         -26.0527   -5.7049  -14.6511 C.ar    1  UNL1        0.1417
      8 N         -25.7185   -6.1732  -13.4038 N.ar    1  UNL1       -0.2159
      9 C         -24.6901   -7.0522  -13.2170 C.ar    1  UNL1        0.1375
     10 C         -23.9694   -7.4505  -14.3432 C.ar    1  UNL1        0.0865
     11 C         -21.9062  -10.1572  -13.1603 C.ar    1  UNL1        0.0809
     12 C         -21.9544   -8.8425  -13.5873 C.ar    1  UNL1        0.0577
     13 C         -21.0718   -8.1664  -12.7664 C.ar    1  UNL1        0.1231
     14 N         -20.5286   -9.0306  -11.8869 N.ar    1  UNL1       -0.1676
     15 N         -21.0321  -10.2306  -12.1323 N.ar    1  UNL1       -0.2488
     16 C         -20.7224  -11.4041  -11.3228 C.3     1  UNL1        0.1537
     17 C         -25.2914  -14.4893  -14.9674 C.3     1  UNL1        0.0310
     18 C         -24.4020  -13.3837  -14.4814 C.ar    1  UNL1       -0.0218
     19 C         -24.8146  -12.5571  -13.4252 C.ar    1  UNL1       -0.0042
     20 C         -24.0017  -11.5042  -12.9955 C.ar    1  UNL1        0.0012
     21 C         -22.7726  -11.2582  -13.6237 C.ar    1  UNL1        0.0174
     22 C         -22.3697  -12.0707  -14.6935 C.ar    1  UNL1        0.0012
     23 C         -23.1819  -13.1236  -15.1236 C.ar    1  UNL1       -0.0042
     24 N         -24.4420   -7.5998  -11.9195 N.pl3   1  UNL1       -0.2917
     25 C         -25.1081   -8.7855  -11.4259 C.3     1  UNL1        0.0937
     26 C         -24.5651   -8.9726  -10.0196 C.3     1  UNL1        0.0391
     27 C         -23.1816   -8.2966  -10.0154 C.3     1  UNL1        0.0790
     28 C         -23.2895   -7.2293  -11.1163 C.3     1  UNL1        0.1081
     29 N         -22.8318   -7.7041   -8.6927 N.3     1  UNL1       -0.2723
     30 C         -22.1974   -8.6611   -7.7525 C.3     1  UNL1        0.0721
     31 C         -20.7632   -9.0291   -8.1623 C.3     1  UNL1        0.0174
     32 C         -19.9031   -7.7721   -8.2919 C.3     1  UNL1        0.0029
     33 C         -20.5598   -6.7578   -9.2283 C.3     1  UNL1        0.0174
     34 C         -22.0087   -6.4724   -8.7986 C.3     1  UNL1        0.0721
     35 C         -27.1946   -4.7392  -14.8146 C.3     1  UNL1        0.0587
     36 C         -28.5368   -5.4715  -14.7197 C.3     1  UNL1        0.0080
     37 C         -27.0733   -3.9867  -16.1431 C.3     1  UNL1        0.0080
@<TRIPOS>BOND
     1    17    18    1
     2    18    19   ar
     3    19    20   ar
     4    20    21   ar
     5    21    11    1
     6    11    12   ar
     7    12     1    1
     8     1     2   ar
     9     2     3   ar
    10     3     4    1
    11     3     5   ar
    12     5     6   ar
    13     6     7   ar
    14     7    35    1
    15    35    36    1
    16    35    37    1
    17     7     8   ar
    18     8     9   ar
    19     9    24    1
    20    24    25    1
    21    25    26    1
    22    26    27    1
    23    27    29    1
    24    29    30    1
    25    30    31    1
    26    31    32    1
    27    32    33    1
    28    33    34    1
    29    27    28    1
    30     9    10   ar
    31    12    13   ar
    32    13    14   ar
    33    14    15   ar
    34    15    16    1
    35    21    22   ar
    36    22    23   ar
    37    23    18   ar
    38    15    11   ar
    39    10     1   ar
    40    10     5   ar
    41    28    24    1
    42    34    29    1
@<TRIPOS>MOLECULE
*****
 37 42 0 0 0
SMALL
GASTEIGER

@<TRIPOS>ATOM
      1 C         -21.5699   -7.5347  -12.7742 C.ar    1  UNL1        0.1095
      2 N         -21.6190   -6.2154  -12.4615 N.ar    1  UNL1       -0.1677
      3 N         -21.2736   -6.0810  -11.1858 N.ar    1  UNL1       -0.2319
      4 C         -21.1285   -4.8015  -10.5050 C.3     1  UNL1        0.1554
      5 C         -20.9766   -7.2947  -10.6963 C.ar    1  UNL1        0.1649
      6 N         -20.5097   -7.5876   -9.4589 N.ar    1  UNL1       -0.2121
      7 C         -20.2409   -8.8954   -9.1603 C.ar    1  UNL1        0.1417
      8 N         -20.4668   -9.8762  -10.0952 N.ar    1  UNL1       -0.2159
      9 C         -20.9381   -9.5852  -11.3436 C.ar    1  UNL1        0.1375
     10 C         -21.1685   -8.2438  -11.6497 C.ar    1  UNL1        0.0865
     11 C         -22.9343   -8.2916  -14.8090 C.ar    1  UNL1        0.0809
     12 C         -21.7488   -8.0501  -14.1387 C.ar    1  UNL1        0.0577
     13 C         -20.7603   -8.5422  -14.9698 C.ar    1  UNL1        0.1231
     14 N         -21.3255   -9.0595  -16.0781 N.ar    1  UNL1       -0.1676
     15 N         -22.6365   -8.9014  -15.9777 N.ar    1  UNL1       -0.2488
     16 C         -23.5776   -9.4108  -16.9692 C.3     1  UNL1        0.1537
     17 C         -28.2648   -7.4582  -12.7151 C.3     1  UNL1        0.0310
     18 C         -26.8728   -7.6664  -13.2336 C.ar    1  UNL1       -0.0218
     19 C         -26.1960   -6.6217  -13.8811 C.ar    1  UNL1       -0.0042
     20 C         -24.9126   -6.8258  -14.3961 C.ar    1  UNL1        0.0012
     21 C         -24.2955   -8.0795  -14.2802 C.ar    1  UNL1        0.0174
     22 C         -24.9803   -9.1300  -13.6523 C.ar    1  UNL1        0.0012
     23 C         -26.2634   -8.9266  -13.1371 C.ar    1  UNL1       -0.0042
     24 N         -21.2630  -10.6415  -12.2512 N.pl3   1  UNL1       -0.2917
     25 C         -20.4388  -11.8192  -12.4145 C.3     1  UNL1        0.0937
     26 C         -21.1445  -12.6355  -13.4837 C.3     1  UNL1        0.0391
     27 C         -22.6257  -12.2208  -13.4125 C.3     1  UNL1        0.0790
     28 C         -22.5821  -10.7947  -12.8404 C.3     1  UNL1        0.1081
     29 N         -23.3047  -12.2720  -14.7389 N.3     1  UNL1       -0.2723
     30 C         -22.7946  -13.3384  -15.6362 C.3     1  UNL1        0.0721
     31 C         -23.2069  -14.7449  -15.1760 C.3     1  UNL1        0.0174
     32 C         -24.7272  -14.8450  -15.0530 C.3     1  UNL1        0.0029
     33 C         -25.2754  -13.7305  -14.1616 C.3     1  UNL1        0.0174
     34 C         -24.7843  -12.3538  -14.6400 C.3     1  UNL1        0.0721
     35 C         -19.7236   -9.2580   -7.7950 C.3     1  UNL1        0.0587
     36 C         -19.4862   -7.9978   -6.9570 C.3     1  UNL1        0.0080
     37 C         -18.4421  -10.0887   -7.9112 C.3     1  UNL1        0.0080
@<TRIPOS>BOND
     1    17    18    1
     2    18    19   ar
     3    19    20   ar
     4    20    21   ar
     5    21    11    1
     6    11    12   ar
     7    12     1    1
     8     1     2   ar
     9     2     3   ar
    10     3     4    1
    11     3     5   ar
    12     5     6   ar
    13     6     7   ar
    14     7    35    1
    15    35    36    1
    16    35    37    1
    17     7     8   ar
    18     8     9   ar
    19     9    24    1
    20    24    25    1
    21    25    26    1
    22    26    27    1
    23    27    29    1
    24    29    30    1
    25    30    31    1
    26    31    32    1
    27    32    33    1
    28    33    34    1
    29    27    28    1
    30     9    10   ar
    31    12    13   ar
    32    13    14   ar
    33    14    15   ar
    34    15    16    1
    35    21    22   ar
    36    22    23   ar
    37    23    18   ar
    38    15    11   ar
    39    10     1   ar
    40    10     5   ar
    41    28    24    1
    42    34    29    1
@<TRIPOS>MOLECULE
*****
 37 42 0 0 0
SMALL
GASTEIGER

@<TRIPOS>ATOM
      1 C         -20.7391   -9.8334  -11.4602 C.ar    1  UNL1        0.1095
      2 N         -19.8341  -10.4956  -10.6965 N.ar    1  UNL1       -0.1677
      3 N         -19.8443  -11.7733  -11.0602 N.ar    1  UNL1       -0.2319
      4 C         -18.9465  -12.7868  -10.5231 C.3     1  UNL1        0.1554
      5 C         -20.7214  -11.9217  -12.0650 C.ar    1  UNL1        0.1649
      6 N         -20.9779  -13.0502  -12.7690 N.ar    1  UNL1       -0.2121
      7 C         -21.8963  -12.9881  -13.7811 C.ar    1  UNL1        0.1417
      8 N         -22.5495  -11.8094  -14.0475 N.ar    1  UNL1       -0.2159
      9 C         -22.2943  -10.6696  -13.3397 C.ar    1  UNL1        0.1375
     10 C         -21.3255  -10.7356  -12.3381 C.ar    1  UNL1        0.0865
     11 C         -20.9952   -7.5419  -10.3383 C.ar    1  UNL1        0.0809
     12 C         -20.9007   -8.3729  -11.4399 C.ar    1  UNL1        0.0577
     13 C         -21.1449   -7.5558  -12.5274 C.ar    1  UNL1        0.1231
     14 N         -21.3818   -6.3007  -12.0985 N.ar    1  UNL1       -0.1676
     15 N         -21.2856   -6.2974  -10.7777 N.ar    1  UNL1       -0.2488
     16 C         -21.5531   -5.1169   -9.9635 C.3     1  UNL1        0.1537
     17 C         -20.8367   -9.1993   -4.7957 C.3     1  UNL1        0.0310
     18 C         -20.8696   -8.7949   -6.2397 C.ar    1  UNL1       -0.0218
     19 C         -19.7347   -8.2308   -6.8419 C.ar    1  UNL1       -0.0042
     20 C         -19.7760   -7.8209   -8.1777 C.ar    1  UNL1        0.0012
     21 C         -20.9552   -7.9593   -8.9235 C.ar    1  UNL1        0.0174
     22 C         -22.0961   -8.5030   -8.3156 C.ar    1  UNL1        0.0012
     23 C         -22.0555   -8.9132   -6.9802 C.ar    1  UNL1       -0.0042
     24 N         -23.0707   -9.4917  -13.5737 N.pl3   1  UNL1       -0.2917
     25 C         -22.8530   -8.6186  -14.7065 C.3     1  UNL1        0.0937
     26 C         -23.8691   -7.5031  -14.5314 C.3     1  UNL1        0.0391
     27 C         -25.0145   -8.1113  -13.7012 C.3     1  UNL1        0.0790
     28 C         -24.3350   -9.2369  -12.9048 C.3     1  UNL1        0.1081
     29 N         -25.6753   -7.1148  -12.8106 N.3     1  UNL1       -0.2723
     30 C         -25.7114   -5.7396  -13.3674 C.3     1  UNL1        0.0721
     31 C         -26.6944   -5.6027  -14.5401 C.3     1  UNL1        0.0174
     32 C         -28.0982   -6.0347  -14.1167 C.3     1  UNL1        0.0029
     33 C         -28.0750   -7.4358  -13.5055 C.3     1  UNL1        0.0174
     34 C         -27.0351   -7.5243  -12.3758 C.3     1  UNL1        0.0721
     35 C         -22.2083  -14.2225  -14.5824 C.3     1  UNL1        0.0587
     36 C         -21.6243  -14.1100  -15.9941 C.3     1  UNL1        0.0080
     37 C         -23.7206  -14.4605  -14.6320 C.3     1  UNL1        0.0080
@<TRIPOS>BOND
     1    17    18    1
     2    18    19   ar
     3    19    20   ar
     4    20    21   ar
     5    21    11    1
     6    11    12   ar
     7    12     1    1
     8     1     2   ar
     9     2     3   ar
    10     3     4    1
    11     3     5   ar
    12     5     6   ar
    13     6     7   ar
    14     7    35    1
    15    35    36    1
    16    35    37    1
    17     7     8   ar
    18     8     9   ar
    19     9    24    1
    20    24    25    1
    21    25    26    1
    22    26    27    1
    23    27    29    1
    24    29    30    1
    25    30    31    1
    26    31    32    1
    27    32    33    1
    28    33    34    1
    29    27    28    1
    30     9    10   ar
    31    12    13   ar
    32    13    14   ar
    33    14    15   ar
    34    15    16    1
    35    21    22   ar
    36    22    23   ar
    37    23    18   ar
    38    15    11   ar
    39    10     1   ar
    40    10     5   ar
    41    28    24    1
    42    34    29    1
@<TRIPOS>MOLECULE
*****
 37 42 0 0 0
SMALL
GASTEIGER

@<TRIPOS>ATOM
      1 C         -22.2417   -9.0550  -12.6254 C.ar    1  UNL1        0.1095
      2 N         -21.5451   -7.9402  -12.2893 N.ar    1  UNL1       -0.1677
      3 N         -22.3709   -6.9019  -12.3583 N.ar    1  UNL1       -0.2319
      4 C         -22.0099   -5.5401  -11.9884 C.3     1  UNL1        0.1554
      5 C         -23.5881   -7.3496  -12.7033 C.ar    1  UNL1        0.1649
      6 N         -24.7279   -6.6254  -12.8098 N.ar    1  UNL1       -0.2121
      7 C         -25.8809   -7.2780  -13.1510 C.ar    1  UNL1        0.1417
      8 N         -25.8606   -8.6289  -13.3989 N.ar    1  UNL1       -0.2159
      9 C         -24.7135   -9.3626  -13.2933 C.ar    1  UNL1        0.1375
     10 C         -23.5532   -8.6931  -12.9038 C.ar    1  UNL1        0.0865
     11 C         -20.9424  -10.9530  -11.4921 C.ar    1  UNL1        0.0809
     12 C         -21.6928  -10.4142  -12.5214 C.ar    1  UNL1        0.0577
     13 C         -21.6904  -11.3797  -13.5103 C.ar    1  UNL1        0.1231
     14 N         -20.9684  -12.4397  -13.0975 N.ar    1  UNL1       -0.1676
     15 N         -20.5236  -12.1786  -11.8778 N.ar    1  UNL1       -0.2488
     16 C         -19.6411  -13.0785  -11.1432 C.3     1  UNL1        0.1537
     17 C         -19.3019   -8.2121   -6.6662 C.3     1  UNL1        0.0310
     18 C         -19.7237   -8.8992   -7.9310 C.ar    1  UNL1       -0.0218
     19 C         -21.0781   -8.9403   -8.2954 C.ar    1  UNL1       -0.0042
     20 C         -21.4757   -9.6112   -9.4555 C.ar    1  UNL1        0.0012
     21 C         -20.5259  -10.2583  -10.2586 C.ar    1  UNL1        0.0174
     22 C         -19.1748  -10.2359   -9.8832 C.ar    1  UNL1        0.0012
     23 C         -18.7765   -9.5653   -8.7235 C.ar    1  UNL1       -0.0042
     24 N         -24.7094  -10.7438  -13.6639 N.pl3   1  UNL1       -0.2917
     25 C         -24.5242  -11.8138  -12.7080 C.3     1  UNL1        0.0937
     26 C         -24.5616  -13.0831  -13.5418 C.3     1  UNL1        0.0391
     27 C         -25.3912  -12.7347  -14.7913 C.3     1  UNL1        0.0790
     28 C         -25.2072  -11.2163  -14.9444 C.3     1  UNL1        0.1081
     29 N         -24.9478  -13.4781  -16.0053 N.3     1  UNL1       -0.2723
     30 C         -24.0006  -12.7225  -16.8621 C.3     1  UNL1        0.0721
     31 C         -22.6092  -12.5845  -16.2256 C.3     1  UNL1        0.0174
     32 C         -22.0327  -13.9604  -15.8925 C.3     1  UNL1        0.0029
     33 C         -23.0117  -14.7686  -15.0407 C.3     1  UNL1        0.0174
     34 C         -24.3986  -14.8245  -15.7031 C.3     1  UNL1        0.0721
     35 C         -27.1651   -6.5053  -13.2811 C.3     1  UNL1        0.0587
     36 C         -28.3101   -7.4311  -13.7034 C.3     1  UNL1        0.0080
     37 C         -26.9976   -5.3519  -14.2749 C.3     1  UNL1        0.0080
@<TRIPOS>BOND
     1    17    18    1
     2    18    19   ar
     3    19    20   ar
     4    20    21   ar
     5    21    11    1
     6    11    12   ar
     7    12     1    1
     8     1     2   ar
     9     2     3   ar
    10     3     4    1
    11     3     5   ar
    12     5     6   ar
    13     6     7   ar
    14     7    35    1
    15    35    36    1
    16    35    37    1
    17     7     8   ar
    18     8     9   ar
    19     9    24    1
    20    24    25    1
    21    25    26    1
    22    26    27    1
    23    27    29    1
    24    29    30    1
    25    30    31    1
    26    31    32    1
    27    32    33    1
    28    33    34    1
    29    27    28    1
    30     9    10   ar
    31    12    13   ar
    32    13    14   ar
    33    14    15   ar
    34    15    16    1
    35    21    22   ar
    36    22    23   ar
    37    23    18   ar
    38    15    11   ar
    39    10     1   ar
    40    10     5   ar
    41    28    24    1
    42    34    29    1
