@<TRIPOS>MOLECULE
*****
 35 38 0 0 0
SMALL
GASTEIGER

@<TRIPOS>ATOM
      1 C         -19.0765  -10.4422   -9.2632 C.ar    1  UNL1        0.1718
      2 C         -19.0784  -11.3709  -10.3154 C.ar    1  UNL1        0.0400
      3 C         -19.9500  -11.2171  -11.3897 C.ar    1  UNL1        0.0030
      4 C         -20.8640  -10.1530  -11.4267 C.ar    1  UNL1       -0.0014
      5 C         -20.9203   -9.2490  -10.3378 C.ar    1  UNL1        0.0153
      6 C         -19.9764   -9.3666   -9.2843 C.ar    1  UNL1        0.1636
      7 O         -19.8861   -8.4287   -8.2513 O.3     1  UNL1       -0.5031
      8 C         -21.9755   -8.1669  -10.3528 C.3     1  UNL1        0.0403
      9 C         -21.5858   -7.0525  -11.3297 C.3     1  UNL1        0.0613
     10 I         -23.1449   -5.5822  -11.3903 I       1  UNL1       -0.0746
     11 C         -21.2113   -7.5582  -12.7464 C.3     1  UNL1        0.0331
     12 C         -21.9725   -8.7944  -13.2094 C.2     1  UNL1       -0.0390
     13 C         -21.7596  -10.0064  -12.6149 C.2     1  UNL1       -0.0076
     14 H         -20.3563   -7.5344   -8.2562 H       1  UNL1        0.2923
     15 C         -22.4134  -11.2427  -13.1038 C.ar    1  UNL1        0.0056
     16 C         -23.7339  -11.5351  -12.7474 C.ar    1  UNL1        0.0402
     17 C         -24.3739  -12.6911  -13.2342 C.ar    1  UNL1        0.1754
     18 C         -23.6669  -13.5564  -14.1104 C.ar    1  UNL1        0.2061
     19 C         -22.3484  -13.2438  -14.4841 C.ar    1  UNL1        0.1754
     20 C         -21.7334  -12.0823  -13.9875 C.ar    1  UNL1        0.0402
     21 O         -25.6945  -12.9908  -12.8642 O.3     1  UNL1       -0.4683
     22 C         -26.0979  -14.1508  -12.1431 C.3     1  UNL1        0.2526
     23 O         -24.2113  -14.7388  -14.6480 O.3     1  UNL1       -0.4654
     24 C         -24.9662  -14.8565  -15.8487 C.3     1  UNL1        0.2528
     25 O         -21.6798  -14.1189  -15.3560 O.3     1  UNL1       -0.4683
     26 C         -21.4033  -13.8409  -16.7250 C.3     1  UNL1        0.2526
     27 C         -17.2362  -11.5934   -8.0156 C.3     1  UNL1        0.2526
     28 O         -18.1864  -10.5458   -8.1820 O.3     1  UNL1       -0.4684
     29 C         -22.8999   -8.6269  -14.4039 C.3     1  UNL1        0.0483
     30 C         -24.2324   -8.0564  -13.9962 C.ar    1  UNL1       -0.0181
     31 C         -25.0444   -8.7385  -13.0736 C.ar    1  UNL1       -0.0039
     32 C         -26.2922   -8.2213  -12.7140 C.ar    1  UNL1       -0.0003
     33 C         -26.7443   -7.0263  -13.2794 C.ar    1  UNL1       -0.0000
     34 C         -25.9496   -6.3472  -14.2067 C.ar    1  UNL1       -0.0003
     35 C         -24.6991   -6.8592  -14.5669 C.ar    1  UNL1       -0.0039
@<TRIPOS>BOND
     1    27    28    1
     2    28     1    1
     3     1     2   ar
     4     2     3   ar
     5     3     4   ar
     6     4     5   ar
     7     5     6   ar
     8     6     7    1
     9     5     8    1
    10     8     9    1
    11     9    10    1
    12     9    11    1
    13    11    12    1
    14    12    29    1
    15    29    30    1
    16    30    31   ar
    17    31    32   ar
    18    32    33   ar
    19    33    34   ar
    20    34    35   ar
    21    12    13    2
    22    13    15    1
    23    15    16   ar
    24    16    17   ar
    25    17    21    1
    26    21    22    1
    27    17    18   ar
    28    18    23    1
    29    23    24    1
    30    18    19   ar
    31    19    25    1
    32    25    26    1
    33    19    20   ar
    34     6     1   ar
    35    35    30   ar
    36    20    15   ar
    37    13     4    1
    38     7    14    1
@<TRIPOS>MOLECULE
*****
 35 38 0 0 0
SMALL
GASTEIGER

@<TRIPOS>ATOM
      1 C         -19.1915  -10.3659   -9.3035 C.ar    1  UNL1        0.1718
      2 C         -19.1707  -11.2733  -10.3740 C.ar    1  UNL1        0.0400
      3 C         -20.0295  -11.1059  -11.4565 C.ar    1  UNL1        0.0030
      4 C         -20.9530  -10.0498  -11.4845 C.ar    1  UNL1       -0.0014
      5 C         -21.0323   -9.1685  -10.3786 C.ar    1  UNL1        0.0153
      6 C         -20.1012   -9.2985   -9.3151 C.ar    1  UNL1        0.1636
      7 O         -20.0335   -8.3808   -8.2624 O.3     1  UNL1       -0.5031
      8 C         -22.0974   -8.0961  -10.3860 C.3     1  UNL1        0.0403
      9 C         -21.7055   -6.9587  -11.3352 C.3     1  UNL1        0.0613
     10 I         -23.2776   -5.5020  -11.3872 I       1  UNL1       -0.0746
     11 C         -21.3076   -7.4323  -12.7565 C.3     1  UNL1        0.0331
     12 C         -22.0508   -8.6660  -13.2543 C.2     1  UNL1       -0.0390
     13 C         -21.8342   -9.8876  -12.6814 C.2     1  UNL1       -0.0076
     14 H         -20.5120   -7.4910   -8.2557 H       1  UNL1        0.2923
     15 C         -22.4698  -11.1198  -13.2035 C.ar    1  UNL1        0.0056
     16 C         -21.7530  -11.9927  -14.0284 C.ar    1  UNL1        0.0402
     17 C         -22.3385  -13.1825  -14.5023 C.ar    1  UNL1        0.1754
     18 C         -23.6685  -13.4994  -14.1190 C.ar    1  UNL1        0.2061
     19 C         -24.3748  -12.6300  -13.2699 C.ar    1  UNL1        0.1754
     20 C         -23.7668  -11.4508  -12.8078 C.ar    1  UNL1        0.0402
     21 O         -21.6226  -14.0505  -15.3418 O.3     1  UNL1       -0.4683
     22 C         -21.4021  -13.8441  -16.7336 C.3     1  UNL1        0.2526
     23 O         -24.3479  -14.6586  -14.5412 O.3     1  UNL1       -0.4654
     24 C         -24.9650  -14.8676  -15.8065 C.3     1  UNL1        0.2528
     25 O         -25.6867  -12.9762  -12.9069 O.3     1  UNL1       -0.4683
     26 C         -26.0313  -14.0851  -12.0824 C.3     1  UNL1        0.2526
     27 C         -17.3452  -11.5152   -8.0631 C.3     1  UNL1        0.2526
     28 O         -18.3147  -10.4831   -8.2127 O.3     1  UNL1       -0.4684
     29 C         -22.9640   -8.4830  -14.4575 C.3     1  UNL1        0.0483
     30 C         -24.3096   -7.9402  -14.0554 C.ar    1  UNL1       -0.0181
     31 C         -25.1275   -8.6579  -13.1655 C.ar    1  UNL1       -0.0039
     32 C         -26.3872   -8.1660  -12.8116 C.ar    1  UNL1       -0.0003
     33 C         -26.8452   -6.9610  -13.3504 C.ar    1  UNL1       -0.0000
     34 C         -26.0444   -6.2465  -14.2454 C.ar    1  UNL1       -0.0003
     35 C         -24.7821   -6.7330  -14.5997 C.ar    1  UNL1       -0.0039
@<TRIPOS>BOND
     1    27    28    1
     2    28     1    1
     3     1     2   ar
     4     2     3   ar
     5     3     4   ar
     6     4     5   ar
     7     5     6   ar
     8     6     7    1
     9     5     8    1
    10     8     9    1
    11     9    10    1
    12     9    11    1
    13    11    12    1
    14    12    29    1
    15    29    30    1
    16    30    31   ar
    17    31    32   ar
    18    32    33   ar
    19    33    34   ar
    20    34    35   ar
    21    12    13    2
    22    13    15    1
    23    15    16   ar
    24    16    17   ar
    25    17    21    1
    26    21    22    1
    27    17    18   ar
    28    18    23    1
    29    23    24    1
    30    18    19   ar
    31    19    25    1
    32    25    26    1
    33    19    20   ar
    34     6     1   ar
    35    35    30   ar
    36    20    15   ar
    37    13     4    1
    38     7    14    1
@<TRIPOS>MOLECULE
*****
 35 38 0 0 0
SMALL
GASTEIGER

@<TRIPOS>ATOM
      1 C         -27.6517   -6.3759  -13.7834 C.ar    1  UNL1        0.1718
      2 C         -28.0268   -7.7251  -13.6895 C.ar    1  UNL1        0.0400
      3 C         -27.0817   -8.6996  -13.3816 C.ar    1  UNL1        0.0030
      4 C         -25.7338   -8.3588  -13.1921 C.ar    1  UNL1       -0.0014
      5 C         -25.3300   -7.0108  -13.3532 C.ar    1  UNL1        0.0153
      6 C         -26.3110   -6.0125  -13.5896 C.ar    1  UNL1        0.1636
      7 O         -26.0003   -4.6496  -13.6208 O.3     1  UNL1       -0.5031
      8 C         -23.8596   -6.6799  -13.2390 C.3     1  UNL1        0.0403
      9 C         -23.4200   -6.6942  -11.7711 C.3     1  UNL1        0.0613
     10 I         -21.3142   -6.3090  -11.6554 I       1  UNL1       -0.0746
     11 C         -23.8158   -7.9835  -11.0068 C.3     1  UNL1        0.0331
     12 C         -23.8234   -9.2532  -11.8494 C.2     1  UNL1       -0.0390
     13 C         -24.7576   -9.4320  -12.8305 C.2     1  UNL1       -0.0076
     14 H         -25.1144   -4.2642  -13.3251 H       1  UNL1        0.2923
     15 C         -24.8495  -10.6934  -13.6021 C.ar    1  UNL1        0.0056
     16 C         -24.4689  -10.7312  -14.9474 C.ar    1  UNL1        0.0402
     17 C         -24.5218  -11.9331  -15.6792 C.ar    1  UNL1        0.1754
     18 C         -24.9528  -13.1201  -15.0298 C.ar    1  UNL1        0.2061
     19 C         -25.3105  -13.0802  -13.6711 C.ar    1  UNL1        0.1754
     20 C         -25.2455  -11.8690  -12.9622 C.ar    1  UNL1        0.0402
     21 O         -24.1532  -11.9665  -17.0333 O.3     1  UNL1       -0.4683
     22 C         -22.8688  -11.6162  -17.5394 C.3     1  UNL1        0.2526
     23 O         -25.0477  -14.3706  -15.6705 O.3     1  UNL1       -0.4654
     24 C         -23.9834  -15.2846  -15.9104 C.3     1  UNL1        0.2528
     25 O         -25.7279  -14.2734  -13.0587 O.3     1  UNL1       -0.4683
     26 C         -26.4046  -14.3461  -11.8078 C.3     1  UNL1        0.2526
     27 C         -29.5338   -5.4024  -15.1169 C.3     1  UNL1        0.2526
     28 O         -28.5846   -5.3623  -14.0560 O.3     1  UNL1       -0.4684
     29 C         -22.8087  -10.3277  -11.4877 C.3     1  UNL1        0.0483
     30 C         -21.7314   -9.7915  -10.5827 C.ar    1  UNL1       -0.0181
     31 C         -20.3882   -9.7977  -10.9969 C.ar    1  UNL1       -0.0039
     32 C         -19.3852   -9.3228  -10.1468 C.ar    1  UNL1       -0.0003
     33 C         -19.7125   -8.8487   -8.8740 C.ar    1  UNL1       -0.0000
     34 C         -21.0435   -8.8499   -8.4486 C.ar    1  UNL1       -0.0003
     35 C         -22.0506   -9.3209   -9.2968 C.ar    1  UNL1       -0.0039
@<TRIPOS>BOND
     1    27    28    1
     2    28     1    1
     3     1     2   ar
     4     2     3   ar
     5     3     4   ar
     6     4     5   ar
     7     5     6   ar
     8     6     7    1
     9     5     8    1
    10     8     9    1
    11     9    10    1
    12     9    11    1
    13    11    12    1
    14    12    29    1
    15    29    30    1
    16    30    31   ar
    17    31    32   ar
    18    32    33   ar
    19    33    34   ar
    20    34    35   ar
    21    12    13    2
    22    13    15    1
    23    15    16   ar
    24    16    17   ar
    25    17    21    1
    26    21    22    1
    27    17    18   ar
    28    18    23    1
    29    23    24    1
    30    18    19   ar
    31    19    25    1
    32    25    26    1
    33    19    20   ar
    34     6     1   ar
    35    35    30   ar
    36    20    15   ar
    37    13     4    1
    38     7    14    1
@<TRIPOS>MOLECULE
*****
 35 38 0 0 0
SMALL
GASTEIGER

@<TRIPOS>ATOM
      1 C         -27.6304   -6.4143  -13.7686 C.ar    1  UNL1        0.1718
      2 C         -27.9862   -7.7690  -13.6799 C.ar    1  UNL1        0.0400
      3 C         -27.0301   -8.7295  -13.3624 C.ar    1  UNL1        0.0030
      4 C         -25.6896   -8.3687  -13.1578 C.ar    1  UNL1       -0.0014
      5 C         -25.3043   -7.0147  -13.3133 C.ar    1  UNL1        0.0153
      6 C         -26.2975   -6.0310  -13.5597 C.ar    1  UNL1        0.1636
      7 O         -26.0070   -4.6636  -13.5864 O.3     1  UNL1       -0.5031
      8 C         -23.8405   -6.6619  -13.1826 C.3     1  UNL1        0.0403
      9 C         -23.4169   -6.6710  -11.7100 C.3     1  UNL1        0.0613
     10 I         -21.3185   -6.2543  -11.5707 I       1  UNL1       -0.0746
     11 C         -23.8016   -7.9668  -10.9511 C.3     1  UNL1        0.0331
     12 C         -23.7809   -9.2357  -11.7947 C.2     1  UNL1       -0.0390
     13 C         -24.7015   -9.4276  -12.7863 C.2     1  UNL1       -0.0076
     14 H         -25.1304   -4.2652  -13.2806 H       1  UNL1        0.2923
     15 C         -24.7658  -10.6895  -13.5599 C.ar    1  UNL1        0.0056
     16 C         -25.2230  -11.8669  -12.9593 C.ar    1  UNL1        0.0402
     17 C         -25.3185  -13.0632  -13.6961 C.ar    1  UNL1        0.1754
     18 C         -24.9594  -13.0601  -15.0699 C.ar    1  UNL1        0.2061
     19 C         -24.5241  -11.8676  -15.6735 C.ar    1  UNL1        0.1754
     20 C         -24.4410  -10.6865  -14.9174 C.ar    1  UNL1        0.0402
     21 O         -25.7639  -14.2476  -13.0882 O.3     1  UNL1       -0.4683
     22 C         -26.4308  -14.3205  -11.8319 C.3     1  UNL1        0.2526
     23 O         -25.0124  -14.2011  -15.8937 O.3     1  UNL1       -0.4654
     24 C         -24.0409  -15.2383  -15.9711 C.3     1  UNL1        0.2528
     25 O         -24.1812  -11.8990  -17.0352 O.3     1  UNL1       -0.4683
     26 C         -22.8753  -11.6499  -17.5458 C.3     1  UNL1        0.2526
     27 C         -29.5654   -5.5037  -15.0704 C.3     1  UNL1        0.2526
     28 O         -28.5754   -5.4146  -14.0507 O.3     1  UNL1       -0.4684
     29 C         -22.7542  -10.2952  -11.4228 C.3     1  UNL1        0.0483
     30 C         -21.7054   -9.7486  -10.4909 C.ar    1  UNL1       -0.0181
     31 C         -20.3527   -9.7372  -10.8730 C.ar    1  UNL1       -0.0039
     32 C         -19.3762   -9.2526   -9.9981 C.ar    1  UNL1       -0.0003
     33 C         -19.7394   -8.7863   -8.7321 C.ar    1  UNL1       -0.0000
     34 C         -21.0800   -8.8050   -8.3385 C.ar    1  UNL1       -0.0003
     35 C         -22.0608   -9.2857   -9.2118 C.ar    1  UNL1       -0.0039
@<TRIPOS>BOND
     1    27    28    1
     2    28     1    1
     3     1     2   ar
     4     2     3   ar
     5     3     4   ar
     6     4     5   ar
     7     5     6   ar
     8     6     7    1
     9     5     8    1
    10     8     9    1
    11     9    10    1
    12     9    11    1
    13    11    12    1
    14    12    29    1
    15    29    30    1
    16    30    31   ar
    17    31    32   ar
    18    32    33   ar
    19    33    34   ar
    20    34    35   ar
    21    12    13    2
    22    13    15    1
    23    15    16   ar
    24    16    17   ar
    25    17    21    1
    26    21    22    1
    27    17    18   ar
    28    18    23    1
    29    23    24    1
    30    18    19   ar
    31    19    25    1
    32    25    26    1
    33    19    20   ar
    34     6     1   ar
    35    35    30   ar
    36    20    15   ar
    37    13     4    1
    38     7    14    1
@<TRIPOS>MOLECULE
*****
 35 38 0 0 0
SMALL
GASTEIGER

@<TRIPOS>ATOM
      1 C         -27.8344   -6.2998  -13.9612 C.ar    1  UNL1        0.1718
      2 C         -28.2453   -7.6386  -13.8687 C.ar    1  UNL1        0.0400
      3 C         -27.3346   -8.6330  -13.5232 C.ar    1  UNL1        0.0030
      4 C         -25.9854   -8.3234  -13.2936 C.ar    1  UNL1       -0.0014
      5 C         -25.5438   -6.9871  -13.4525 C.ar    1  UNL1        0.0153
      6 C         -26.4920   -5.9674  -13.7278 C.ar    1  UNL1        0.1636
      7 O         -26.1472   -4.6127  -13.7599 O.3     1  UNL1       -0.5031
      8 C         -24.0701   -6.6910  -13.2941 C.3     1  UNL1        0.0403
      9 C         -23.6776   -6.7032  -11.8129 C.3     1  UNL1        0.0613
     10 I         -21.5677   -6.3682  -11.6333 I       1  UNL1       -0.0746
     11 C         -24.1288   -7.9758  -11.0515 C.3     1  UNL1        0.0331
     12 C         -24.1409   -9.2522  -11.8838 C.2     1  UNL1       -0.0390
     13 C         -25.0478   -9.4169  -12.8927 C.2     1  UNL1       -0.0076
     14 H         -25.2620   -4.2464  -13.4391 H       1  UNL1        0.2923
     15 C         -25.1461  -10.6823  -13.6568 C.ar    1  UNL1        0.0056
     16 C         -24.7787  -10.7267  -15.0056 C.ar    1  UNL1        0.0402
     17 C         -24.8378  -11.9324  -15.7306 C.ar    1  UNL1        0.1754
     18 C         -25.2614  -13.1164  -15.0709 C.ar    1  UNL1        0.2061
     19 C         -25.6057  -13.0698  -13.7090 C.ar    1  UNL1        0.1754
     20 C         -25.5349  -11.8549  -13.0070 C.ar    1  UNL1        0.0402
     21 O         -24.4824  -11.9725  -17.0881 O.3     1  UNL1       -0.4683
     22 C         -23.2769  -11.4450  -17.6331 C.3     1  UNL1        0.2526
     23 O         -25.3615  -14.3703  -15.7042 O.3     1  UNL1       -0.4654
     24 C         -24.2848  -15.2319  -16.0565 C.3     1  UNL1        0.2528
     25 O         -26.0161  -14.2601  -13.0864 O.3     1  UNL1       -0.4683
     26 C         -26.4855  -14.3504  -11.7449 C.3     1  UNL1        0.2526
     27 C         -29.8526   -5.4033  -15.1409 C.3     1  UNL1        0.2526
     28 O         -28.7332   -5.2663  -14.2714 O.3     1  UNL1       -0.4684
     29 C         -23.1648  -10.3479  -11.4816 C.3     1  UNL1        0.0483
     30 C         -22.3824  -10.8554  -12.6637 C.ar    1  UNL1       -0.0181
     31 C         -21.9223   -9.9622  -13.6467 C.ar    1  UNL1       -0.0039
     32 C         -21.2173  -10.4363  -14.7568 C.ar    1  UNL1       -0.0003
     33 C         -20.9754  -11.8049  -14.9006 C.ar    1  UNL1       -0.0000
     34 C         -21.4395  -12.7018  -13.9348 C.ar    1  UNL1       -0.0003
     35 C         -22.1423  -12.2317  -12.8209 C.ar    1  UNL1       -0.0039
@<TRIPOS>BOND
     1    27    28    1
     2    28     1    1
     3     1     2   ar
     4     2     3   ar
     5     3     4   ar
     6     4     5   ar
     7     5     6   ar
     8     6     7    1
     9     5     8    1
    10     8     9    1
    11     9    10    1
    12     9    11    1
    13    11    12    1
    14    12    29    1
    15    29    30    1
    16    30    31   ar
    17    31    32   ar
    18    32    33   ar
    19    33    34   ar
    20    34    35   ar
    21    12    13    2
    22    13    15    1
    23    15    16   ar
    24    16    17   ar
    25    17    21    1
    26    21    22    1
    27    17    18   ar
    28    18    23    1
    29    23    24    1
    30    18    19   ar
    31    19    25    1
    32    25    26    1
    33    19    20   ar
    34     6     1   ar
    35    35    30   ar
    36    20    15   ar
    37    13     4    1
    38     7    14    1
@<TRIPOS>MOLECULE
*****
 35 38 0 0 0
SMALL
GASTEIGER

@<TRIPOS>ATOM
      1 C         -21.6294  -13.1881  -14.2935 C.ar    1  UNL1        0.1718
      2 C         -21.7323  -12.9883  -12.9081 C.ar    1  UNL1        0.0400
      3 C         -21.8877  -11.7055  -12.3907 C.ar    1  UNL1        0.0030
      4 C         -21.9113  -10.5871  -13.2378 C.ar    1  UNL1       -0.0014
      5 C         -21.7381  -10.7691  -14.6316 C.ar    1  UNL1        0.0153
      6 C         -21.6589  -12.0846  -15.1586 C.ar    1  UNL1        0.1636
      7 O         -21.6268  -12.3404  -16.5329 O.3     1  UNL1       -0.5031
      8 C         -21.6711   -9.5450  -15.5158 C.3     1  UNL1        0.0403
      9 C         -23.0690   -8.9485  -15.7113 C.3     1  UNL1        0.0613
     10 I         -22.9230   -7.1669  -16.8950 I       1  UNL1       -0.0746
     11 C         -23.8408   -8.7039  -14.3894 C.3     1  UNL1        0.0331
     12 C         -22.9703   -8.3222  -13.1983 C.2     1  UNL1       -0.0390
     13 C         -22.1132   -9.2302  -12.6431 C.2     1  UNL1       -0.0076
     14 H         -21.8167  -11.6465  -17.2422 H       1  UNL1        0.2923
     15 C         -21.3241   -8.9192  -11.4283 C.ar    1  UNL1        0.0056
     16 C         -20.1856   -9.6671  -11.1115 C.ar    1  UNL1        0.0402
     17 C         -19.4111   -9.3575   -9.9768 C.ar    1  UNL1        0.1754
     18 C         -19.7898   -8.2600   -9.1592 C.ar    1  UNL1        0.2061
     19 C         -20.9211   -7.4974   -9.4970 C.ar    1  UNL1        0.1754
     20 C         -21.6750   -7.8246  -10.6364 C.ar    1  UNL1        0.0402
     21 O         -18.2767  -10.1180   -9.6521 O.3     1  UNL1       -0.4683
     22 C         -18.2616  -11.5322   -9.4840 C.3     1  UNL1        0.2526
     23 O         -19.0893   -7.8704   -8.0013 O.3     1  UNL1       -0.4654
     24 C         -19.2422   -8.4118   -6.6939 C.3     1  UNL1        0.2528
     25 O         -21.2647   -6.4160   -8.6691 O.3     1  UNL1       -0.4683
     26 C         -21.7229   -5.1521   -9.1389 C.3     1  UNL1        0.2526
     27 C         -22.6068  -15.3157  -15.1804 C.3     1  UNL1        0.2526
     28 O         -21.5084  -14.4707  -14.8525 O.3     1  UNL1       -0.4684
     29 C         -23.1671   -6.9297  -12.6176 C.3     1  UNL1        0.0483
     30 C         -24.5890   -6.7094  -12.1739 C.ar    1  UNL1       -0.0181
     31 C         -25.2682   -7.7032  -11.4480 C.ar    1  UNL1       -0.0039
     32 C         -26.5962   -7.5088  -11.0575 C.ar    1  UNL1       -0.0003
     33 C         -27.2602   -6.3273  -11.3972 C.ar    1  UNL1       -0.0000
     34 C         -26.5974   -5.3387  -12.1292 C.ar    1  UNL1       -0.0003
     35 C         -25.2677   -5.5275  -12.5191 C.ar    1  UNL1       -0.0039
@<TRIPOS>BOND
     1    27    28    1
     2    28     1    1
     3     1     2   ar
     4     2     3   ar
     5     3     4   ar
     6     4     5   ar
     7     5     6   ar
     8     6     7    1
     9     5     8    1
    10     8     9    1
    11     9    10    1
    12     9    11    1
    13    11    12    1
    14    12    29    1
    15    29    30    1
    16    30    31   ar
    17    31    32   ar
    18    32    33   ar
    19    33    34   ar
    20    34    35   ar
    21    12    13    2
    22    13    15    1
    23    15    16   ar
    24    16    17   ar
    25    17    21    1
    26    21    22    1
    27    17    18   ar
    28    18    23    1
    29    23    24    1
    30    18    19   ar
    31    19    25    1
    32    25    26    1
    33    19    20   ar
    34     6     1   ar
    35    35    30   ar
    36    20    15   ar
    37    13     4    1
    38     7    14    1
@<TRIPOS>MOLECULE
*****
 35 38 0 0 0
SMALL
GASTEIGER

@<TRIPOS>ATOM
      1 C         -21.6193  -13.2228  -14.3268 C.ar    1  UNL1        0.1718
      2 C         -21.6982  -13.0234  -12.9398 C.ar    1  UNL1        0.0400
      3 C         -21.8454  -11.7408  -12.4194 C.ar    1  UNL1        0.0030
      4 C         -21.8842  -10.6222  -13.2657 C.ar    1  UNL1       -0.0014
      5 C         -21.7350  -10.8037  -14.6623 C.ar    1  UNL1        0.0153
      6 C         -21.6643  -12.1191  -15.1910 C.ar    1  UNL1        0.1636
      7 O         -21.6559  -12.3745  -16.5657 O.3     1  UNL1       -0.5031
      8 C         -21.6840   -9.5794  -15.5472 C.3     1  UNL1        0.0403
      9 C         -23.0854   -8.9836  -15.7183 C.3     1  UNL1        0.0613
     10 I         -22.9609   -7.2016  -16.9039 I       1  UNL1       -0.0746
     11 C         -23.8343   -8.7398  -14.3832 C.3     1  UNL1        0.0331
     12 C         -22.9435   -8.3579  -13.2073 C.2     1  UNL1       -0.0390
     13 C         -22.0764   -9.2656  -12.6672 C.2     1  UNL1       -0.0076
     14 H         -21.8584  -11.6805  -17.2714 H       1  UNL1        0.2923
     15 C         -21.2667   -8.9545  -11.4662 C.ar    1  UNL1        0.0056
     16 C         -21.5629   -7.8354  -10.6814 C.ar    1  UNL1        0.0402
     17 C         -20.8193   -7.5506   -9.5200 C.ar    1  UNL1        0.1754
     18 C         -19.7677   -8.4259   -9.1400 C.ar    1  UNL1        0.2061
     19 C         -19.4911   -9.5623   -9.9196 C.ar    1  UNL1        0.1754
     20 C         -20.2501   -9.8261  -11.0720 C.ar    1  UNL1        0.0402
     21 O         -21.1087   -6.4191   -8.7412 O.3     1  UNL1       -0.4683
     22 C         -21.7074   -5.2225   -9.2293 C.3     1  UNL1        0.2526
     23 O         -18.9608   -8.2297   -8.0025 O.3     1  UNL1       -0.4654
     24 C         -19.3402   -8.4367   -6.6465 C.3     1  UNL1        0.2528
     25 O         -18.4471  -10.4092   -9.5124 O.3     1  UNL1       -0.4683
     26 C         -18.3888  -11.8066   -9.7803 C.3     1  UNL1        0.2526
     27 C         -22.6097  -15.3582  -15.1798 C.3     1  UNL1        0.2526
     28 O         -21.5073  -14.5052  -14.8881 O.3     1  UNL1       -0.4684
     29 C         -23.1310   -6.9657  -12.6228 C.3     1  UNL1        0.0483
     30 C         -24.5505   -6.7384  -12.1750 C.ar    1  UNL1       -0.0181
     31 C         -25.2355   -7.7326  -11.4552 C.ar    1  UNL1       -0.0039
     32 C         -26.5615   -7.5314  -11.0609 C.ar    1  UNL1       -0.0003
     33 C         -27.2175   -6.3427  -11.3906 C.ar    1  UNL1       -0.0000
     34 C         -26.5487   -5.3536  -12.1165 C.ar    1  UNL1       -0.0003
     35 C         -25.2212   -5.5490  -12.5101 C.ar    1  UNL1       -0.0039
@<TRIPOS>BOND
     1    27    28    1
     2    28     1    1
     3     1     2   ar
     4     2     3   ar
     5     3     4   ar
     6     4     5   ar
     7     5     6   ar
     8     6     7    1
     9     5     8    1
    10     8     9    1
    11     9    10    1
    12     9    11    1
    13    11    12    1
    14    12    29    1
    15    29    30    1
    16    30    31   ar
    17    31    32   ar
    18    32    33   ar
    19    33    34   ar
    20    34    35   ar
    21    12    13    2
    22    13    15    1
    23    15    16   ar
    24    16    17   ar
    25    17    21    1
    26    21    22    1
    27    17    18   ar
    28    18    23    1
    29    23    24    1
    30    18    19   ar
    31    19    25    1
    32    25    26    1
    33    19    20   ar
    34     6     1   ar
    35    35    30   ar
    36    20    15   ar
    37    13     4    1
    38     7    14    1
@<TRIPOS>MOLECULE
*****
 35 38 0 0 0
SMALL
GASTEIGER

@<TRIPOS>ATOM
      1 C         -27.6958   -6.3901  -13.7181 C.ar    1  UNL1        0.1718
      2 C         -28.0828   -7.7355  -13.6185 C.ar    1  UNL1        0.0400
      3 C         -27.1457   -8.7173  -13.3093 C.ar    1  UNL1        0.0030
      4 C         -25.7943   -8.3879  -13.1243 C.ar    1  UNL1       -0.0014
      5 C         -25.3789   -7.0442  -13.2912 C.ar    1  UNL1        0.0153
      6 C         -26.3515   -6.0380  -13.5288 C.ar    1  UNL1        0.1636
      7 O         -26.0287   -4.6780  -13.5657 O.3     1  UNL1       -0.5031
      8 C         -23.9054   -6.7260  -13.1816 C.3     1  UNL1        0.0403
      9 C         -23.4624   -6.7390  -11.7148 C.3     1  UNL1        0.0613
     10 I         -21.3530   -6.3722  -11.6054 I       1  UNL1       -0.0746
     11 C         -23.8678   -8.0220  -10.9449 C.3     1  UNL1        0.0331
     12 C         -23.8888   -9.2946  -11.7829 C.2     1  UNL1       -0.0390
     13 C         -24.8270   -9.4685  -12.7612 C.2     1  UNL1       -0.0076
     14 H         -25.1388   -4.2995  -13.2734 H       1  UNL1        0.2923
     15 C         -24.9319  -10.7318  -13.5280 C.ar    1  UNL1        0.0056
     16 C         -25.3474  -11.9103  -12.8999 C.ar    1  UNL1        0.0402
     17 C         -25.4816  -13.1080  -13.6283 C.ar    1  UNL1        0.1754
     18 C         -25.2049  -13.1054  -15.0210 C.ar    1  UNL1        0.2061
     19 C         -24.8115  -11.9120  -15.6509 C.ar    1  UNL1        0.1754
     20 C         -24.6885  -10.7294  -14.9025 C.ar    1  UNL1        0.0402
     21 O         -25.8850  -14.2934  -12.9935 O.3     1  UNL1       -0.4683
     22 C         -26.5015  -14.3649  -11.7116 C.3     1  UNL1        0.2526
     23 O         -25.3021  -14.2478  -15.8388 O.3     1  UNL1       -0.4654
     24 C         -24.2826  -15.2127  -16.0741 C.3     1  UNL1        0.2528
     25 O         -24.5501  -11.9439  -17.0306 O.3     1  UNL1       -0.4683
     26 C         -23.2791  -11.6852  -17.6186 C.3     1  UNL1        0.2526
     27 C         -29.0507   -4.9985  -15.2980 C.3     1  UNL1        0.2526
     28 O         -28.6204   -5.3692  -13.9922 O.3     1  UNL1       -0.4684
     29 C         -22.8828  -10.3768  -11.4198 C.3     1  UNL1        0.0483
     30 C         -22.1995  -10.9316  -12.6415 C.ar    1  UNL1       -0.0181
     31 C         -21.8166  -10.0775  -13.6901 C.ar    1  UNL1       -0.0039
     32 C         -21.2046  -10.5959  -14.8350 C.ar    1  UNL1       -0.0003
     33 C         -20.9798  -11.9703  -14.9476 C.ar    1  UNL1       -0.0000
     34 C         -21.3681  -12.8288  -13.9157 C.ar    1  UNL1       -0.0003
     35 C         -21.9776  -12.3143  -12.7671 C.ar    1  UNL1       -0.0039
@<TRIPOS>BOND
     1    27    28    1
     2    28     1    1
     3     1     2   ar
     4     2     3   ar
     5     3     4   ar
     6     4     5   ar
     7     5     6   ar
     8     6     7    1
     9     5     8    1
    10     8     9    1
    11     9    10    1
    12     9    11    1
    13    11    12    1
    14    12    29    1
    15    29    30    1
    16    30    31   ar
    17    31    32   ar
    18    32    33   ar
    19    33    34   ar
    20    34    35   ar
    21    12    13    2
    22    13    15    1
    23    15    16   ar
    24    16    17   ar
    25    17    21    1
    26    21    22    1
    27    17    18   ar
    28    18    23    1
    29    23    24    1
    30    18    19   ar
    31    19    25    1
    32    25    26    1
    33    19    20   ar
    34     6     1   ar
    35    35    30   ar
    36    20    15   ar
    37    13     4    1
    38     7    14    1
@<TRIPOS>MOLECULE
*****
 35 38 0 0 0
SMALL
GASTEIGER

@<TRIPOS>ATOM
      1 C         -21.1795   -7.4809  -10.2789 C.ar    1  UNL1        0.1718
      2 C         -22.4011   -6.8132  -10.4568 C.ar    1  UNL1        0.0400
      3 C         -23.2913   -7.2237  -11.4450 C.ar    1  UNL1        0.0030
      4 C         -22.9726   -8.2882  -12.3020 C.ar    1  UNL1       -0.0014
      5 C         -21.7134   -8.9247  -12.1785 C.ar    1  UNL1        0.0153
      6 C         -20.8448   -8.5527  -11.1194 C.ar    1  UNL1        0.1636
      7 O         -19.6513   -9.2318  -10.8558 O.3     1  UNL1       -0.5031
      8 C         -21.3510  -10.0048  -13.1718 C.3     1  UNL1        0.0403
      9 C         -22.1005  -11.3019  -12.8497 C.3     1  UNL1        0.0613
     10 I         -21.6305  -12.7812  -14.3286 I       1  UNL1       -0.0746
     11 C         -23.6303  -11.1203  -12.6780 C.3     1  UNL1        0.0331
     12 C         -24.2508  -10.0367  -13.5515 C.2     1  UNL1       -0.0390
     13 C         -23.9713   -8.7178  -13.3283 C.2     1  UNL1       -0.0076
     14 H         -19.3972  -10.1140  -11.2775 H       1  UNL1        0.2923
     15 C         -24.6308   -7.6376  -14.0985 C.ar    1  UNL1        0.0056
     16 C         -24.0991   -7.2111  -15.3198 C.ar    1  UNL1        0.0402
     17 C         -24.7376   -6.2081  -16.0743 C.ar    1  UNL1        0.1754
     18 C         -25.9450   -5.6400  -15.5886 C.ar    1  UNL1        0.2061
     19 C         -26.4871   -6.0905  -14.3725 C.ar    1  UNL1        0.1754
     20 C         -25.8326   -7.0952  -13.6403 C.ar    1  UNL1        0.0402
     21 O         -24.1950   -5.7709  -17.2929 O.3     1  UNL1       -0.4683
     22 C         -24.7191   -6.0835  -18.5798 C.3     1  UNL1        0.2526
     23 O         -26.6584   -4.6289  -16.2610 O.3     1  UNL1       -0.4654
     24 C         -26.4029   -3.2299  -16.2065 C.3     1  UNL1        0.2528
     25 O         -27.6849   -5.5104  -13.9237 O.3     1  UNL1       -0.4683
     26 C         -28.9828   -5.8840  -14.3752 C.3     1  UNL1        0.2526
     27 C         -20.0484   -7.8659   -8.0787 C.3     1  UNL1        0.2526
     28 O         -20.2739   -7.1174   -9.2690 O.3     1  UNL1       -0.4684
     29 C         -25.2468  -10.4888  -14.6091 C.3     1  UNL1        0.0483
     30 C         -25.1747  -11.9749  -14.8401 C.ar    1  UNL1       -0.0181
     31 C         -24.6571  -12.4817  -16.0447 C.ar    1  UNL1       -0.0039
     32 C         -24.6131  -13.8607  -16.2692 C.ar    1  UNL1       -0.0003
     33 C         -25.0945  -14.7439  -15.2995 C.ar    1  UNL1       -0.0000
     34 C         -25.6222  -14.2491  -14.1040 C.ar    1  UNL1       -0.0003
     35 C         -25.6652  -12.8705  -13.8736 C.ar    1  UNL1       -0.0039
@<TRIPOS>BOND
     1    27    28    1
     2    28     1    1
     3     1     2   ar
     4     2     3   ar
     5     3     4   ar
     6     4     5   ar
     7     5     6   ar
     8     6     7    1
     9     5     8    1
    10     8     9    1
    11     9    10    1
    12     9    11    1
    13    11    12    1
    14    12    29    1
    15    29    30    1
    16    30    31   ar
    17    31    32   ar
    18    32    33   ar
    19    33    34   ar
    20    34    35   ar
    21    12    13    2
    22    13    15    1
    23    15    16   ar
    24    16    17   ar
    25    17    21    1
    26    21    22    1
    27    17    18   ar
    28    18    23    1
    29    23    24    1
    30    18    19   ar
    31    19    25    1
    32    25    26    1
    33    19    20   ar
    34     6     1   ar
    35    35    30   ar
    36    20    15   ar
    37    13     4    1
    38     7    14    1
