@<TRIPOS>MOLECULE
*****
 28 31 0 0 0
SMALL
GASTEIGER

@<TRIPOS>ATOM
      1 N          45.9315   14.5226  -26.9233 N.ar    1  UNL1       -0.3246
      2 C          46.1854   13.9332  -25.7270 C.ar    1  UNL1        0.0600
      3 C          46.1109   14.5060  -24.4535 C.ar    1  UNL1        0.0177
      4 C          46.4100   13.6955  -23.3435 C.ar    1  UNL1        0.0082
      5 C          46.7744   12.3416  -23.5183 C.ar    1  UNL1        0.0347
      6 BR         47.1731   11.2609  -21.9958 Br      1  UNL1       -0.0490
      7 C          46.8434   11.7838  -24.8078 C.ar    1  UNL1        0.0082
      8 C          46.5432   12.6097  -25.8893 C.ar    1  UNL1        0.0177
      9 C          46.5077   12.3617  -27.2420 C.ar    1  UNL1        0.0177
     10 C          46.7580   11.2013  -27.9716 C.ar    1  UNL1        0.0082
     11 C          46.6135   11.2618  -29.3690 C.ar    1  UNL1        0.0347
     12 BR         46.9405    9.7043  -30.4239 Br      1  UNL1       -0.0490
     13 C          46.2232   12.4660  -29.9958 C.ar    1  UNL1        0.0082
     14 C          45.9753   13.6229  -29.2350 C.ar    1  UNL1        0.0177
     15 C          46.1296   13.5453  -27.8462 C.ar    1  UNL1        0.0600
     16 C          45.4770   15.9003  -27.1500 C.3     1  UNL1        0.1365
     17 O          46.7100   17.3714  -25.7079 O.3     1  UNL1       -0.3811
     18 C          46.6419   16.9002  -27.0291 C.3     1  UNL1        0.1486
     19 H          45.9960   18.0544  -25.6085 H       1  UNL1        0.2105
     20 C          47.9870   16.2449  -27.4041 C.3     1  UNL1        0.1001
     21 N          49.1474   17.0433  -26.9759 N.3     1  UNL1       -0.2965
     22 H          49.5414   17.5902  -27.7770 H       1  UNL1        0.1233
     23 C          50.1819   16.2618  -26.2646 C.3     1  UNL1        0.0540
     24 C          50.4021   16.7803  -24.8127 C.3     1  UNL1        0.0157
     25 C          49.5770   15.9937  -23.7885 C.3     1  UNL1        0.0014
     26 C          49.9540   14.4987  -23.7836 C.3     1  UNL1        0.0001
     27 C          50.4215   13.9802  -25.1586 C.3     1  UNL1        0.0014
     28 C          49.7815   14.7688  -26.3054 C.3     1  UNL1        0.0157
@<TRIPOS>BOND
     1    17    18    1
     2    18    20    1
     3    20    21    1
     4    21    23    1
     5    23    24    1
     6    24    25    1
     7    25    26    1
     8    26    27    1
     9    27    28    1
    10    18    16    1
    11    16     1    1
    12     1     2   ar
    13     2     3   ar
    14     3     4   ar
    15     4     5   ar
    16     5     6    1
    17     5     7   ar
    18     7     8   ar
    19     8     9   ar
    20     9    10   ar
    21    10    11   ar
    22    11    12    1
    23    11    13   ar
    24    13    14   ar
    25    14    15   ar
    26    28    23    1
    27    15     1   ar
    28     8     2   ar
    29    15     9   ar
    30    17    19    1
    31    21    22    1
@<TRIPOS>MOLECULE
*****
 28 31 0 0 0
SMALL
GASTEIGER

@<TRIPOS>ATOM
      1 N          45.8303   14.5111  -27.0708 N.ar    1  UNL1       -0.3246
      2 C          46.0529   13.5152  -27.9660 C.ar    1  UNL1        0.0600
      3 C          45.9565   13.5749  -29.3599 C.ar    1  UNL1        0.0177
      4 C          46.2467   12.4112  -30.0949 C.ar    1  UNL1        0.0082
      5 C          46.6245   11.2196  -29.4364 C.ar    1  UNL1        0.0347
      6 BR         47.0162    9.6539  -30.4563 Br      1  UNL1       -0.0490
      7 C          46.7161   11.1799  -28.0334 C.ar    1  UNL1        0.0082
      8 C          46.4220   12.3466  -27.3303 C.ar    1  UNL1        0.0177
      9 C          46.4336   12.6253  -25.9832 C.ar    1  UNL1        0.0177
     10 C          46.7468   11.8311  -24.8819 C.ar    1  UNL1        0.0082
     11 C          46.6851   12.4234  -23.6080 C.ar    1  UNL1        0.0347
     12 BR         47.1047   11.3875  -22.0600 Br      1  UNL1       -0.0490
     13 C          46.3198   13.7806  -23.4677 C.ar    1  UNL1        0.0082
     14 C          46.0098   14.5603  -24.5967 C.ar    1  UNL1        0.0177
     15 C          46.0711   13.9525  -25.8558 C.ar    1  UNL1        0.0600
     16 C          45.4725   15.9034  -27.3696 C.3     1  UNL1        0.1365
     17 O          46.6583   17.4544  -25.9723 O.3     1  UNL1       -0.3811
     18 C          46.6907   16.8353  -27.2325 C.3     1  UNL1        0.1486
     19 H          45.9912   18.1879  -26.0288 H       1  UNL1        0.2105
     20 C          48.0141   16.0571  -27.3815 C.3     1  UNL1        0.1001
     21 N          49.1882   16.8496  -26.9806 N.3     1  UNL1       -0.2965
     22 H          49.6113   17.3352  -27.8058 H       1  UNL1        0.1233
     23 C          50.1879   16.0866  -26.2025 C.3     1  UNL1        0.0540
     24 C          50.3945   16.6866  -24.7803 C.3     1  UNL1        0.0157
     25 C          49.5295   15.9849  -23.7276 C.3     1  UNL1        0.0014
     26 C          49.8664   14.4839  -23.6250 C.3     1  UNL1        0.0001
     27 C          50.3457   13.8711  -24.9565 C.3     1  UNL1        0.0014
     28 C          49.7486   14.6046  -26.1615 C.3     1  UNL1        0.0157
@<TRIPOS>BOND
     1    17    18    1
     2    18    20    1
     3    20    21    1
     4    21    23    1
     5    23    24    1
     6    24    25    1
     7    25    26    1
     8    26    27    1
     9    27    28    1
    10    18    16    1
    11    16     1    1
    12     1     2   ar
    13     2     3   ar
    14     3     4   ar
    15     4     5   ar
    16     5     6    1
    17     5     7   ar
    18     7     8   ar
    19     8     9   ar
    20     9    10   ar
    21    10    11   ar
    22    11    12    1
    23    11    13   ar
    24    13    14   ar
    25    14    15   ar
    26    28    23    1
    27    15     1   ar
    28     8     2   ar
    29    15     9   ar
    30    17    19    1
    31    21    22    1
@<TRIPOS>MOLECULE
*****
 28 31 0 0 0
SMALL
GASTEIGER

@<TRIPOS>ATOM
      1 N          46.3530   13.4550  -24.5076 N.ar    1  UNL1       -0.3246
      2 C          46.2677   13.0930  -25.8132 C.ar    1  UNL1        0.0600
      3 C          45.9972   11.8253  -26.3379 C.ar    1  UNL1        0.0177
      4 C          45.9455   11.6838  -27.7364 C.ar    1  UNL1        0.0082
      5 C          46.1618   12.7959  -28.5807 C.ar    1  UNL1        0.0347
      6 BR         46.0837   12.5791  -30.4760 Br      1  UNL1       -0.0490
      7 C          46.4321   14.0632  -28.0335 C.ar    1  UNL1        0.0082
      8 C          46.4786   14.1744  -26.6452 C.ar    1  UNL1        0.0177
      9 C          46.7013   15.2565  -25.8254 C.ar    1  UNL1        0.0177
     10 C          46.9502   16.5961  -26.1171 C.ar    1  UNL1        0.0082
     11 C          47.1165   17.4819  -25.0377 C.ar    1  UNL1        0.0347
     12 BR         47.4582   19.3303  -25.3727 Br      1  UNL1       -0.0490
     13 C          47.0272   17.0133  -23.7082 C.ar    1  UNL1        0.0082
     14 C          46.7735   15.6556  -23.4418 C.ar    1  UNL1        0.0177
     15 C          46.6163   14.7878  -24.5284 C.ar    1  UNL1        0.0600
     16 C          46.1385   12.5950  -23.3371 C.3     1  UNL1        0.1365
     17 O          48.0026   11.2806  -24.0865 O.3     1  UNL1       -0.3811
     18 C          47.4310   11.8576  -22.9408 C.3     1  UNL1        0.1486
     19 H          47.4859   10.4554  -24.2818 H       1  UNL1        0.2105
     20 C          48.4505   12.8174  -22.2937 C.3     1  UNL1        0.1001
     21 N          49.8402   12.3542  -22.4402 N.3     1  UNL1       -0.2965
     22 H          50.2076   11.9807  -21.5339 H       1  UNL1        0.1233
     23 C          50.7445   13.3562  -23.0445 C.3     1  UNL1        0.0540
     24 C          51.1146   12.9906  -24.5124 C.3     1  UNL1        0.0157
     25 C          50.2035   13.6892  -25.5275 C.3     1  UNL1        0.0014
     26 C          50.3035   15.2239  -25.4179 C.3     1  UNL1        0.0001
     27 C          50.6122   15.7174  -23.9898 C.3     1  UNL1        0.0014
     28 C          50.0789   14.7473  -22.9310 C.3     1  UNL1        0.0157
@<TRIPOS>BOND
     1    17    18    1
     2    18    20    1
     3    20    21    1
     4    21    23    1
     5    23    24    1
     6    24    25    1
     7    25    26    1
     8    26    27    1
     9    27    28    1
    10    18    16    1
    11    16     1    1
    12     1     2   ar
    13     2     3   ar
    14     3     4   ar
    15     4     5   ar
    16     5     6    1
    17     5     7   ar
    18     7     8   ar
    19     8     9   ar
    20     9    10   ar
    21    10    11   ar
    22    11    12    1
    23    11    13   ar
    24    13    14   ar
    25    14    15   ar
    26    28    23    1
    27    15     1   ar
    28     8     2   ar
    29    15     9   ar
    30    17    19    1
    31    21    22    1
@<TRIPOS>MOLECULE
*****
 28 31 0 0 0
SMALL
GASTEIGER

@<TRIPOS>ATOM
      1 N          46.2684   13.4671  -24.5157 N.ar    1  UNL1       -0.3246
      2 C          46.5385   14.7972  -24.5441 C.ar    1  UNL1        0.0600
      3 C          46.7288   15.6590  -23.4594 C.ar    1  UNL1        0.0177
      4 C          47.0119   17.0104  -23.7282 C.ar    1  UNL1        0.0082
      5 C          47.1001   17.4763  -25.0591 C.ar    1  UNL1        0.0347
      6 BR         47.4883   19.3146  -25.3983 Br      1  UNL1       -0.0490
      7 C          46.9058   16.5934  -26.1368 C.ar    1  UNL1        0.0082
      8 C          46.6256   15.2607  -25.8416 C.ar    1  UNL1        0.0177
      9 C          46.4042   14.1747  -26.6567 C.ar    1  UNL1        0.0177
     10 C          46.3912   14.0535  -28.0448 C.ar    1  UNL1        0.0082
     11 C          46.1522   12.7792  -28.5891 C.ar    1  UNL1        0.0347
     12 BR         46.1239   12.5483  -30.4843 Br      1  UNL1       -0.0490
     13 C          45.9382   11.6689  -27.7426 C.ar    1  UNL1        0.0082
     14 C          45.9580   11.8190  -26.3440 C.ar    1  UNL1        0.0177
     15 C          46.1918   13.0956  -25.8204 C.ar    1  UNL1        0.0600
     16 C          46.1533   12.6147  -23.3257 C.3     1  UNL1        0.1365
     17 O          48.0189   11.3961  -24.2193 O.3     1  UNL1       -0.3811
     18 C          47.4811   11.8962  -23.0223 C.3     1  UNL1        0.1486
     19 H          47.5170   10.5672  -24.4364 H       1  UNL1        0.2105
     20 C          48.5006   12.8509  -22.3678 C.3     1  UNL1        0.1001
     21 N          49.8927   12.4074  -22.5492 N.3     1  UNL1       -0.2965
     22 H          50.2806   12.0187  -21.6579 H       1  UNL1        0.1233
     23 C          50.7744   13.4331  -23.1471 C.3     1  UNL1        0.0540
     24 C          51.1296   13.0993  -24.6263 C.3     1  UNL1        0.0157
     25 C          50.1951   13.8029  -25.6163 C.3     1  UNL1        0.0014
     26 C          50.2748   15.3366  -25.4801 C.3     1  UNL1        0.0001
     27 C          50.5959   15.8087  -24.0476 C.3     1  UNL1        0.0014
     28 C          50.0909   14.8122  -22.9995 C.3     1  UNL1        0.0157
@<TRIPOS>BOND
     1    17    18    1
     2    18    20    1
     3    20    21    1
     4    21    23    1
     5    23    24    1
     6    24    25    1
     7    25    26    1
     8    26    27    1
     9    27    28    1
    10    18    16    1
    11    16     1    1
    12     1     2   ar
    13     2     3   ar
    14     3     4   ar
    15     4     5   ar
    16     5     6    1
    17     5     7   ar
    18     7     8   ar
    19     8     9   ar
    20     9    10   ar
    21    10    11   ar
    22    11    12    1
    23    11    13   ar
    24    13    14   ar
    25    14    15   ar
    26    28    23    1
    27    15     1   ar
    28     8     2   ar
    29    15     9   ar
    30    17    19    1
    31    21    22    1
@<TRIPOS>MOLECULE
*****
 28 31 0 0 0
SMALL
GASTEIGER

@<TRIPOS>ATOM
      1 N          48.4944   10.0954  -22.4958 N.ar    1  UNL1       -0.3246
      2 C          49.4321    9.9125  -23.4602 C.ar    1  UNL1        0.0600
      3 C          50.4998    9.0094  -23.4609 C.ar    1  UNL1        0.0177
      4 C          51.3473    8.9857  -24.5833 C.ar    1  UNL1        0.0082
      5 C          51.1197    9.8529  -25.6753 C.ar    1  UNL1        0.0347
      6 BR         52.2825    9.7999  -27.1887 Br      1  UNL1       -0.0490
      7 C          50.0400   10.7541  -25.6557 C.ar    1  UNL1        0.0082
      8 C          49.2172   10.7571  -24.5310 C.ar    1  UNL1        0.0177
      9 C          48.0974   11.4949  -24.2239 C.ar    1  UNL1        0.0177
     10 C          47.4189   12.4788  -24.9403 C.ar    1  UNL1        0.0082
     11 C          46.2704   13.0409  -24.3551 C.ar    1  UNL1        0.0347
     12 BR         45.2961   14.3922  -25.2880 Br      1  UNL1       -0.0490
     13 C          45.8308   12.6081  -23.0844 C.ar    1  UNL1        0.0082
     14 C          46.5340   11.6118  -22.3832 C.ar    1  UNL1        0.0177
     15 C          47.6778   11.0680  -22.9787 C.ar    1  UNL1        0.0600
     16 C          48.3645    9.3493  -21.2378 C.3     1  UNL1        0.1365
     17 O          50.5448    9.3794  -20.2331 O.3     1  UNL1       -0.3811
     18 C          49.2632    9.9458  -20.1388 C.3     1  UNL1        0.1486
     19 H          50.4914    8.4762  -19.8237 H       1  UNL1        0.2105
     20 C          49.3747   11.4783  -20.2734 C.3     1  UNL1        0.1001
     21 N          50.6820   11.9098  -20.7948 N.3     1  UNL1       -0.2965
     22 H          51.4572   11.6019  -20.1622 H       1  UNL1        0.1233
     23 C          50.7533   13.3525  -21.1119 C.3     1  UNL1        0.0540
     24 C          51.7714   13.6441  -22.2538 C.3     1  UNL1        0.0157
     25 C          51.0932   13.7154  -23.6262 C.3     1  UNL1        0.0014
     26 C          50.0380   14.8383  -23.6802 C.3     1  UNL1        0.0001
     27 C          49.3607   15.1086  -22.3214 C.3     1  UNL1        0.0014
     28 C          49.3285   13.8506  -21.4479 C.3     1  UNL1        0.0157
@<TRIPOS>BOND
     1    17    18    1
     2    18    20    1
     3    20    21    1
     4    21    23    1
     5    23    24    1
     6    24    25    1
     7    25    26    1
     8    26    27    1
     9    27    28    1
    10    18    16    1
    11    16     1    1
    12     1     2   ar
    13     2     3   ar
    14     3     4   ar
    15     4     5   ar
    16     5     6    1
    17     5     7   ar
    18     7     8   ar
    19     8     9   ar
    20     9    10   ar
    21    10    11   ar
    22    11    12    1
    23    11    13   ar
    24    13    14   ar
    25    14    15   ar
    26    28    23    1
    27    15     1   ar
    28     8     2   ar
    29    15     9   ar
    30    17    19    1
    31    21    22    1
@<TRIPOS>MOLECULE
*****
 28 31 0 0 0
SMALL
GASTEIGER

@<TRIPOS>ATOM
      1 N          49.2865   10.1280  -22.6705 N.ar    1  UNL1       -0.3246
      2 C          48.2217   10.8827  -23.0439 C.ar    1  UNL1        0.0600
      3 C          47.1333   11.2806  -22.2611 C.ar    1  UNL1        0.0177
      4 C          46.1419   12.0783  -22.8607 C.ar    1  UNL1        0.0082
      5 C          46.2499   12.4628  -24.2159 C.ar    1  UNL1        0.0347
      6 BR         44.8926   13.5483  -25.0064 Br      1  UNL1       -0.0490
      7 C          47.3528   12.0527  -24.9866 C.ar    1  UNL1        0.0082
      8 C          48.3192   11.2621  -24.3677 C.ar    1  UNL1        0.0177
      9 C          49.4948   10.7252  -24.8391 C.ar    1  UNL1        0.0177
     10 C          50.1040   10.7999  -26.0901 C.ar    1  UNL1        0.0082
     11 C          51.3395   10.1495  -26.2572 C.ar    1  UNL1        0.0347
     12 BR         52.2250   10.2170  -27.9474 Br      1  UNL1       -0.0490
     13 C          51.9312    9.4515  -25.1811 C.ar    1  UNL1        0.0082
     14 C          51.2951    9.3931  -23.9278 C.ar    1  UNL1        0.0177
     15 C          50.0636   10.0415  -23.7818 C.ar    1  UNL1        0.0600
     16 C          49.5591    9.5859  -21.3335 C.3     1  UNL1        0.1365
     17 O          48.8877    9.8725  -19.0463 O.3     1  UNL1       -0.3811
     18 C          49.1447   10.5794  -20.2323 C.3     1  UNL1        0.1486
     19 H          47.9869    9.4660  -19.1427 H       1  UNL1        0.2105
     20 C          50.2499   11.6233  -19.9714 C.3     1  UNL1        0.1001
     21 N          50.9197   12.0631  -21.2064 N.3     1  UNL1       -0.2965
     22 H          51.9030   11.7060  -21.2463 H       1  UNL1        0.1233
     23 C          50.8397   13.5206  -21.4440 C.3     1  UNL1        0.0540
     24 C          51.6174   13.9410  -22.7262 C.3     1  UNL1        0.0157
     25 C          50.7028   14.0268  -23.9528 C.3     1  UNL1        0.0014
     26 C          49.5843   15.0693  -23.7550 C.3     1  UNL1        0.0001
     27 C          49.1433   15.2236  -22.2854 C.3     1  UNL1        0.0014
     28 C          49.3486   13.9266  -21.4965 C.3     1  UNL1        0.0157
@<TRIPOS>BOND
     1    17    18    1
     2    18    20    1
     3    20    21    1
     4    21    23    1
     5    23    24    1
     6    24    25    1
     7    25    26    1
     8    26    27    1
     9    27    28    1
    10    18    16    1
    11    16     1    1
    12     1     2   ar
    13     2     3   ar
    14     3     4   ar
    15     4     5   ar
    16     5     6    1
    17     5     7   ar
    18     7     8   ar
    19     8     9   ar
    20     9    10   ar
    21    10    11   ar
    22    11    12    1
    23    11    13   ar
    24    13    14   ar
    25    14    15   ar
    26    28    23    1
    27    15     1   ar
    28     8     2   ar
    29    15     9   ar
    30    17    19    1
    31    21    22    1
@<TRIPOS>MOLECULE
*****
 28 31 0 0 0
SMALL
GASTEIGER

@<TRIPOS>ATOM
      1 N          46.4096   13.4853  -24.4007 N.ar    1  UNL1       -0.3246
      2 C          46.3203   13.0872  -25.6955 C.ar    1  UNL1        0.0600
      3 C          46.0117   11.8138  -26.1840 C.ar    1  UNL1        0.0177
      4 C          45.9638   11.6322  -27.5780 C.ar    1  UNL1        0.0082
      5 C          46.2213   12.7108  -28.4536 C.ar    1  UNL1        0.0347
      6 BR         46.1475   12.4399  -30.3420 Br      1  UNL1       -0.0490
      7 C          46.5295   13.9845  -27.9425 C.ar    1  UNL1        0.0082
      8 C          46.5713   14.1357  -26.5579 C.ar    1  UNL1        0.0177
      9 C          46.8242   15.2342  -25.7691 C.ar    1  UNL1        0.0177
     10 C          47.1185   16.5556  -26.0989 C.ar    1  UNL1        0.0082
     11 C          47.3072   17.4676  -25.0452 C.ar    1  UNL1        0.0347
     12 BR         47.7109   19.2930  -25.4328 Br      1  UNL1       -0.0490
     13 C          47.1947   17.0423  -23.7030 C.ar    1  UNL1        0.0082
     14 C          46.8952   15.7021  -23.3980 C.ar    1  UNL1        0.0177
     15 C          46.7163   14.8077  -24.4594 C.ar    1  UNL1        0.0600
     16 C          46.1601   12.6682  -23.2066 C.3     1  UNL1        0.1365
     17 O          47.2501   12.2288  -21.1130 O.3     1  UNL1       -0.3811
     18 C          47.4760   12.2985  -22.4973 C.3     1  UNL1        0.1486
     19 H          47.2277   13.1632  -20.7774 H       1  UNL1        0.2105
     20 C          48.0198   10.9423  -22.9916 C.3     1  UNL1        0.1001
     21 N          49.4240   11.0174  -23.4273 N.3     1  UNL1       -0.2965
     22 H          49.9339   11.7763  -22.9175 H       1  UNL1        0.1233
     23 C          49.5913   11.1131  -24.8936 C.3     1  UNL1        0.0540
     24 C          50.0848   12.5248  -25.3284 C.3     1  UNL1        0.0157
     25 C          51.6083   12.5797  -25.4850 C.3     1  UNL1        0.0014
     26 C          52.1046   11.5903  -26.5583 C.3     1  UNL1        0.0001
     27 C          51.2278   10.3276  -26.6799 C.3     1  UNL1        0.0014
     28 C          50.5451    9.9857  -25.3519 C.3     1  UNL1        0.0157
@<TRIPOS>BOND
     1    17    18    1
     2    18    20    1
     3    20    21    1
     4    21    23    1
     5    23    24    1
     6    24    25    1
     7    25    26    1
     8    26    27    1
     9    27    28    1
    10    18    16    1
    11    16     1    1
    12     1     2   ar
    13     2     3   ar
    14     3     4   ar
    15     4     5   ar
    16     5     6    1
    17     5     7   ar
    18     7     8   ar
    19     8     9   ar
    20     9    10   ar
    21    10    11   ar
    22    11    12    1
    23    11    13   ar
    24    13    14   ar
    25    14    15   ar
    26    28    23    1
    27    15     1   ar
    28     8     2   ar
    29    15     9   ar
    30    17    19    1
    31    21    22    1
@<TRIPOS>MOLECULE
*****
 28 31 0 0 0
SMALL
GASTEIGER

@<TRIPOS>ATOM
      1 N          46.2601   13.5034  -24.3870 N.ar    1  UNL1       -0.3246
      2 C          46.5940   14.8173  -24.4596 C.ar    1  UNL1        0.0600
      3 C          46.7989   15.7117  -23.4043 C.ar    1  UNL1        0.0177
      4 C          47.1526   17.0366  -23.7175 C.ar    1  UNL1        0.0082
      5 C          47.2951   17.4446  -25.0627 C.ar    1  UNL1        0.0347
      6 BR         47.7787   19.2479  -25.4622 Br      1  UNL1       -0.0490
      7 C          47.0850   16.5297  -26.1102 C.ar    1  UNL1        0.0082
      8 C          46.7345   15.2243  -25.7713 C.ar    1  UNL1        0.0177
      9 C          46.4813   14.1183  -26.5494 C.ar    1  UNL1        0.0177
     10 C          46.4961   13.9428  -27.9317 C.ar    1  UNL1        0.0082
     11 C          46.2098   12.6604  -28.4325 C.ar    1  UNL1        0.0347
     12 BR         46.2164   12.3561  -30.3174 Br      1  UNL1       -0.0490
     13 C          45.9226   11.5959  -27.5497 C.ar    1  UNL1        0.0082
     14 C          45.9158   11.8003  -26.1579 C.ar    1  UNL1        0.0177
     15 C          46.1975   13.0843  -25.6780 C.ar    1  UNL1        0.0600
     16 C          46.0757   12.7053  -23.1685 C.3     1  UNL1        0.1365
     17 O          47.2601   12.3216  -21.1157 O.3     1  UNL1       -0.3811
     18 C          47.4267   12.3713  -22.5093 C.3     1  UNL1        0.1486
     19 H          47.2347   13.2610  -20.7949 H       1  UNL1        0.2105
     20 C          47.9742   11.0165  -23.0034 C.3     1  UNL1        0.1001
     21 N          49.3769   11.0963  -23.4432 N.3     1  UNL1       -0.2965
     22 H          49.8784   11.8748  -22.9550 H       1  UNL1        0.1233
     23 C          49.5412   11.1542  -24.9118 C.3     1  UNL1        0.0540
     24 C          50.0268   12.5563  -25.3846 C.3     1  UNL1        0.0157
     25 C          51.5497   12.6149  -25.5453 C.3     1  UNL1        0.0014
     26 C          52.0493   11.6000  -26.5930 C.3     1  UNL1        0.0001
     27 C          51.1787   10.3300  -26.6796 C.3     1  UNL1        0.0014
     28 C          50.5001   10.0198  -25.3418 C.3     1  UNL1        0.0157
@<TRIPOS>BOND
     1    17    18    1
     2    18    20    1
     3    20    21    1
     4    21    23    1
     5    23    24    1
     6    24    25    1
     7    25    26    1
     8    26    27    1
     9    27    28    1
    10    18    16    1
    11    16     1    1
    12     1     2   ar
    13     2     3   ar
    14     3     4   ar
    15     4     5   ar
    16     5     6    1
    17     5     7   ar
    18     7     8   ar
    19     8     9   ar
    20     9    10   ar
    21    10    11   ar
    22    11    12    1
    23    11    13   ar
    24    13    14   ar
    25    14    15   ar
    26    28    23    1
    27    15     1   ar
    28     8     2   ar
    29    15     9   ar
    30    17    19    1
    31    21    22    1
@<TRIPOS>MOLECULE
*****
 28 31 0 0 0
SMALL
GASTEIGER

@<TRIPOS>ATOM
      1 N          47.4903   13.2063  -26.1725 N.ar    1  UNL1       -0.3246
      2 C          48.7060   12.7368  -25.7923 C.ar    1  UNL1        0.0600
      3 C          49.0527   11.4260  -25.4502 C.ar    1  UNL1        0.0177
      4 C          50.3885   11.1647  -25.0953 C.ar    1  UNL1        0.0082
      5 C          51.3472   12.2025  -25.0872 C.ar    1  UNL1        0.0347
      6 BR         53.1548   11.8222  -24.6046 Br      1  UNL1       -0.0490
      7 C          50.9787   13.5147  -25.4350 C.ar    1  UNL1        0.0082
      8 C          49.6487   13.7454  -25.7811 C.ar    1  UNL1        0.0177
      9 C          48.9956   14.8907  -26.1738 C.ar    1  UNL1        0.0177
     10 C          49.4530   16.1942  -26.3564 C.ar    1  UNL1        0.0082
     11 C          48.5277   17.1581  -26.7946 C.ar    1  UNL1        0.0347
     12 BR         49.0941   18.9613  -27.0650 Br      1  UNL1       -0.0490
     13 C          47.1839   16.7991  -27.0405 C.ar    1  UNL1        0.0082
     14 C          46.7488   15.4751  -26.8495 C.ar    1  UNL1        0.0177
     15 C          47.6823   14.5307  -26.4077 C.ar    1  UNL1        0.0600
     16 C          46.2591   12.4266  -26.3511 C.3     1  UNL1        0.1365
     17 O          44.1925   11.8434  -25.2772 O.3     1  UNL1       -0.3811
     18 C          45.1847   12.8360  -25.3267 C.3     1  UNL1        0.1486
     19 H          43.6124   11.9761  -26.0722 H       1  UNL1        0.2105
     20 C          45.7896   13.0193  -23.9197 C.3     1  UNL1        0.1001
     21 N          45.9418   11.7464  -23.1959 N.3     1  UNL1       -0.2965
     22 H          45.0101   11.3032  -23.0184 H       1  UNL1        0.1233
     23 C          46.7591   11.8503  -21.9678 C.3     1  UNL1        0.0540
     24 C          47.2081   10.4511  -21.4518 C.3     1  UNL1        0.0157
     25 C          48.6068   10.0740  -21.9521 C.3     1  UNL1        0.0014
     26 C          49.6713   11.0816  -21.4740 C.3     1  UNL1        0.0001
     27 C          49.1269   12.5145  -21.3055 C.3     1  UNL1        0.0014
     28 C          47.9554   12.7873  -22.2541 C.3     1  UNL1        0.0157
@<TRIPOS>BOND
     1    17    18    1
     2    18    20    1
     3    20    21    1
     4    21    23    1
     5    23    24    1
     6    24    25    1
     7    25    26    1
     8    26    27    1
     9    27    28    1
    10    18    16    1
    11    16     1    1
    12     1     2   ar
    13     2     3   ar
    14     3     4   ar
    15     4     5   ar
    16     5     6    1
    17     5     7   ar
    18     7     8   ar
    19     8     9   ar
    20     9    10   ar
    21    10    11   ar
    22    11    12    1
    23    11    13   ar
    24    13    14   ar
    25    14    15   ar
    26    28    23    1
    27    15     1   ar
    28     8     2   ar
    29    15     9   ar
    30    17    19    1
    31    21    22    1
