@<TRIPOS>MOLECULE
*****
 46 51 0 0 0
SMALL
GASTEIGER

@<TRIPOS>ATOM
      1 C          61.6667   87.7813    9.4822 C.ar    1  UNL1        0.0702
      2 C          60.5410   87.9576    8.6637 C.ar    1  UNL1        0.0191
      3 C          59.7465   86.8636    8.3168 C.ar    1  UNL1        0.0356
      4 C          60.0717   85.5832    8.8013 C.ar    1  UNL1        0.1318
      5 N          61.1603   85.4461    9.6099 N.ar    1  UNL1       -0.2279
      6 C          61.9478   86.4963    9.9605 C.ar    1  UNL1        0.1149
      7 N          59.2670   84.4249    8.4746 N.pl3   1  UNL1       -0.2924
      8 C          57.9022   84.2803    9.0115 C.3     1  UNL1        0.0923
      9 C          57.3581   82.8572    8.8166 C.3     1  UNL1        0.0261
     10 C          58.4324   81.8203    9.1955 C.3     1  UNL1        0.0568
     11 C          59.7291   81.9922    8.3409 C.3     1  UNL1        0.0672
     12 S          61.2190   81.7522    9.3771 S.3     1  UNL1       -0.1670
     13 C          59.8048   83.3537    7.6213 C.3     1  UNL1        0.1027
     14 H          60.9599   82.8733   10.1892 H       1  UNL1        0.1023
     15 C          57.8573   80.3945    9.0719 C.3     1  UNL1        0.2062
     16 O          57.6035   79.8256   10.3575 O.3     1  UNL1       -0.4754
     17 C          58.3514   80.0688   11.5214 C.ar    1  UNL1        0.1388
     18 C          58.5340   79.1004   12.5258 C.ar    1  UNL1        0.0369
     19 C          59.2853   79.4024   13.6628 C.ar    1  UNL1        0.0033
     20 C          59.8595   80.6664   13.8139 C.ar    1  UNL1        0.0066
     21 C          59.6851   81.6492   12.8239 C.ar    1  UNL1        0.0785
     22 C          58.9370   81.3314   11.6753 C.ar    1  UNL1        0.0433
     23 C          60.2918   82.9956   12.9637 C.2     1  UNL1        0.3381
     24 O          61.0443   83.2434   13.9433 O.2     1  UNL1       -0.2451
     25 O          60.0663   84.0040   12.0272 O.3     1  UNL1       -0.4771
     26 H          59.5595   83.8458   11.1662 H       1  UNL1        0.2954
     27 C          62.2460   89.6899   11.0460 C.2     1  UNL1        0.2839
     28 O          61.0754   89.7947   11.5013 O.2     1  UNL1       -0.2665
     29 N          62.4936   88.8878    9.8816 N.am    1  UNL1       -0.2766
     30 H          63.2528   89.1935    9.2326 H       1  UNL1        0.1553
     31 C          63.7543   89.0569   13.8361 C.3     1  UNL1        0.0345
     32 C          63.9855   90.1911   12.8836 C.ar    1  UNL1        0.0202
     33 C          63.3253   90.4676   11.6798 C.ar    1  UNL1        0.1946
     34 O          63.8008   91.5807   11.1493 O.2     1  UNL1       -0.4492
     35 C          64.7499   92.0280   11.9348 C.ar    1  UNL1        0.1452
     36 C          65.5273   93.1672   11.7575 C.ar    1  UNL1        0.0375
     37 C          66.5005   93.4597   12.7291 C.ar    1  UNL1        0.0031
     38 C          66.6811   92.6143   13.8573 C.ar    1  UNL1        0.0002
     39 C          65.8668   91.4652   14.0001 C.ar    1  UNL1        0.0028
     40 C          64.9114   91.2065   13.0169 C.ar    1  UNL1        0.0337
     41 C          67.7130   92.9324   14.8766 C.ar    1  UNL1        0.0000
     42 C          68.0533   94.2694   15.1578 C.ar    1  UNL1        0.0000
     43 C          69.0261   94.5659   16.1173 C.ar    1  UNL1        0.0000
     44 C          69.6685   93.5348   16.8063 C.ar    1  UNL1        0.0000
     45 C          69.3397   92.2044   16.5367 C.ar    1  UNL1        0.0000
     46 C          68.3683   91.9020   15.5775 C.ar    1  UNL1        0.0000
@<TRIPOS>BOND
     1    31    32    1
     2    32    33   ar
     3    33    27    1
     4    27    28    2
     5    27    29   am
     6    29     1    1
     7     1     2   ar
     8     2     3   ar
     9     3     4   ar
    10     4     7    1
    11     7     8    1
    12     8     9    1
    13     9    10    1
    14    10    15    1
    15    15    16    1
    16    16    17    1
    17    17    18   ar
    18    18    19   ar
    19    19    20   ar
    20    20    21   ar
    21    21    23    1
    22    23    24    2
    23    23    25    1
    24    21    22   ar
    25    10    11    1
    26    11    12    1
    27    11    13    1
    28     4     5   ar
    29     5     6   ar
    30    33    34   ar
    31    34    35   ar
    32    35    36   ar
    33    36    37   ar
    34    37    38   ar
    35    38    41    1
    36    41    42   ar
    37    42    43   ar
    38    43    44   ar
    39    44    45   ar
    40    45    46   ar
    41    38    39   ar
    42    39    40   ar
    43    40    32   ar
    44     6     1   ar
    45    40    35   ar
    46    13     7    1
    47    46    41   ar
    48    22    17   ar
    49    29    30    1
    50    25    26    1
    51    12    14    1
@<TRIPOS>MOLECULE
*****
 46 51 0 0 0
SMALL
GASTEIGER

@<TRIPOS>ATOM
      1 C          61.6942   88.0027    9.5110 C.ar    1  UNL1        0.0702
      2 C          60.4893   88.2122    8.8234 C.ar    1  UNL1        0.0191
      3 C          59.6869   87.1275    8.4659 C.ar    1  UNL1        0.0356
      4 C          60.0848   85.8220    8.8084 C.ar    1  UNL1        0.1318
      5 N          61.2510   85.6513    9.4930 N.ar    1  UNL1       -0.2279
      6 C          62.0477   86.6920    9.8513 C.ar    1  UNL1        0.1149
      7 N          59.2756   84.6713    8.4666 N.pl3   1  UNL1       -0.2924
      8 C          57.9130   84.5212    9.0077 C.3     1  UNL1        0.0923
      9 C          57.3643   83.1029    8.7920 C.3     1  UNL1        0.0261
     10 C          58.4377   82.0572    9.1484 C.3     1  UNL1        0.0568
     11 C          59.7307   82.2400    8.2905 C.3     1  UNL1        0.0672
     12 S          61.2250   81.9792    9.3153 S.3     1  UNL1       -0.1670
     13 C          59.8065   83.6130    7.5932 C.3     1  UNL1        0.1027
     14 H          60.9728   83.0873   10.1470 H       1  UNL1        0.1023
     15 C          57.8583   80.6351    9.0041 C.3     1  UNL1        0.2062
     16 O          57.8487   79.9504   10.2580 O.3     1  UNL1       -0.4754
     17 C          58.5929   80.3125   11.3930 C.ar    1  UNL1        0.1388
     18 C          58.0412   81.0354   12.4669 C.ar    1  UNL1        0.0369
     19 C          58.8323   81.3698   13.5672 C.ar    1  UNL1        0.0033
     20 C          60.1761   80.9921   13.6108 C.ar    1  UNL1        0.0066
     21 C          60.7473   80.2735   12.5461 C.ar    1  UNL1        0.0785
     22 C          59.9388   79.9297   11.4470 C.ar    1  UNL1        0.0433
     23 C          62.1712   79.8586   12.5765 C.2     1  UNL1        0.3381
     24 O          62.7240   79.4437   11.5232 O.2     1  UNL1       -0.2451
     25 O          62.9320   79.9279   13.7432 O.3     1  UNL1       -0.4771
     26 H          62.5855   80.3457   14.5967 H       1  UNL1        0.2954
     27 C          62.3013   89.8863   11.0943 C.2     1  UNL1        0.2839
     28 O          61.1348   89.9961   11.5588 O.2     1  UNL1       -0.2665
     29 N          62.5338   89.0967    9.9185 N.am    1  UNL1       -0.2766
     30 H          63.2915   89.4035    9.2682 H       1  UNL1        0.1553
     31 C          63.8389   89.1917   13.8536 C.3     1  UNL1        0.0345
     32 C          64.0647   90.3431   12.9208 C.ar    1  UNL1        0.0202
     33 C          63.3918   90.6463   11.7304 C.ar    1  UNL1        0.1946
     34 O          63.8667   91.7673   11.2162 O.2     1  UNL1       -0.4492
     35 C          64.8272   92.1945   11.9990 C.ar    1  UNL1        0.1452
     36 C          65.6083   93.3331   11.8348 C.ar    1  UNL1        0.0375
     37 C          66.5942   93.6019   12.8004 C.ar    1  UNL1        0.0031
     38 C          66.7838   92.7337   13.9097 C.ar    1  UNL1        0.0002
     39 C          65.9653   91.5860   14.0397 C.ar    1  UNL1        0.0028
     40 C          64.9972   91.3512   13.0630 C.ar    1  UNL1        0.0337
     41 C          67.8291   93.0269   14.9228 C.ar    1  UNL1        0.0000
     42 C          68.4962   91.9798   15.5867 C.ar    1  UNL1        0.0000
     43 C          69.4793   92.2590   16.5411 C.ar    1  UNL1        0.0000
     44 C          69.8079   93.5824   16.8427 C.ar    1  UNL1        0.0000
     45 C          69.1535   94.6300   16.1908 C.ar    1  UNL1        0.0000
     46 C          68.1690   94.3568   15.2363 C.ar    1  UNL1        0.0000
@<TRIPOS>BOND
     1    31    32    1
     2    32    33   ar
     3    33    27    1
     4    27    28    2
     5    27    29   am
     6    29     1    1
     7     1     2   ar
     8     2     3   ar
     9     3     4   ar
    10     4     7    1
    11     7     8    1
    12     8     9    1
    13     9    10    1
    14    10    15    1
    15    15    16    1
    16    16    17    1
    17    17    18   ar
    18    18    19   ar
    19    19    20   ar
    20    20    21   ar
    21    21    23    1
    22    23    24    2
    23    23    25    1
    24    21    22   ar
    25    10    11    1
    26    11    12    1
    27    11    13    1
    28     4     5   ar
    29     5     6   ar
    30    33    34   ar
    31    34    35   ar
    32    35    36   ar
    33    36    37   ar
    34    37    38   ar
    35    38    41    1
    36    41    42   ar
    37    42    43   ar
    38    43    44   ar
    39    44    45   ar
    40    45    46   ar
    41    38    39   ar
    42    39    40   ar
    43    40    32   ar
    44     6     1   ar
    45    40    35   ar
    46    13     7    1
    47    46    41   ar
    48    22    17   ar
    49    29    30    1
    50    25    26    1
    51    12    14    1
@<TRIPOS>MOLECULE
*****
 46 51 0 0 0
SMALL
GASTEIGER

@<TRIPOS>ATOM
      1 C          60.9806   89.5719    9.2650 C.ar    1  UNL1        0.0702
      2 C          60.1119   90.3258   10.0684 C.ar    1  UNL1        0.0191
      3 C          60.0832   90.1277   11.4498 C.ar    1  UNL1        0.0356
      4 C          60.9380   89.1764   12.0365 C.ar    1  UNL1        0.1318
      5 N          61.7843   88.4726   11.2326 N.ar    1  UNL1       -0.2279
      6 C          61.8295   88.6486    9.8861 C.ar    1  UNL1        0.1149
      7 N          60.9474   88.9490   13.4662 N.pl3   1  UNL1       -0.2924
      8 C          62.1069   89.3465   14.2845 C.3     1  UNL1        0.0923
      9 C          62.0534   88.7307   15.6905 C.3     1  UNL1        0.0261
     10 C          61.6639   87.2428   15.6053 C.3     1  UNL1        0.0568
     11 C          60.2788   87.0464   14.9093 C.3     1  UNL1        0.0672
     12 S          60.3182   85.5930   13.7970 S.3     1  UNL1       -0.1670
     13 C          59.8106   88.2911   14.1291 C.3     1  UNL1        0.1027
     14 H          61.2780   86.1529   12.9317 H       1  UNL1        0.1023
     15 C          61.6862   86.6095   17.0115 C.3     1  UNL1        0.2062
     16 O          62.6925   85.6000   17.1085 O.3     1  UNL1       -0.4754
     17 C          63.3792   85.0235   16.0273 C.ar    1  UNL1        0.1388
     18 C          64.4299   85.6767   15.3567 C.ar    1  UNL1        0.0369
     19 C          65.0726   85.0540   14.2855 C.ar    1  UNL1        0.0033
     20 C          64.6779   83.7806   13.8696 C.ar    1  UNL1        0.0066
     21 C          63.6275   83.1131   14.5234 C.ar    1  UNL1        0.0785
     22 C          62.9942   83.7433   15.6104 C.ar    1  UNL1        0.0433
     23 C          63.1976   81.7580   14.0998 C.2     1  UNL1        0.3381
     24 O          63.6962   81.2388   13.0658 O.2     1  UNL1       -0.2451
     25 O          62.2597   81.0243   14.8255 O.3     1  UNL1       -0.4771
     26 H          61.8962   81.3338   15.7173 H       1  UNL1        0.2954
     27 C          59.9371   90.1431    7.0271 C.2     1  UNL1        0.2839
     28 O          58.7655   89.8616    7.3970 O.2     1  UNL1       -0.2665
     29 N          61.0567   89.7662    7.8423 N.am    1  UNL1       -0.2766
     30 H          61.9480   89.5151    7.3588 H       1  UNL1        0.1553
     31 C          57.6656   91.3681    5.0776 C.3     1  UNL1        0.0345
     32 C          59.1499   91.3238    4.8729 C.ar    1  UNL1        0.0202
     33 C          60.1309   90.7853    5.7151 C.ar    1  UNL1        0.1946
     34 O          61.3233   90.9154    5.1603 O.2     1  UNL1       -0.4492
     35 C          61.1690   91.5300    4.0130 C.ar    1  UNL1        0.1452
     36 C          62.1592   91.8813    3.1021 C.ar    1  UNL1        0.0375
     37 C          61.7685   92.5456    1.9262 C.ar    1  UNL1        0.0031
     38 C          60.4016   92.8471    1.6793 C.ar    1  UNL1        0.0002
     39 C          59.4252   92.4698    2.6324 C.ar    1  UNL1        0.0028
     40 C          59.8493   91.8119    3.7873 C.ar    1  UNL1        0.0337
     41 C          60.0007   93.5502    0.4344 C.ar    1  UNL1        0.0000
     42 C          60.9745   94.0672   -0.4412 C.ar    1  UNL1        0.0000
     43 C          60.5939   94.7298   -1.6122 C.ar    1  UNL1        0.0000
     44 C          59.2409   94.8831   -1.9228 C.ar    1  UNL1        0.0000
     45 C          58.2653   94.3745   -1.0626 C.ar    1  UNL1        0.0000
     46 C          58.6401   93.7119    0.1102 C.ar    1  UNL1        0.0000
@<TRIPOS>BOND
     1    31    32    1
     2    32    33   ar
     3    33    27    1
     4    27    28    2
     5    27    29   am
     6    29     1    1
     7     1     2   ar
     8     2     3   ar
     9     3     4   ar
    10     4     7    1
    11     7     8    1
    12     8     9    1
    13     9    10    1
    14    10    15    1
    15    15    16    1
    16    16    17    1
    17    17    18   ar
    18    18    19   ar
    19    19    20   ar
    20    20    21   ar
    21    21    23    1
    22    23    24    2
    23    23    25    1
    24    21    22   ar
    25    10    11    1
    26    11    12    1
    27    11    13    1
    28     4     5   ar
    29     5     6   ar
    30    33    34   ar
    31    34    35   ar
    32    35    36   ar
    33    36    37   ar
    34    37    38   ar
    35    38    41    1
    36    41    42   ar
    37    42    43   ar
    38    43    44   ar
    39    44    45   ar
    40    45    46   ar
    41    38    39   ar
    42    39    40   ar
    43    40    32   ar
    44     6     1   ar
    45    40    35   ar
    46    13     7    1
    47    46    41   ar
    48    22    17   ar
    49    29    30    1
    50    25    26    1
    51    12    14    1
@<TRIPOS>MOLECULE
*****
 46 51 0 0 0
SMALL
GASTEIGER

@<TRIPOS>ATOM
      1 C          59.8340   88.8872    7.6289 C.ar    1  UNL1        0.0702
      2 C          59.3300   87.6010    7.8736 C.ar    1  UNL1        0.0191
      3 C          59.1642   87.1492    9.1838 C.ar    1  UNL1        0.0356
      4 C          59.4933   87.9934   10.2603 C.ar    1  UNL1        0.1318
      5 N          59.9630   89.2444    9.9915 N.ar    1  UNL1       -0.2279
      6 C          60.1325   89.7053    8.7246 C.ar    1  UNL1        0.1149
      7 N          59.3251   87.5673   11.6336 N.pl3   1  UNL1       -0.2924
      8 C          59.1295   88.5547   12.7100 C.3     1  UNL1        0.0923
      9 C          59.2990   87.9262   14.1012 C.3     1  UNL1        0.0261
     10 C          60.5427   87.0178   14.1267 C.3     1  UNL1        0.0568
     11 C          60.4495   85.8794   13.0606 C.3     1  UNL1        0.0672
     12 S          62.0741   85.6132   12.2600 S.3     1  UNL1       -0.1670
     13 C          59.3730   86.1401   11.9880 C.3     1  UNL1        0.1027
     14 H          62.1103   86.8937   11.6748 H       1  UNL1        0.1023
     15 C          60.7530   86.4498   15.5452 C.3     1  UNL1        0.2062
     16 O          61.6730   87.2484   16.2914 O.3     1  UNL1       -0.4754
     17 C          62.7329   87.9951   15.7509 C.ar    1  UNL1        0.1388
     18 C          63.6945   87.4382   14.8875 C.ar    1  UNL1        0.0369
     19 C          64.7280   88.2302   14.3847 C.ar    1  UNL1        0.0033
     20 C          64.8175   89.5792   14.7349 C.ar    1  UNL1        0.0066
     21 C          63.8694   90.1534   15.5995 C.ar    1  UNL1        0.0785
     22 C          62.8237   89.3504   16.0912 C.ar    1  UNL1        0.0433
     23 C          63.9443   91.5856   15.9786 C.2     1  UNL1        0.3381
     24 O          63.1294   92.0535   16.8178 O.2     1  UNL1       -0.2451
     25 O          64.9084   92.4383   15.4419 O.3     1  UNL1       -0.4771
     26 H          65.6557   92.1099   14.8444 H       1  UNL1        0.2954
     27 C          59.2775   90.5294    5.7804 C.2     1  UNL1        0.2839
     28 O          58.1557   90.8377    6.2654 O.2     1  UNL1       -0.2665
     29 N          59.9942   89.3966    6.2938 N.am    1  UNL1       -0.2766
     30 H          60.5823   88.8495    5.6261 H       1  UNL1        0.1553
     31 C          62.3139   90.6293    4.6708 C.3     1  UNL1        0.0345
     32 C          61.1018   91.3379    4.1456 C.ar    1  UNL1        0.0202
     33 C          59.7893   91.2993    4.6329 C.ar    1  UNL1        0.1946
     34 O          59.0157   92.0902    3.9099 O.2     1  UNL1       -0.4492
     35 C          59.7532   92.6218    2.9659 C.ar    1  UNL1        0.1452
     36 C          59.3473   93.5074    1.9737 C.ar    1  UNL1        0.0375
     37 C          60.3110   93.9525    1.0518 C.ar    1  UNL1        0.0031
     38 C          61.6587   93.5084    1.1348 C.ar    1  UNL1        0.0002
     39 C          62.0300   92.6078    2.1620 C.ar    1  UNL1        0.0028
     40 C          61.0475   92.1879    3.0590 C.ar    1  UNL1        0.0337
     41 C          62.6678   93.9842    0.1549 C.ar    1  UNL1        0.0000
     42 C          62.2859   94.3302   -1.1553 C.ar    1  UNL1        0.0000
     43 C          63.2386   94.7768   -2.0762 C.ar    1  UNL1        0.0000
     44 C          64.5797   94.8838   -1.7014 C.ar    1  UNL1        0.0000
     45 C          64.9712   94.5438   -0.4046 C.ar    1  UNL1        0.0000
     46 C          64.0231   94.0958    0.5201 C.ar    1  UNL1        0.0000
@<TRIPOS>BOND
     1    31    32    1
     2    32    33   ar
     3    33    27    1
     4    27    28    2
     5    27    29   am
     6    29     1    1
     7     1     2   ar
     8     2     3   ar
     9     3     4   ar
    10     4     7    1
    11     7     8    1
    12     8     9    1
    13     9    10    1
    14    10    15    1
    15    15    16    1
    16    16    17    1
    17    17    18   ar
    18    18    19   ar
    19    19    20   ar
    20    20    21   ar
    21    21    23    1
    22    23    24    2
    23    23    25    1
    24    21    22   ar
    25    10    11    1
    26    11    12    1
    27    11    13    1
    28     4     5   ar
    29     5     6   ar
    30    33    34   ar
    31    34    35   ar
    32    35    36   ar
    33    36    37   ar
    34    37    38   ar
    35    38    41    1
    36    41    42   ar
    37    42    43   ar
    38    43    44   ar
    39    44    45   ar
    40    45    46   ar
    41    38    39   ar
    42    39    40   ar
    43    40    32   ar
    44     6     1   ar
    45    40    35   ar
    46    13     7    1
    47    46    41   ar
    48    22    17   ar
    49    29    30    1
    50    25    26    1
    51    12    14    1
