@<TRIPOS>MOLECULE
*****
 47 52 0 0 0
SMALL
GASTEIGER

@<TRIPOS>ATOM
      1 C         -64.1520  -52.1322  -24.5399 C.ar    1  UNL1        0.0702
      2 C         -63.5703  -52.5601  -23.3367 C.ar    1  UNL1        0.0191
      3 C         -64.1899  -53.5504  -22.5725 C.ar    1  UNL1        0.0356
      4 C         -65.4103  -54.0955  -23.0021 C.ar    1  UNL1        0.1318
      5 N         -65.9592  -53.6577  -24.1693 N.ar    1  UNL1       -0.2279
      6 C         -65.3734  -52.6951  -24.9293 C.ar    1  UNL1        0.1149
      7 N         -66.0682  -55.1341  -22.2521 N.pl3   1  UNL1       -0.2932
      8 C         -66.4521  -56.4077  -22.8771 C.3     1  UNL1        0.0923
      9 C         -67.9148  -56.7567  -22.5530 C.3     1  UNL1        0.0252
     10 C         -68.3744  -56.2568  -21.1568 C.3     1  UNL1        0.0472
     11 C         -67.1761  -56.0316  -20.2138 C.3     1  UNL1        0.0252
     12 C         -66.2359  -54.9678  -20.8007 C.3     1  UNL1        0.0923
     13 C         -69.3949  -57.2306  -20.5363 C.3     1  UNL1        0.2055
     14 O         -70.6338  -56.5749  -20.2585 O.3     1  UNL1       -0.4742
     15 C         -70.9660  -55.9109  -19.0639 C.ar    1  UNL1        0.1515
     16 C         -70.6292  -56.4369  -17.8025 C.ar    1  UNL1        0.0382
     17 C         -70.9508  -55.7423  -16.6395 C.ar    1  UNL1        0.0034
     18 C         -71.6280  -54.5277  -16.7121 C.ar    1  UNL1        0.0079
     19 C         -71.9968  -53.9858  -17.9544 C.ar    1  UNL1        0.0913
     20 C         -71.6365  -54.6709  -19.1441 C.ar    1  UNL1        0.0822
     21 N         -71.8938  -54.0984  -20.4359 N.pl3   1  UNL1       -0.3545
     22 H         -72.0575  -53.0757  -20.5587 H       1  UNL1        0.1424
     23 H         -71.7994  -54.6655  -21.3073 H       1  UNL1        0.1424
     24 C         -72.7953  -52.7389  -17.9688 C.2     1  UNL1        0.3393
     25 O         -73.6649  -52.5362  -17.0786 O.2     1  UNL1       -0.2450
     26 O         -72.6369  -51.8081  -18.9918 O.3     1  UNL1       -0.4771
     27 H         -73.1934  -50.9620  -19.0162 H       1  UNL1        0.2954
     28 C         -63.9096  -49.7049  -25.2486 C.2     1  UNL1        0.2839
     29 O         -64.8327  -49.3283  -24.4783 O.2     1  UNL1       -0.2665
     30 N         -63.5609  -51.0973  -25.3430 N.am    1  UNL1       -0.2766
     31 H         -62.7946  -51.3806  -25.9916 H       1  UNL1        0.1553
     32 C         -64.0402  -49.3190  -28.4612 C.3     1  UNL1        0.0345
     33 C         -63.2897  -48.5080  -27.4487 C.ar    1  UNL1        0.0202
     34 C         -63.2191  -48.6888  -26.0617 C.ar    1  UNL1        0.1946
     35 O         -62.3962  -47.8007  -25.5318 O.2     1  UNL1       -0.4492
     36 C         -61.9491  -47.0382  -26.4996 C.ar    1  UNL1        0.1452
     37 C         -61.0659  -45.9693  -26.3950 C.ar    1  UNL1        0.0375
     38 C         -60.7176  -45.2837  -27.5722 C.ar    1  UNL1        0.0031
     39 C         -61.2532  -45.6750  -28.8293 C.ar    1  UNL1        0.0002
     40 C         -62.1476  -46.7705  -28.8911 C.ar    1  UNL1        0.0028
     41 C         -62.4721  -47.4256  -27.7031 C.ar    1  UNL1        0.0337
     42 C         -60.8782  -44.9437  -30.0661 C.ar    1  UNL1        0.0000
     43 C         -59.5887  -45.0793  -30.6149 C.ar    1  UNL1        0.0000
     44 C         -59.2382  -44.3886  -31.7790 C.ar    1  UNL1        0.0000
     45 C         -60.1677  -43.5574  -32.4078 C.ar    1  UNL1        0.0000
     46 C         -61.4501  -43.4145  -31.8735 C.ar    1  UNL1        0.0000
     47 C         -61.8060  -44.1021  -30.7091 C.ar    1  UNL1        0.0000
@<TRIPOS>BOND
     1    32    33    1
     2    33    34   ar
     3    34    28    1
     4    28    29    2
     5    28    30   am
     6    30     1    1
     7     1     2   ar
     8     2     3   ar
     9     3     4   ar
    10     4     7    1
    11     7     8    1
    12     8     9    1
    13     9    10    1
    14    10    13    1
    15    13    14    1
    16    14    15    1
    17    15    16   ar
    18    16    17   ar
    19    17    18   ar
    20    18    19   ar
    21    19    24    1
    22    24    25    2
    23    24    26    1
    24    19    20   ar
    25    20    21    1
    26    10    11    1
    27    11    12    1
    28     4     5   ar
    29     5     6   ar
    30    34    35   ar
    31    35    36   ar
    32    36    37   ar
    33    37    38   ar
    34    38    39   ar
    35    39    42    1
    36    42    43   ar
    37    43    44   ar
    38    44    45   ar
    39    45    46   ar
    40    46    47   ar
    41    39    40   ar
    42    40    41   ar
    43    41    33   ar
    44     6     1   ar
    45    41    36   ar
    46    12     7    1
    47    47    42   ar
    48    20    15   ar
    49    30    31    1
    50    26    27    1
    51    21    22    1
    52    21    23    1
@<TRIPOS>MOLECULE
*****
 47 52 0 0 0
SMALL
GASTEIGER

@<TRIPOS>ATOM
      1 C         -64.2959  -52.2455  -24.5892 C.ar    1  UNL1        0.0702
      2 C         -63.7780  -52.7071  -23.3694 C.ar    1  UNL1        0.0191
      3 C         -64.4770  -53.6614  -22.6282 C.ar    1  UNL1        0.0356
      4 C         -65.7121  -54.1358  -23.0978 C.ar    1  UNL1        0.1318
      5 N         -66.1978  -53.6660  -24.2806 N.ar    1  UNL1       -0.2279
      6 C         -65.5343  -52.7375  -25.0188 C.ar    1  UNL1        0.1149
      7 N         -66.4515  -55.1360  -22.3722 N.pl3   1  UNL1       -0.2932
      8 C         -67.6979  -55.7060  -22.9028 C.3     1  UNL1        0.0923
      9 C         -68.8076  -55.6805  -21.8379 C.3     1  UNL1        0.0252
     10 C         -68.2773  -55.8513  -20.3887 C.3     1  UNL1        0.0472
     11 C         -66.8987  -56.5405  -20.3683 C.3     1  UNL1        0.0252
     12 C         -65.8747  -55.6945  -21.1401 C.3     1  UNL1        0.0923
     13 C         -69.2947  -56.6171  -19.5211 C.3     1  UNL1        0.2055
     14 O         -69.7110  -55.8356  -18.3995 O.3     1  UNL1       -0.4742
     15 C         -69.4055  -56.0984  -17.0519 C.ar    1  UNL1        0.1515
     16 C         -70.2863  -56.8089  -16.2149 C.ar    1  UNL1        0.0382
     17 C         -69.9429  -57.0741  -14.8919 C.ar    1  UNL1        0.0034
     18 C         -68.7311  -56.6205  -14.3770 C.ar    1  UNL1        0.0079
     19 C         -67.8393  -55.8908  -15.1802 C.ar    1  UNL1        0.0913
     20 C         -68.1675  -55.6521  -16.5403 C.ar    1  UNL1        0.0822
     21 N         -67.2369  -55.0094  -17.4255 N.pl3   1  UNL1       -0.3545
     22 H         -66.2162  -54.9733  -17.2144 H       1  UNL1        0.1424
     23 H         -67.5326  -54.6702  -18.3675 H       1  UNL1        0.1424
     24 C         -66.6082  -55.3545  -14.5562 C.2     1  UNL1        0.3393
     25 O         -65.9263  -54.4799  -15.1560 O.2     1  UNL1       -0.2450
     26 O         -66.1606  -55.8481  -13.3339 O.3     1  UNL1       -0.4771
     27 H         -65.3094  -55.4974  -12.9113 H       1  UNL1        0.2954
     28 C         -63.8933  -49.8351  -25.2825 C.2     1  UNL1        0.2839
     29 O         -64.8172  -49.4074  -24.5405 O.2     1  UNL1       -0.2665
     30 N         -63.6217  -51.2451  -25.3701 N.am    1  UNL1       -0.2766
     31 H         -62.8526  -51.5708  -25.9951 H       1  UNL1        0.1553
     32 C         -64.0677  -49.2831  -28.4686 C.3     1  UNL1        0.0345
     33 C         -63.2085  -48.6052  -27.4448 C.ar    1  UNL1        0.0202
     34 C         -63.1205  -48.8591  -26.0703 C.ar    1  UNL1        0.1946
     35 O         -62.1941  -48.0888  -25.5272 O.2     1  UNL1       -0.4492
     36 C         -61.6944  -47.3317  -26.4732 C.ar    1  UNL1        0.1452
     37 C         -60.7001  -46.3676  -26.3484 C.ar    1  UNL1        0.0375
     38 C         -60.3124  -45.6664  -27.5038 C.ar    1  UNL1        0.0031
     39 C         -60.9199  -45.9382  -28.7598 C.ar    1  UNL1        0.0002
     40 C         -61.9270  -46.9295  -28.8426 C.ar    1  UNL1        0.0028
     41 C         -62.2875  -47.6035  -27.6758 C.ar    1  UNL1        0.0337
     42 C         -60.5024  -45.1914  -29.9735 C.ar    1  UNL1        0.0000
     43 C         -61.4085  -44.3445  -30.6398 C.ar    1  UNL1        0.0000
     44 C         -61.0128  -43.6432  -31.7831 C.ar    1  UNL1        0.0000
     45 C         -59.7120  -43.7781  -32.2730 C.ar    1  UNL1        0.0000
     46 C         -58.8038  -44.6149  -31.6210 C.ar    1  UNL1        0.0000
     47 C         -59.1941  -45.3192  -30.4779 C.ar    1  UNL1        0.0000
@<TRIPOS>BOND
     1    32    33    1
     2    33    34   ar
     3    34    28    1
     4    28    29    2
     5    28    30   am
     6    30     1    1
     7     1     2   ar
     8     2     3   ar
     9     3     4   ar
    10     4     7    1
    11     7     8    1
    12     8     9    1
    13     9    10    1
    14    10    13    1
    15    13    14    1
    16    14    15    1
    17    15    16   ar
    18    16    17   ar
    19    17    18   ar
    20    18    19   ar
    21    19    24    1
    22    24    25    2
    23    24    26    1
    24    19    20   ar
    25    20    21    1
    26    10    11    1
    27    11    12    1
    28     4     5   ar
    29     5     6   ar
    30    34    35   ar
    31    35    36   ar
    32    36    37   ar
    33    37    38   ar
    34    38    39   ar
    35    39    42    1
    36    42    43   ar
    37    43    44   ar
    38    44    45   ar
    39    45    46   ar
    40    46    47   ar
    41    39    40   ar
    42    40    41   ar
    43    41    33   ar
    44     6     1   ar
    45    41    36   ar
    46    12     7    1
    47    47    42   ar
    48    20    15   ar
    49    30    31    1
    50    26    27    1
    51    21    22    1
    52    21    23    1
@<TRIPOS>MOLECULE
*****
 47 52 0 0 0
SMALL
GASTEIGER

@<TRIPOS>ATOM
      1 C         -64.2780  -50.9468  -24.0945 C.ar    1  UNL1        0.0702
      2 C         -63.0890  -51.4649  -23.5586 C.ar    1  UNL1        0.0191
      3 C         -61.9509  -50.6613  -23.4731 C.ar    1  UNL1        0.0356
      4 C         -61.9964  -49.3416  -23.9501 C.ar    1  UNL1        0.1318
      5 N         -63.1599  -48.8644  -24.4736 N.ar    1  UNL1       -0.2279
      6 C         -64.2799  -49.6286  -24.5664 C.ar    1  UNL1        0.1149
      7 N         -60.8494  -48.4757  -23.8588 N.pl3   1  UNL1       -0.2932
      8 C         -59.8575  -48.6249  -22.7846 C.3     1  UNL1        0.0923
      9 C         -59.5667  -47.2700  -22.1169 C.3     1  UNL1        0.0252
     10 C         -59.6746  -46.0655  -23.0906 C.3     1  UNL1        0.0472
     11 C         -59.4998  -46.5063  -24.5573 C.3     1  UNL1        0.0252
     12 C         -60.5965  -47.5116  -24.9401 C.3     1  UNL1        0.0923
     13 C         -58.6612  -44.9670  -22.7156 C.3     1  UNL1        0.2055
     14 O         -59.0408  -43.7031  -23.2638 O.3     1  UNL1       -0.4742
     15 C         -60.2757  -43.0579  -23.0714 C.ar    1  UNL1        0.1515
     16 C         -60.7296  -42.6878  -21.7915 C.ar    1  UNL1        0.0382
     17 C         -61.9459  -42.0278  -21.6376 C.ar    1  UNL1        0.0034
     18 C         -62.7362  -41.7448  -22.7487 C.ar    1  UNL1        0.0079
     19 C         -62.3215  -42.1192  -24.0373 C.ar    1  UNL1        0.0913
     20 C         -61.0644  -42.7570  -24.2032 C.ar    1  UNL1        0.0822
     21 N         -60.5515  -43.0554  -25.5111 N.pl3   1  UNL1       -0.3545
     22 H         -60.9031  -42.5653  -26.3619 H       1  UNL1        0.1424
     23 H         -59.7236  -43.6785  -25.6382 H       1  UNL1        0.1424
     24 C         -63.2424  -41.8760  -25.1711 C.2     1  UNL1        0.3393
     25 O         -63.2261  -42.6417  -26.1727 O.2     1  UNL1       -0.2450
     26 O         -64.0910  -40.7725  -25.1702 O.3     1  UNL1       -0.4771
     27 H         -64.7101  -40.5915  -25.9514 H       1  UNL1        0.2954
     28 C         -65.6330  -53.0429  -23.6223 C.2     1  UNL1        0.2839
     29 O         -64.6862  -53.5813  -22.9890 O.2     1  UNL1       -0.2665
     30 N         -65.4642  -51.7476  -24.2248 N.am    1  UNL1       -0.2766
     31 H         -66.2643  -51.3276  -24.7458 H       1  UNL1        0.1553
     32 C         -68.1007  -53.1072  -21.5265 C.3     1  UNL1        0.0345
     33 C         -67.9771  -53.7965  -22.8515 C.ar    1  UNL1        0.0202
     34 C         -66.9007  -53.7830  -23.7473 C.ar    1  UNL1        0.1946
     35 O         -67.1580  -54.5737  -24.7745 O.2     1  UNL1       -0.4492
     36 C         -68.3549  -55.0798  -24.6033 C.ar    1  UNL1        0.1452
     37 C         -69.0308  -55.9568  -25.4445 C.ar    1  UNL1        0.0375
     38 C         -70.3175  -56.3767  -25.0636 C.ar    1  UNL1        0.0031
     39 C         -70.9057  -55.9173  -23.8539 C.ar    1  UNL1        0.0002
     40 C         -70.1818  -55.0265  -23.0255 C.ar    1  UNL1        0.0028
     41 C         -68.9092  -54.6298  -23.4362 C.ar    1  UNL1        0.0337
     42 C         -72.2654  -56.3675  -23.4615 C.ar    1  UNL1        0.0000
     43 C         -72.5330  -56.7670  -22.1382 C.ar    1  UNL1        0.0000
     44 C         -73.8140  -57.1913  -21.7718 C.ar    1  UNL1        0.0000
     45 C         -74.8401  -57.2213  -22.7187 C.ar    1  UNL1        0.0000
     46 C         -74.5875  -56.8273  -24.0345 C.ar    1  UNL1        0.0000
     47 C         -73.3083  -56.4029  -24.4068 C.ar    1  UNL1        0.0000
@<TRIPOS>BOND
     1    32    33    1
     2    33    34   ar
     3    34    28    1
     4    28    29    2
     5    28    30   am
     6    30     1    1
     7     1     2   ar
     8     2     3   ar
     9     3     4   ar
    10     4     7    1
    11     7     8    1
    12     8     9    1
    13     9    10    1
    14    10    13    1
    15    13    14    1
    16    14    15    1
    17    15    16   ar
    18    16    17   ar
    19    17    18   ar
    20    18    19   ar
    21    19    24    1
    22    24    25    2
    23    24    26    1
    24    19    20   ar
    25    20    21    1
    26    10    11    1
    27    11    12    1
    28     4     5   ar
    29     5     6   ar
    30    34    35   ar
    31    35    36   ar
    32    36    37   ar
    33    37    38   ar
    34    38    39   ar
    35    39    42    1
    36    42    43   ar
    37    43    44   ar
    38    44    45   ar
    39    45    46   ar
    40    46    47   ar
    41    39    40   ar
    42    40    41   ar
    43    41    33   ar
    44     6     1   ar
    45    41    36   ar
    46    12     7    1
    47    47    42   ar
    48    20    15   ar
    49    30    31    1
    50    26    27    1
    51    21    22    1
    52    21    23    1
@<TRIPOS>MOLECULE
*****
 47 52 0 0 0
SMALL
GASTEIGER

@<TRIPOS>ATOM
      1 C         -64.9352  -53.0866  -24.8703 C.ar    1  UNL1        0.0702
      2 C         -64.9713  -53.4782  -26.2173 C.ar    1  UNL1        0.0191
      3 C         -65.9434  -54.3771  -26.6594 C.ar    1  UNL1        0.0356
      4 C         -66.8666  -54.9060  -25.7433 C.ar    1  UNL1        0.1318
      5 N         -66.8058  -54.5168  -24.4394 N.ar    1  UNL1       -0.2279
      6 C         -65.8684  -53.6428  -23.9870 C.ar    1  UNL1        0.1149
      7 N         -67.8972  -55.8187  -26.1660 N.pl3   1  UNL1       -0.2932
      8 C         -68.0021  -56.2662  -27.5620 C.3     1  UNL1        0.0923
      9 C         -69.4439  -56.1173  -28.0770 C.3     1  UNL1        0.0252
     10 C         -70.5180  -56.3244  -26.9753 C.3     1  UNL1        0.0472
     11 C         -69.9665  -57.1485  -25.7952 C.3     1  UNL1        0.0252
     12 C         -68.7775  -56.4185  -25.1522 C.3     1  UNL1        0.0923
     13 C         -71.7856  -56.9742  -27.5630 C.3     1  UNL1        0.2055
     14 O         -71.9876  -56.5798  -28.9215 O.3     1  UNL1       -0.4742
     15 C         -72.7991  -55.5181  -29.3603 C.ar    1  UNL1        0.1515
     16 C         -73.3334  -54.5719  -28.4656 C.ar    1  UNL1        0.0382
     17 C         -74.1127  -53.5180  -28.9353 C.ar    1  UNL1        0.0034
     18 C         -74.3886  -53.4010  -30.2952 C.ar    1  UNL1        0.0079
     19 C         -73.8877  -54.3403  -31.2115 C.ar    1  UNL1        0.0913
     20 C         -73.0604  -55.3938  -30.7422 C.ar    1  UNL1        0.0822
     21 N         -72.4361  -56.3092  -31.6561 N.pl3   1  UNL1       -0.3545
     22 H         -72.3060  -56.0735  -32.6636 H       1  UNL1        0.1424
     23 H         -71.9792  -57.1845  -31.3170 H       1  UNL1        0.1424
     24 C         -74.2879  -54.2198  -32.6321 C.2     1  UNL1        0.3393
     25 O         -74.4034  -55.2534  -33.3450 O.2     1  UNL1       -0.2450
     26 O         -74.4837  -52.9682  -33.2091 O.3     1  UNL1       -0.4771
     27 H         -74.7400  -52.8795  -34.1852 H       1  UNL1        0.2954
     28 C         -63.8332  -50.8010  -24.7503 C.2     1  UNL1        0.2839
     29 O         -64.6010  -50.3216  -25.6267 O.2     1  UNL1       -0.2665
     30 N         -63.9356  -52.1841  -24.3686 N.am    1  UNL1       -0.2766
     31 H         -63.2846  -52.5546  -23.6425 H       1  UNL1        0.1553
     32 C         -62.5063  -48.1464  -26.0460 C.3     1  UNL1        0.0345
     33 C         -62.2588  -48.7575  -24.7002 C.ar    1  UNL1        0.0202
     34 C         -62.8194  -49.9169  -24.1496 C.ar    1  UNL1        0.1946
     35 O         -62.2897  -50.1548  -22.9625 O.2     1  UNL1       -0.4492
     36 C         -61.4332  -49.1968  -22.7042 C.ar    1  UNL1        0.1452
     37 C         -60.6540  -49.0438  -21.5628 C.ar    1  UNL1        0.0375
     38 C         -59.7952  -47.9325  -21.4943 C.ar    1  UNL1        0.0031
     39 C         -59.7274  -46.9967  -22.5621 C.ar    1  UNL1        0.0002
     40 C         -60.5366  -47.1917  -23.7071 C.ar    1  UNL1        0.0028
     41 C         -61.3779  -48.3038  -23.7393 C.ar    1  UNL1        0.0337
     42 C         -58.8167  -45.8268  -22.4789 C.ar    1  UNL1        0.0000
     43 C         -59.3351  -44.5194  -22.4127 C.ar    1  UNL1        0.0000
     44 C         -58.4751  -43.4196  -22.3354 C.ar    1  UNL1        0.0000
     45 C         -57.0917  -43.6109  -22.3228 C.ar    1  UNL1        0.0000
     46 C         -56.5651  -44.9027  -22.3878 C.ar    1  UNL1        0.0000
     47 C         -57.4202  -46.0062  -22.4660 C.ar    1  UNL1        0.0000
@<TRIPOS>BOND
     1    32    33    1
     2    33    34   ar
     3    34    28    1
     4    28    29    2
     5    28    30   am
     6    30     1    1
     7     1     2   ar
     8     2     3   ar
     9     3     4   ar
    10     4     7    1
    11     7     8    1
    12     8     9    1
    13     9    10    1
    14    10    13    1
    15    13    14    1
    16    14    15    1
    17    15    16   ar
    18    16    17   ar
    19    17    18   ar
    20    18    19   ar
    21    19    24    1
    22    24    25    2
    23    24    26    1
    24    19    20   ar
    25    20    21    1
    26    10    11    1
    27    11    12    1
    28     4     5   ar
    29     5     6   ar
    30    34    35   ar
    31    35    36   ar
    32    36    37   ar
    33    37    38   ar
    34    38    39   ar
    35    39    42    1
    36    42    43   ar
    37    43    44   ar
    38    44    45   ar
    39    45    46   ar
    40    46    47   ar
    41    39    40   ar
    42    40    41   ar
    43    41    33   ar
    44     6     1   ar
    45    41    36   ar
    46    12     7    1
    47    47    42   ar
    48    20    15   ar
    49    30    31    1
    50    26    27    1
    51    21    22    1
    52    21    23    1
@<TRIPOS>MOLECULE
*****
 47 52 0 0 0
SMALL
GASTEIGER

@<TRIPOS>ATOM
      1 C         -63.6556  -50.4189  -24.3082 C.ar    1  UNL1        0.0702
      2 C         -62.8405  -51.3879  -23.7034 C.ar    1  UNL1        0.0191
      3 C         -63.3781  -52.6204  -23.3287 C.ar    1  UNL1        0.0356
      4 C         -64.7433  -52.8734  -23.5368 C.ar    1  UNL1        0.1318
      5 N         -65.5157  -51.9137  -24.1181 N.ar    1  UNL1       -0.2279
      6 C         -65.0135  -50.7071  -24.4911 C.ar    1  UNL1        0.1149
      7 N         -65.3291  -54.1407  -23.1837 N.pl3   1  UNL1       -0.2932
      8 C         -66.5579  -54.6254  -23.8280 C.3     1  UNL1        0.0923
      9 C         -67.5762  -55.0989  -22.7768 C.3     1  UNL1        0.0252
     10 C         -66.9179  -55.7048  -21.5079 C.3     1  UNL1        0.0472
     11 C         -65.4859  -56.1979  -21.7941 C.3     1  UNL1        0.0252
     12 C         -64.6073  -55.0260  -22.2575 C.3     1  UNL1        0.0923
     13 C         -67.7894  -56.8350  -20.9267 C.3     1  UNL1        0.2055
     14 O         -69.1416  -56.4080  -20.7506 O.3     1  UNL1       -0.4742
     15 C         -69.7187  -55.9724  -19.5441 C.ar    1  UNL1        0.1515
     16 C         -69.4852  -56.6374  -18.3256 C.ar    1  UNL1        0.0382
     17 C         -70.0517  -56.1658  -17.1445 C.ar    1  UNL1        0.0034
     18 C         -70.8729  -55.0412  -17.1601 C.ar    1  UNL1        0.0079
     19 C         -71.1424  -54.3673  -18.3626 C.ar    1  UNL1        0.0913
     20 C         -70.5356  -54.8210  -19.5628 C.ar    1  UNL1        0.0822
     21 N         -70.6934  -54.0966  -20.7929 N.pl3   1  UNL1       -0.3545
     22 H         -70.9775  -53.0932  -20.8047 H       1  UNL1        0.1424
     23 H         -70.4063  -54.5128  -21.7062 H       1  UNL1        0.1424
     24 C         -72.0949  -53.2338  -18.3355 C.2     1  UNL1        0.3393
     25 O         -72.9559  -53.1549  -17.4178 O.2     1  UNL1       -0.2450
     26 O         -72.0887  -52.2790  -19.3485 O.3     1  UNL1       -0.4771
     27 H         -72.7499  -51.5116  -19.3444 H       1  UNL1        0.2954
     28 C         -63.3814  -48.5122  -25.9641 C.2     1  UNL1        0.2839
     29 O         -64.0043  -49.1313  -26.8674 O.2     1  UNL1       -0.2665
     30 N         -63.1485  -49.1281  -24.6852 N.am    1  UNL1       -0.2766
     31 H         -62.6270  -48.5930  -23.9572 H       1  UNL1        0.1553
     32 C         -63.8209  -46.7917  -28.6720 C.3     1  UNL1        0.0345
     33 C         -63.0869  -46.4053  -27.4239 C.ar    1  UNL1        0.0202
     34 C         -62.8813  -47.1587  -26.2614 C.ar    1  UNL1        0.1946
     35 O         -62.1245  -46.4840  -25.4138 O.2     1  UNL1       -0.4492
     36 C         -61.8492  -45.3228  -25.9559 C.ar    1  UNL1        0.1452
     37 C         -61.0885  -44.2940  -25.4115 C.ar    1  UNL1        0.0375
     38 C         -60.9196  -43.1241  -26.1730 C.ar    1  UNL1        0.0031
     39 C         -61.5092  -43.0010  -27.4604 C.ar    1  UNL1        0.0002
     40 C         -62.2745  -44.0735  -27.9780 C.ar    1  UNL1        0.0028
     41 C         -62.4224  -45.2176  -27.1938 C.ar    1  UNL1        0.0337
     42 C         -61.3241  -41.7607  -28.2559 C.ar    1  UNL1        0.0000
     43 C         -62.2913  -41.3642  -29.1991 C.ar    1  UNL1        0.0000
     44 C         -62.1139  -40.1964  -29.9474 C.ar    1  UNL1        0.0000
     45 C         -60.9728  -39.4124  -29.7632 C.ar    1  UNL1        0.0000
     46 C         -60.0062  -39.7948  -28.8306 C.ar    1  UNL1        0.0000
     47 C         -60.1779  -40.9620  -28.0802 C.ar    1  UNL1        0.0000
@<TRIPOS>BOND
     1    32    33    1
     2    33    34   ar
     3    34    28    1
     4    28    29    2
     5    28    30   am
     6    30     1    1
     7     1     2   ar
     8     2     3   ar
     9     3     4   ar
    10     4     7    1
    11     7     8    1
    12     8     9    1
    13     9    10    1
    14    10    13    1
    15    13    14    1
    16    14    15    1
    17    15    16   ar
    18    16    17   ar
    19    17    18   ar
    20    18    19   ar
    21    19    24    1
    22    24    25    2
    23    24    26    1
    24    19    20   ar
    25    20    21    1
    26    10    11    1
    27    11    12    1
    28     4     5   ar
    29     5     6   ar
    30    34    35   ar
    31    35    36   ar
    32    36    37   ar
    33    37    38   ar
    34    38    39   ar
    35    39    42    1
    36    42    43   ar
    37    43    44   ar
    38    44    45   ar
    39    45    46   ar
    40    46    47   ar
    41    39    40   ar
    42    40    41   ar
    43    41    33   ar
    44     6     1   ar
    45    41    36   ar
    46    12     7    1
    47    47    42   ar
    48    20    15   ar
    49    30    31    1
    50    26    27    1
    51    21    22    1
    52    21    23    1
