@<TRIPOS>MOLECULE
*****
 46 50 0 0 0
SMALL
GASTEIGER

@<TRIPOS>ATOM
      1 C         -26.8711   51.3573   -9.0935 C.3     1  UNL1        0.1562
      2 C         -27.3510   50.4553  -10.2376 C.3     1  UNL1        0.0622
      3 C         -27.8783   49.1694   -9.5541 C.3     1  UNL1        0.1301
      4 O         -26.7844   48.3270   -9.2703 O.3     1  UNL1       -0.3808
      5 C         -28.4139   49.7139   -8.2023 C.3     1  UNL1        0.1348
      6 N         -27.5306   50.8419   -7.8990 N.am    1  UNL1       -0.2536
      7 C         -27.4745   51.5179   -6.6264 C.2     1  UNL1        0.3081
      8 O         -27.2353   52.7544   -6.5886 O.2     1  UNL1       -0.2522
      9 N         -27.7311   50.8230   -5.3979 N.am    1  UNL1       -0.2681
     10 H         -26.3992   48.0274  -10.1358 H       1  UNL1        0.2107
     11 H         -28.2414   51.3403   -4.6467 H       1  UNL1        0.1564
     12 C         -28.9080   48.3579  -10.3604 C.ar    1  UNL1        0.0310
     13 C         -29.6522   48.9216  -11.4220 C.ar    1  UNL1        0.0026
     14 C         -30.5539   48.1439  -12.1539 C.ar    1  UNL1        0.0295
     15 C         -30.7107   46.7892  -11.8635 C.ar    1  UNL1        0.1424
     16 F         -31.5839   46.0381  -12.5788 F       1  UNL1       -0.2041
     17 C         -29.9520   46.2030  -10.8508 C.ar    1  UNL1        0.0590
     18 C         -29.0469   46.9719  -10.1131 C.ar    1  UNL1        0.1406
     19 F         -28.3003   46.3573   -9.1611 F       1  UNL1       -0.2044
     20 C         -27.2487   49.5013   -5.1068 C.ar    1  UNL1        0.0516
     21 C         -26.6963   48.6861   -6.1115 C.ar    1  UNL1        0.0156
     22 C         -26.2430   47.3996   -5.8063 C.ar    1  UNL1        0.0127
     23 C         -26.3228   46.9208   -4.4950 C.ar    1  UNL1        0.0578
     24 CL        -25.7549   45.3056   -4.1140 Cl      1  UNL1       -0.0822
     25 C         -26.8499   47.7339   -3.4867 C.ar    1  UNL1        0.0127
     26 C         -27.3053   49.0207   -3.7901 C.ar    1  UNL1        0.0156
     27 O         -24.8553   50.7210   -7.9546 O.2     1  UNL1       -0.2730
     28 C         -25.3707   51.3337   -8.9288 C.2     1  UNL1        0.2454
     29 N         -24.5419   52.0763   -9.8375 N.am    1  UNL1       -0.2680
     30 H         -24.9963   52.8025  -10.4355 H       1  UNL1        0.1563
     31 C         -23.1096   51.9865   -9.8821 C.ar    1  UNL1        0.1346
     32 C         -22.4309   51.6080  -11.0522 C.ar    1  UNL1        0.0406
     33 C         -21.0361   51.5597  -11.0528 C.ar    1  UNL1        0.0736
     34 C         -20.3188   51.9041   -9.8983 C.ar    1  UNL1        0.2466
     35 C         -21.0335   52.2936   -8.7562 C.ar    1  UNL1        0.1691
     36 N         -22.3920   52.3324   -8.7785 N.ar    1  UNL1       -0.2228
     37 N         -18.8778   51.8512   -9.8806 N.am    1  UNL1       -0.0841
     38 C         -18.2396   51.6524   -8.6858 C.2     1  UNL1        0.2905
     39 C         -16.8465   51.5847   -8.6243 C.2     1  UNL1        0.0758
     40 C         -16.1022   51.7238   -9.7929 C.2     1  UNL1        0.0161
     41 C         -16.7541   51.9326  -11.0063 C.2     1  UNL1        0.1156
     42 C         -18.1514   51.9994  -11.0376 C.2     1  UNL1        0.4230
     43 O         -18.7287   52.2125  -12.1392 O.2     1  UNL1       -0.2135
     44 C         -29.8792   50.2063   -8.2641 C.3     1  UNL1        0.1596
     45 O         -30.7033   49.3653   -7.5056 O.3     1  UNL1       -0.3801
     46 H         -31.6157   49.7525   -7.5556 H       1  UNL1        0.2105
@<TRIPOS>BOND
     1    27    28    2
     2    28    29   am
     3    29    31    1
     4    31    32   ar
     5    32    33   ar
     6    33    34   ar
     7    34    37    1
     8    37    38    1
     9    38    39    2
    10    39    40    1
    11    40    41    2
    12    41    42    1
    13    42    43    2
    14    34    35   ar
    15    35    36   ar
    16    28     1    1
    17     1     2    1
    18     2     3    1
    19     3     4    1
    20     3    12    1
    21    12    13   ar
    22    13    14   ar
    23    14    15   ar
    24    15    16    1
    25    15    17   ar
    26    17    18   ar
    27    18    19    1
    28     3     5    1
    29     5    44    1
    30    44    45    1
    31     5     6    1
    32     6     7   am
    33     7     8    2
    34     7     9   am
    35     9    20    1
    36    20    21   ar
    37    21    22   ar
    38    22    23   ar
    39    23    24    1
    40    23    25   ar
    41    25    26   ar
    42    36    31   ar
    43     6     1    1
    44    26    20   ar
    45    42    37    1
    46    18    12   ar
    47    29    30    1
    48     4    10    1
    49    45    46    1
    50     9    11    1
@<TRIPOS>MOLECULE
*****
 46 50 0 0 0
SMALL
GASTEIGER

@<TRIPOS>ATOM
      1 C         -26.8674   50.6442   -9.6204 C.3     1  UNL1        0.1562
      2 C         -27.3098   49.2718  -10.1435 C.3     1  UNL1        0.0622
      3 C         -27.9060   48.5370   -8.9174 C.3     1  UNL1        0.1301
      4 O         -26.8512   47.9770   -8.1687 O.3     1  UNL1       -0.3808
      5 C         -28.4977   49.7095   -8.0895 C.3     1  UNL1        0.1348
      6 N         -27.6023   50.8327   -8.3747 N.am    1  UNL1       -0.2536
      7 C         -27.5957   52.0786   -7.6485 C.2     1  UNL1        0.3081
      8 O         -27.3264   53.1504   -8.2537 O.2     1  UNL1       -0.2522
      9 N         -27.9350   52.1348   -6.2558 N.am    1  UNL1       -0.2681
     10 H         -26.4288   47.2681   -8.7222 H       1  UNL1        0.2107
     11 H         -28.4705   52.9677   -5.9212 H       1  UNL1        0.1564
     12 C         -28.9127   47.4166   -9.2340 C.ar    1  UNL1        0.0310
     13 C         -29.3170   47.1133  -10.5543 C.ar    1  UNL1        0.0026
     14 C         -30.2075   46.0658  -10.8058 C.ar    1  UNL1        0.0295
     15 C         -30.6885   45.2847   -9.7555 C.ar    1  UNL1        0.1424
     16 F         -31.5492   44.2673  -10.0049 F       1  UNL1       -0.2041
     17 C         -30.2658   45.5377   -8.4509 C.ar    1  UNL1        0.0590
     18 C         -29.3749   46.5828   -8.1888 C.ar    1  UNL1        0.1406
     19 F         -28.9583   46.7737   -6.9114 F       1  UNL1       -0.2044
     20 C         -27.5035   51.1682   -5.2843 C.ar    1  UNL1        0.0516
     21 C         -28.2936   50.0489   -4.9647 C.ar    1  UNL1        0.0156
     22 C         -27.8576   49.1272   -4.0086 C.ar    1  UNL1        0.0127
     23 C         -26.6243   49.3055   -3.3743 C.ar    1  UNL1        0.0578
     24 CL        -26.0792   48.1488   -2.1736 Cl      1  UNL1       -0.0822
     25 C         -25.8233   50.4035   -3.7033 C.ar    1  UNL1        0.0127
     26 C         -26.2582   51.3276   -4.6584 C.ar    1  UNL1        0.0156
     27 O         -24.8386   49.9497   -8.5400 O.2     1  UNL1       -0.2730
     28 C         -25.3790   50.7193   -9.3802 C.2     1  UNL1        0.2454
     29 N         -24.5981   51.7214  -10.0511 N.am    1  UNL1       -0.2680
     30 H         -25.1024   52.5208  -10.4964 H       1  UNL1        0.1563
     31 C         -23.1634   51.7740  -10.0333 C.ar    1  UNL1        0.1346
     32 C         -22.4577   52.2723   -8.9257 C.ar    1  UNL1        0.0406
     33 C         -21.0622   52.2794   -8.9462 C.ar    1  UNL1        0.0736
     34 C         -20.3715   51.7758  -10.0575 C.ar    1  UNL1        0.2466
     35 C         -21.1129   51.2710  -11.1356 C.ar    1  UNL1        0.1691
     36 N         -22.4716   51.2751  -11.0940 N.ar    1  UNL1       -0.2228
     37 N         -18.9299   51.7839  -10.0972 N.am    1  UNL1       -0.0841
     38 C         -18.3042   52.0698  -11.2809 C.2     1  UNL1        0.2905
     39 C         -16.9106   52.0981  -11.3620 C.2     1  UNL1        0.0758
     40 C         -16.1533   51.8297  -10.2247 C.2     1  UNL1        0.0161
     41 C         -16.7928   51.5326   -9.0232 C.2     1  UNL1        0.1156
     42 C         -18.1909   51.5081   -8.9720 C.2     1  UNL1        0.4230
     43 O         -18.7577   51.2145   -7.8836 O.2     1  UNL1       -0.2135
     44 C         -29.9443   50.0872   -8.4873 C.3     1  UNL1        0.1596
     45 O         -30.7973   49.9595   -7.3838 O.3     1  UNL1       -0.3801
     46 H         -31.6951   50.2487   -7.6923 H       1  UNL1        0.2105
@<TRIPOS>BOND
     1    27    28    2
     2    28    29   am
     3    29    31    1
     4    31    32   ar
     5    32    33   ar
     6    33    34   ar
     7    34    37    1
     8    37    38    1
     9    38    39    2
    10    39    40    1
    11    40    41    2
    12    41    42    1
    13    42    43    2
    14    34    35   ar
    15    35    36   ar
    16    28     1    1
    17     1     2    1
    18     2     3    1
    19     3     4    1
    20     3    12    1
    21    12    13   ar
    22    13    14   ar
    23    14    15   ar
    24    15    16    1
    25    15    17   ar
    26    17    18   ar
    27    18    19    1
    28     3     5    1
    29     5    44    1
    30    44    45    1
    31     5     6    1
    32     6     7   am
    33     7     8    2
    34     7     9   am
    35     9    20    1
    36    20    21   ar
    37    21    22   ar
    38    22    23   ar
    39    23    24    1
    40    23    25   ar
    41    25    26   ar
    42    36    31   ar
    43     6     1    1
    44    26    20   ar
    45    42    37    1
    46    18    12   ar
    47    29    30    1
    48     4    10    1
    49    45    46    1
    50     9    11    1
@<TRIPOS>MOLECULE
*****
 46 50 0 0 0
SMALL
GASTEIGER

@<TRIPOS>ATOM
      1 C         -30.1439   47.0813   -7.5238 C.3     1  UNL1        0.1562
      2 C         -29.4313   46.0304   -6.6633 C.3     1  UNL1        0.0622
      3 C         -28.1799   46.7441   -6.0946 C.3     1  UNL1        0.1301
      4 O         -27.1630   46.7201   -7.0704 O.3     1  UNL1       -0.3808
      5 C         -28.6711   48.2112   -5.9651 C.3     1  UNL1        0.1348
      6 N         -29.6239   48.3651   -7.0665 N.am    1  UNL1       -0.2536
      7 C         -30.1647   49.6261   -7.5103 C.2     1  UNL1        0.3081
      8 O         -31.3436   49.6768   -7.9519 O.2     1  UNL1       -0.2522
      9 N         -29.4055   50.8398   -7.4185 N.am    1  UNL1       -0.2681
     10 H         -26.8906   45.7737   -7.2020 H       1  UNL1        0.2107
     11 H         -29.9211   51.7163   -7.1772 H       1  UNL1        0.1564
     12 C         -27.6065   46.1531   -4.7942 C.ar    1  UNL1        0.0310
     13 C         -28.3989   45.4176   -3.8833 C.ar    1  UNL1        0.0026
     14 C         -27.8350   44.8669   -2.7290 C.ar    1  UNL1        0.0295
     15 C         -26.4717   45.0123   -2.4746 C.ar    1  UNL1        0.1424
     16 F         -25.9287   44.4730   -1.3554 F       1  UNL1       -0.2041
     17 C         -25.6637   45.6943   -3.3839 C.ar    1  UNL1        0.0590
     18 C         -26.2178   46.2484   -4.5416 C.ar    1  UNL1        0.1406
     19 F         -25.3926   46.8722   -5.4200 F       1  UNL1       -0.2044
     20 C         -28.0060   50.9373   -7.7290 C.ar    1  UNL1        0.0516
     21 C         -27.0221   50.7409   -6.7429 C.ar    1  UNL1        0.0156
     22 C         -25.6668   50.8510   -7.0665 C.ar    1  UNL1        0.0127
     23 C         -25.2808   51.1431   -8.3783 C.ar    1  UNL1        0.0578
     24 CL        -23.5797   51.2824   -8.7825 Cl      1  UNL1       -0.0822
     25 C         -26.2525   51.3173   -9.3687 C.ar    1  UNL1        0.0127
     26 C         -27.6090   51.2090   -9.0468 C.ar    1  UNL1        0.0156
     27 O         -28.8251   46.3278   -9.3835 O.2     1  UNL1       -0.2730
     28 C         -29.8843   46.8937   -8.9990 C.2     1  UNL1        0.2454
     29 N         -30.8072   47.4322   -9.9594 N.am    1  UNL1       -0.2680
     30 H         -31.5000   48.1419   -9.6310 H       1  UNL1        0.1563
     31 C         -30.7535   47.1657  -11.3692 C.ar    1  UNL1        0.1346
     32 C         -31.5838   47.8407  -12.2792 C.ar    1  UNL1        0.0406
     33 C         -31.4765   47.5646  -13.6430 C.ar    1  UNL1        0.0736
     34 C         -30.5339   46.6333  -14.1013 C.ar    1  UNL1        0.2466
     35 C         -29.7117   45.9940  -13.1621 C.ar    1  UNL1        0.1691
     36 N         -29.8345   46.2780  -11.8385 N.ar    1  UNL1       -0.2228
     37 N         -30.4167   46.3312  -15.5065 N.am    1  UNL1       -0.0841
     38 C         -30.6462   45.0485  -15.9268 C.2     1  UNL1        0.2905
     39 C         -30.5532   44.7141  -17.2791 C.2     1  UNL1        0.0758
     40 C         -30.2209   45.6985  -18.2063 C.2     1  UNL1        0.0161
     41 C         -29.9815   47.0013  -17.7748 C.2     1  UNL1        0.1156
     42 C         -30.0786   47.3071  -16.4129 C.2     1  UNL1        0.4230
     43 O         -29.8362   48.4854  -16.0322 O.2     1  UNL1       -0.2135
     44 C         -29.3777   48.5170   -4.6232 C.3     1  UNL1        0.1596
     45 O         -29.4192   49.8997   -4.4038 O.3     1  UNL1       -0.3801
     46 H         -29.9127   50.0307   -3.5527 H       1  UNL1        0.2105
@<TRIPOS>BOND
     1    27    28    2
     2    28    29   am
     3    29    31    1
     4    31    32   ar
     5    32    33   ar
     6    33    34   ar
     7    34    37    1
     8    37    38    1
     9    38    39    2
    10    39    40    1
    11    40    41    2
    12    41    42    1
    13    42    43    2
    14    34    35   ar
    15    35    36   ar
    16    28     1    1
    17     1     2    1
    18     2     3    1
    19     3     4    1
    20     3    12    1
    21    12    13   ar
    22    13    14   ar
    23    14    15   ar
    24    15    16    1
    25    15    17   ar
    26    17    18   ar
    27    18    19    1
    28     3     5    1
    29     5    44    1
    30    44    45    1
    31     5     6    1
    32     6     7   am
    33     7     8    2
    34     7     9   am
    35     9    20    1
    36    20    21   ar
    37    21    22   ar
    38    22    23   ar
    39    23    24    1
    40    23    25   ar
    41    25    26   ar
    42    36    31   ar
    43     6     1    1
    44    26    20   ar
    45    42    37    1
    46    18    12   ar
    47    29    30    1
    48     4    10    1
    49    45    46    1
    50     9    11    1
@<TRIPOS>MOLECULE
*****
 46 50 0 0 0
SMALL
GASTEIGER

@<TRIPOS>ATOM
      1 C         -28.1413   51.3584   -6.8895 C.3     1  UNL1        0.1562
      2 C         -26.6561   51.5524   -7.2203 C.3     1  UNL1        0.0622
      3 C         -26.3678   50.5893   -8.3985 C.3     1  UNL1        0.1301
      4 O         -26.1444   49.2970   -7.8820 O.3     1  UNL1       -0.3808
      5 C         -27.7298   50.5676   -9.1436 C.3     1  UNL1        0.1348
      6 N         -28.7197   50.7430   -8.0787 N.am    1  UNL1       -0.2536
      7 C         -30.1391   50.5466   -8.2408 C.2     1  UNL1        0.3081
      8 O         -30.9450   51.2630   -7.5890 O.2     1  UNL1       -0.2522
      9 N         -30.6604   49.5814   -9.1653 N.am    1  UNL1       -0.2681
     10 H         -25.3052   49.3232   -7.3506 H       1  UNL1        0.2107
     11 H         -31.5353   49.8283   -9.6809 H       1  UNL1        0.1564
     12 C         -25.1677   50.9612   -9.2876 C.ar    1  UNL1        0.0310
     13 C         -25.2990   51.2019  -10.6745 C.ar    1  UNL1        0.0026
     14 C         -24.1917   51.5709  -11.4433 C.ar    1  UNL1        0.0295
     15 C         -22.9433   51.7350  -10.8443 C.ar    1  UNL1        0.1424
     16 F         -21.8729   52.0967  -11.5937 F       1  UNL1       -0.2041
     17 C         -22.8019   51.5478   -9.4696 C.ar    1  UNL1        0.0590
     18 C         -23.9033   51.1790   -8.6915 C.ar    1  UNL1        0.1406
     19 F         -23.7335   51.0427   -7.3520 F       1  UNL1       -0.2044
     20 C         -30.1078   48.2684   -9.3524 C.ar    1  UNL1        0.0516
     21 C         -29.8951   47.4020   -8.2646 C.ar    1  UNL1        0.0156
     22 C         -29.3467   46.1329   -8.4700 C.ar    1  UNL1        0.0127
     23 C         -29.0196   45.7114   -9.7624 C.ar    1  UNL1        0.0578
     24 CL        -28.3300   44.1190  -10.0184 Cl      1  UNL1       -0.0822
     25 C         -29.2492   46.5584  -10.8512 C.ar    1  UNL1        0.0127
     26 C         -29.7965   47.8290  -10.6478 C.ar    1  UNL1        0.0156
     27 O         -27.6440   50.6522   -4.6491 O.2     1  UNL1       -0.2730
     28 C         -28.3545   50.4844   -5.6773 C.2     1  UNL1        0.2454
     29 N         -29.3109   49.4136   -5.7296 N.am    1  UNL1       -0.2680
     30 H         -29.6586   49.1106   -6.6671 H       1  UNL1        0.1563
     31 C         -29.7181   48.6375   -4.5924 C.ar    1  UNL1        0.1346
     32 C         -31.0668   48.5378   -4.2128 C.ar    1  UNL1        0.0406
     33 C         -31.4154   47.7506   -3.1143 C.ar    1  UNL1        0.0736
     34 C         -30.4274   47.0509   -2.4072 C.ar    1  UNL1        0.2466
     35 C         -29.0946   47.1630   -2.8291 C.ar    1  UNL1        0.1691
     36 N         -28.7783   47.9363   -3.9012 N.ar    1  UNL1       -0.2228
     37 N         -30.7706   46.2401   -1.2650 N.am    1  UNL1       -0.0841
     38 C         -30.6169   46.7679   -0.0112 C.2     1  UNL1        0.2905
     39 C         -30.9462   46.0215    1.1218 C.2     1  UNL1        0.0758
     40 C         -31.4337   44.7260    0.9701 C.2     1  UNL1        0.0161
     41 C         -31.5827   44.1892   -0.3068 C.2     1  UNL1        0.1156
     42 C         -31.2416   44.9590   -1.4243 C.2     1  UNL1        0.4230
     43 O         -31.3589   44.4529   -2.5742 O.2     1  UNL1       -0.2135
     44 C         -27.8881   51.6975  -10.1884 C.3     1  UNL1        0.1596
     45 O         -28.7411   51.2849  -11.2199 O.3     1  UNL1       -0.3801
     46 H         -28.8297   52.0602  -11.8331 H       1  UNL1        0.2105
@<TRIPOS>BOND
     1    27    28    2
     2    28    29   am
     3    29    31    1
     4    31    32   ar
     5    32    33   ar
     6    33    34   ar
     7    34    37    1
     8    37    38    1
     9    38    39    2
    10    39    40    1
    11    40    41    2
    12    41    42    1
    13    42    43    2
    14    34    35   ar
    15    35    36   ar
    16    28     1    1
    17     1     2    1
    18     2     3    1
    19     3     4    1
    20     3    12    1
    21    12    13   ar
    22    13    14   ar
    23    14    15   ar
    24    15    16    1
    25    15    17   ar
    26    17    18   ar
    27    18    19    1
    28     3     5    1
    29     5    44    1
    30    44    45    1
    31     5     6    1
    32     6     7   am
    33     7     8    2
    34     7     9   am
    35     9    20    1
    36    20    21   ar
    37    21    22   ar
    38    22    23   ar
    39    23    24    1
    40    23    25   ar
    41    25    26   ar
    42    36    31   ar
    43     6     1    1
    44    26    20   ar
    45    42    37    1
    46    18    12   ar
    47    29    30    1
    48     4    10    1
    49    45    46    1
    50     9    11    1
@<TRIPOS>MOLECULE
*****
 46 50 0 0 0
SMALL
GASTEIGER

@<TRIPOS>ATOM
      1 C         -28.7503   51.6910   -8.1922 C.3     1  UNL1        0.1562
      2 C         -27.2319   51.8907   -8.1059 C.3     1  UNL1        0.0622
      3 C         -26.6211   50.8028   -9.0235 C.3     1  UNL1        0.1301
      4 O         -26.5613   49.5894   -8.3087 O.3     1  UNL1       -0.3808
      5 C         -27.7112   50.6488  -10.1182 C.3     1  UNL1        0.1348
      6 N         -28.9649   50.9194   -9.4112 N.am    1  UNL1       -0.2536
      7 C         -30.2785   50.6603   -9.9467 C.2     1  UNL1        0.3081
      8 O         -31.2347   51.4240   -9.6466 O.2     1  UNL1       -0.2522
      9 N         -30.5160   49.5753  -10.8546 N.am    1  UNL1       -0.2681
     10 H         -25.9103   49.7057   -7.5670 H       1  UNL1        0.2107
     11 H         -31.2046   49.7308  -11.6253 H       1  UNL1        0.1564
     12 C         -25.2143   51.1030   -9.5713 C.ar    1  UNL1        0.0310
     13 C         -24.9739   51.3576  -10.9409 C.ar    1  UNL1        0.0026
     14 C         -23.6875   51.6602  -11.3960 C.ar    1  UNL1        0.0295
     15 C         -22.6252   51.7433  -10.4966 C.ar    1  UNL1        0.1424
     16 F         -21.3798   52.0409  -10.9424 F       1  UNL1       -0.2041
     17 C         -22.8497   51.5415   -9.1351 C.ar    1  UNL1        0.0590
     18 C         -24.1327   51.2387   -8.6696 C.ar    1  UNL1        0.1406
     19 F         -24.3178   51.0860   -7.3339 F       1  UNL1       -0.2044
     20 C         -29.9387   48.2674  -10.7116 C.ar    1  UNL1        0.0516
     21 C         -29.9133   47.3572  -11.7840 C.ar    1  UNL1        0.0156
     22 C         -29.3555   46.0864  -11.6180 C.ar    1  UNL1        0.0127
     23 C         -28.8053   45.7177  -10.3866 C.ar    1  UNL1        0.0578
     24 CL        -28.1070   44.1221  -10.1793 Cl      1  UNL1       -0.0822
     25 C         -28.8066   46.6252   -9.3226 C.ar    1  UNL1        0.0127
     26 C         -29.3654   47.8965   -9.4860 C.ar    1  UNL1        0.0156
     27 O         -30.5443   51.0012   -6.7529 O.2     1  UNL1       -0.2730
     28 C         -29.3069   50.9625   -6.9929 C.2     1  UNL1        0.2454
     29 N         -28.4141   50.2954   -6.0862 N.am    1  UNL1       -0.2680
     30 H         -27.3970   50.5287   -6.1374 H       1  UNL1        0.1563
     31 C         -28.8404   49.4327   -5.0206 C.ar    1  UNL1        0.1346
     32 C         -28.0211   48.4000   -4.5357 C.ar    1  UNL1        0.0406
     33 C         -28.4703   47.6039   -3.4811 C.ar    1  UNL1        0.0736
     34 C         -29.7227   47.8462   -2.8993 C.ar    1  UNL1        0.2466
     35 C         -30.5027   48.8983   -3.4009 C.ar    1  UNL1        0.1691
     36 N         -30.0452   49.6601   -4.4295 N.ar    1  UNL1       -0.2228
     37 N         -30.2043   47.0272   -1.8144 N.am    1  UNL1       -0.0841
     38 C         -31.0297   45.9729   -2.1000 C.2     1  UNL1        0.2905
     39 C         -31.5112   45.1482   -1.0814 C.2     1  UNL1        0.0758
     40 C         -31.1472   45.4062    0.2377 C.2     1  UNL1        0.0161
     41 C         -30.3125   46.4837    0.5258 C.2     1  UNL1        0.1156
     42 C         -29.8476   47.2954   -0.5148 C.2     1  UNL1        0.4230
     43 O         -29.1114   48.2821   -0.2382 O.2     1  UNL1       -0.2135
     44 C         -27.5574   51.6397  -11.2963 C.3     1  UNL1        0.1596
     45 O         -28.8069   51.9025  -11.8721 O.3     1  UNL1       -0.3801
     46 H         -28.6464   52.5668  -12.5918 H       1  UNL1        0.2105
@<TRIPOS>BOND
     1    27    28    2
     2    28    29   am
     3    29    31    1
     4    31    32   ar
     5    32    33   ar
     6    33    34   ar
     7    34    37    1
     8    37    38    1
     9    38    39    2
    10    39    40    1
    11    40    41    2
    12    41    42    1
    13    42    43    2
    14    34    35   ar
    15    35    36   ar
    16    28     1    1
    17     1     2    1
    18     2     3    1
    19     3     4    1
    20     3    12    1
    21    12    13   ar
    22    13    14   ar
    23    14    15   ar
    24    15    16    1
    25    15    17   ar
    26    17    18   ar
    27    18    19    1
    28     3     5    1
    29     5    44    1
    30    44    45    1
    31     5     6    1
    32     6     7   am
    33     7     8    2
    34     7     9   am
    35     9    20    1
    36    20    21   ar
    37    21    22   ar
    38    22    23   ar
    39    23    24    1
    40    23    25   ar
    41    25    26   ar
    42    36    31   ar
    43     6     1    1
    44    26    20   ar
    45    42    37    1
    46    18    12   ar
    47    29    30    1
    48     4    10    1
    49    45    46    1
    50     9    11    1
@<TRIPOS>MOLECULE
*****
 46 50 0 0 0
SMALL
GASTEIGER

@<TRIPOS>ATOM
      1 C         -29.2775   49.3834   -8.7875 C.3     1  UNL1        0.1562
      2 C         -28.8523   48.4706   -7.6305 C.3     1  UNL1        0.0622
      3 C         -27.4228   48.9285   -7.2492 C.3     1  UNL1        0.1301
      4 O         -26.5047   48.3306   -8.1360 O.3     1  UNL1       -0.3808
      5 C         -27.4682   50.4461   -7.5741 C.3     1  UNL1        0.1348
      6 N         -28.3911   50.5390   -8.7074 N.am    1  UNL1       -0.2536
      7 C         -28.5712   51.7156   -9.5215 C.2     1  UNL1        0.3081
      8 O         -29.7072   51.9715  -10.0027 O.2     1  UNL1       -0.2522
      9 N         -27.4939   52.6321   -9.7608 N.am    1  UNL1       -0.2681
     10 H         -26.5203   47.3503   -7.9740 H       1  UNL1        0.2107
     11 H         -27.7256   53.6502   -9.8067 H       1  UNL1        0.1564
     12 C         -26.9778   48.6036   -5.8120 C.ar    1  UNL1        0.0310
     13 C         -26.8557   49.5979   -4.8145 C.ar    1  UNL1        0.0026
     14 C         -26.4817   49.2596   -3.5110 C.ar    1  UNL1        0.0295
     15 C         -26.2510   47.9276   -3.1692 C.ar    1  UNL1        0.1424
     16 F         -25.8920   47.6041   -1.9024 F       1  UNL1       -0.2041
     17 C         -26.4113   46.9265   -4.1267 C.ar    1  UNL1        0.0590
     18 C         -26.7856   47.2542   -5.4332 C.ar    1  UNL1        0.1406
     19 F         -26.9675   46.2487   -6.3263 F       1  UNL1       -0.2044
     20 C         -26.1419   52.2290  -10.0332 C.ar    1  UNL1        0.0516
     21 C         -25.0554   52.7992   -9.3451 C.ar    1  UNL1        0.0156
     22 C         -23.7481   52.3984   -9.6346 C.ar    1  UNL1        0.0127
     23 C         -23.5139   51.4158  -10.6014 C.ar    1  UNL1        0.0578
     24 CL        -21.8726   50.9149  -10.9646 Cl      1  UNL1       -0.0822
     25 C         -24.5904   50.8283  -11.2734 C.ar    1  UNL1        0.0127
     26 C         -25.8990   51.2288  -10.9864 C.ar    1  UNL1        0.0156
     27 O         -28.2288   47.8780  -10.3365 O.2     1  UNL1       -0.2730
     28 C         -29.1559   48.7079  -10.1320 C.2     1  UNL1        0.2454
     29 N         -30.0481   49.0736  -11.1970 N.am    1  UNL1       -0.2680
     30 H         -30.5956   49.9579  -11.0977 H       1  UNL1        0.1563
     31 C         -30.1370   48.3798  -12.4509 C.ar    1  UNL1        0.1346
     32 C         -30.1092   49.0657  -13.6764 C.ar    1  UNL1        0.0406
     33 C         -30.1733   48.3444  -14.8695 C.ar    1  UNL1        0.0736
     34 C         -30.2467   46.9445  -14.8433 C.ar    1  UNL1        0.2466
     35 C         -30.2542   46.2967  -13.5994 C.ar    1  UNL1        0.1691
     36 N         -30.1918   47.0198  -12.4501 N.ar    1  UNL1       -0.2228
     37 N         -30.3219   46.1856  -16.0672 N.am    1  UNL1       -0.0841
     38 C         -30.7864   44.8986  -16.0179 C.2     1  UNL1        0.2905
     39 C         -30.8849   44.1313  -17.1802 C.2     1  UNL1        0.0758
     40 C         -30.5033   44.6843  -18.3999 C.2     1  UNL1        0.0161
     41 C         -30.0248   45.9919  -18.4459 C.2     1  UNL1        0.1156
     42 C         -29.9337   46.7365  -17.2647 C.2     1  UNL1        0.4230
     43 O         -29.4765   47.9114  -17.3165 O.2     1  UNL1       -0.2135
     44 C         -27.9907   51.3188   -6.4085 C.3     1  UNL1        0.1596
     45 O         -27.8342   52.6766   -6.7145 O.3     1  UNL1       -0.3801
     46 H         -28.2183   53.1792   -5.9497 H       1  UNL1        0.2105
@<TRIPOS>BOND
     1    27    28    2
     2    28    29   am
     3    29    31    1
     4    31    32   ar
     5    32    33   ar
     6    33    34   ar
     7    34    37    1
     8    37    38    1
     9    38    39    2
    10    39    40    1
    11    40    41    2
    12    41    42    1
    13    42    43    2
    14    34    35   ar
    15    35    36   ar
    16    28     1    1
    17     1     2    1
    18     2     3    1
    19     3     4    1
    20     3    12    1
    21    12    13   ar
    22    13    14   ar
    23    14    15   ar
    24    15    16    1
    25    15    17   ar
    26    17    18   ar
    27    18    19    1
    28     3     5    1
    29     5    44    1
    30    44    45    1
    31     5     6    1
    32     6     7   am
    33     7     8    2
    34     7     9   am
    35     9    20    1
    36    20    21   ar
    37    21    22   ar
    38    22    23   ar
    39    23    24    1
    40    23    25   ar
    41    25    26   ar
    42    36    31   ar
    43     6     1    1
    44    26    20   ar
    45    42    37    1
    46    18    12   ar
    47    29    30    1
    48     4    10    1
    49    45    46    1
    50     9    11    1
