@<TRIPOS>MOLECULE
*****
 45 49 0 0 0
SMALL
GASTEIGER

@<TRIPOS>ATOM
      1 C          -9.3800  -11.8532   30.6311 C.3     1  UNL1        0.1562
      2 C          -9.3220  -12.9452   31.7039 C.3     1  UNL1        0.0623
      3 C         -10.2041  -12.4693   32.8941 C.3     1  UNL1        0.1322
      4 O          -9.4102  -12.4729   34.0580 O.3     1  UNL1       -0.3807
      5 C         -10.5846  -11.0106   32.5703 C.3     1  UNL1        0.1265
      6 N         -10.0715  -10.7247   31.2395 N.am    1  UNL1       -0.2544
      7 C         -10.3714   -9.5081   30.5295 C.2     1  UNL1        0.3081
      8 O         -10.2248   -9.4670   29.2774 O.2     1  UNL1       -0.2522
      9 N         -10.8406   -8.3467   31.2352 N.am    1  UNL1       -0.2681
     10 H          -9.0989  -13.4052   34.2072 H       1  UNL1        0.2107
     11 H         -11.3160   -8.4808   32.1550 H       1  UNL1        0.1564
     12 C         -11.4855  -13.3182   33.0892 C.ar    1  UNL1        0.0647
     13 C         -11.6647  -14.1560   34.2278 C.ar    1  UNL1        0.1363
     14 O         -10.6977  -14.2331   35.2305 O.3     1  UNL1       -0.5056
     15 C         -12.8381  -14.9110   34.3737 C.ar    1  UNL1        0.0661
     16 C         -13.8645  -14.8147   33.4390 C.ar    1  UNL1        0.1454
     17 F         -14.9976  -15.5425   33.5973 F       1  UNL1       -0.2040
     18 C         -13.7409  -13.9442   32.3616 C.ar    1  UNL1        0.0592
     19 C         -12.5785  -13.1882   32.1928 C.ar    1  UNL1        0.1435
     20 F         -12.5517  -12.3034   31.1680 F       1  UNL1       -0.2042
     21 H         -10.8183  -14.8204   36.0475 H       1  UNL1        0.2922
     22 C         -10.7313   -7.0025   30.7345 C.ar    1  UNL1        0.0516
     23 C          -9.7395   -6.7008   29.7877 C.ar    1  UNL1        0.0156
     24 C          -9.6318   -5.4108   29.2597 C.ar    1  UNL1        0.0127
     25 C         -10.5236   -4.4121   29.6617 C.ar    1  UNL1        0.0578
     26 CL        -10.3909   -2.7952   28.9947 Cl      1  UNL1       -0.0822
     27 C         -11.5279   -4.7068   30.5885 C.ar    1  UNL1        0.0127
     28 C         -11.6370   -5.9955   31.1197 C.ar    1  UNL1        0.0156
     29 O          -7.6007  -10.3092   30.2425 O.2     1  UNL1       -0.2730
     30 C          -8.0052  -11.4935   30.0977 C.2     1  UNL1        0.2454
     31 N          -7.1153  -12.4582   29.5155 N.am    1  UNL1       -0.2680
     32 H          -6.0993  -12.3796   29.7467 H       1  UNL1        0.1563
     33 C          -7.5194  -13.4606   28.5745 C.ar    1  UNL1        0.1346
     34 C          -6.5581  -14.1129   27.7940 C.ar    1  UNL1        0.0406
     35 C          -6.9596  -15.0932   26.8866 C.ar    1  UNL1        0.0736
     36 C          -8.3199  -15.3991   26.7389 C.ar    1  UNL1        0.2466
     37 C          -9.2534  -14.7013   27.5197 C.ar    1  UNL1        0.1691
     38 N          -8.8361  -13.7615   28.4092 N.ar    1  UNL1       -0.2228
     39 N          -8.7463  -16.4253   25.8205 N.am    1  UNL1       -0.0841
     40 C          -9.2853  -17.5783   26.3248 C.2     1  UNL1        0.2905
     41 C          -9.7225  -18.5933   25.4716 C.2     1  UNL1        0.0758
     42 C          -9.6053  -18.4271   24.0940 C.2     1  UNL1        0.0161
     43 C          -9.0511  -17.2549   23.5842 C.2     1  UNL1        0.1156
     44 C          -8.6185  -16.2558   24.4631 C.2     1  UNL1        0.4230
     45 O          -8.0976  -15.2086   23.9898 O.2     1  UNL1       -0.2135
@<TRIPOS>BOND
     1    29    30    2
     2    30    31   am
     3    31    33    1
     4    33    34   ar
     5    34    35   ar
     6    35    36   ar
     7    36    39    1
     8    39    40    1
     9    40    41    2
    10    41    42    1
    11    42    43    2
    12    43    44    1
    13    44    45    2
    14    36    37   ar
    15    37    38   ar
    16    30     1    1
    17     1     2    1
    18     2     3    1
    19     3     4    1
    20     3    12    1
    21    12    13   ar
    22    13    14    1
    23    13    15   ar
    24    15    16   ar
    25    16    17    1
    26    16    18   ar
    27    18    19   ar
    28    19    20    1
    29     3     5    1
    30     5     6    1
    31     6     7   am
    32     7     8    2
    33     7     9   am
    34     9    22    1
    35    22    23   ar
    36    23    24   ar
    37    24    25   ar
    38    25    26    1
    39    25    27   ar
    40    27    28   ar
    41    38    33   ar
    42     6     1    1
    43    28    22   ar
    44    44    39    1
    45    19    12   ar
    46    31    32    1
    47     4    10    1
    48    14    21    1
    49     9    11    1
@<TRIPOS>MOLECULE
*****
 45 49 0 0 0
SMALL
GASTEIGER

@<TRIPOS>ATOM
      1 C          -9.8743  -12.1018   33.6840 C.3     1  UNL1        0.1562
      2 C         -10.6025  -13.2041   34.4595 C.3     1  UNL1        0.0623
      3 C         -12.0577  -13.2684   33.9122 C.3     1  UNL1        0.1322
      4 O         -12.9422  -13.0998   34.9959 O.3     1  UNL1       -0.3807
      5 C         -12.2016  -12.0529   32.9744 C.3     1  UNL1        0.1265
      6 N         -10.8920  -11.4251   32.8912 N.am    1  UNL1       -0.2544
      7 C         -10.5956  -10.3502   31.9796 C.2     1  UNL1        0.3081
      8 O          -9.3954  -10.1003   31.6828 O.2     1  UNL1       -0.2522
      9 N         -11.6550   -9.5673   31.4036 N.am    1  UNL1       -0.2681
     10 H         -12.7786  -13.8424   35.6363 H       1  UNL1        0.2107
     11 H         -12.6063   -9.9915   31.3331 H       1  UNL1        0.1564
     12 C         -12.3671  -14.5732   33.1363 C.ar    1  UNL1        0.0647
     13 C         -13.2726  -15.5504   33.6418 C.ar    1  UNL1        0.1363
     14 O         -13.9380  -15.3639   34.8538 O.3     1  UNL1       -0.5056
     15 C         -13.5308  -16.7209   32.9127 C.ar    1  UNL1        0.0661
     16 C         -12.9492  -16.9222   31.6647 C.ar    1  UNL1        0.1454
     17 F         -13.2150  -18.0535   30.9661 F       1  UNL1       -0.2040
     18 C         -12.1233  -15.9451   31.1197 C.ar    1  UNL1        0.0592
     19 C         -11.8468  -14.7752   31.8310 C.ar    1  UNL1        0.1435
     20 F         -11.0988  -13.8302   31.2136 F       1  UNL1       -0.2042
     21 H         -14.5891  -16.0493   35.2189 H       1  UNL1        0.2922
     22 C         -11.4797   -8.2397   30.8780 C.ar    1  UNL1        0.0516
     23 C         -12.1213   -7.1614   31.5078 C.ar    1  UNL1        0.0156
     24 C         -11.9420   -5.8569   31.0383 C.ar    1  UNL1        0.0127
     25 C         -11.1080   -5.6145   29.9429 C.ar    1  UNL1        0.0578
     26 CL        -10.8797   -3.9767   29.3578 Cl      1  UNL1       -0.0822
     27 C         -10.4479   -6.6785   29.3210 C.ar    1  UNL1        0.0127
     28 C         -10.6267   -7.9845   29.7871 C.ar    1  UNL1        0.0156
     29 O          -9.7116  -10.6655   35.5844 O.2     1  UNL1       -0.2730
     30 C          -9.1073  -11.1630   34.5971 C.2     1  UNL1        0.2454
     31 N          -7.7077  -10.8855   34.4360 N.am    1  UNL1       -0.2680
     32 H          -7.1262  -10.8159   35.3015 H       1  UNL1        0.1563
     33 C          -7.0812  -10.6134   33.1763 C.ar    1  UNL1        0.1346
     34 C          -6.6366   -9.3190   32.8834 C.ar    1  UNL1        0.0406
     35 C          -6.0203   -9.0649   31.6581 C.ar    1  UNL1        0.0736
     36 C          -5.8760  -10.0945   30.7174 C.ar    1  UNL1        0.2466
     37 C          -6.3616  -11.3707   31.0392 C.ar    1  UNL1        0.1691
     38 N          -6.9439  -11.5975   32.2467 N.ar    1  UNL1       -0.2228
     39 N          -5.2215   -9.8505   29.4563 N.am    1  UNL1       -0.0841
     40 C          -3.8857  -10.1282   29.3425 C.2     1  UNL1        0.2905
     41 C          -3.2145   -9.9184   28.1364 C.2     1  UNL1        0.0758
     42 C          -3.9149   -9.4197   27.0411 C.2     1  UNL1        0.0161
     43 C          -5.2730   -9.1328   27.1618 C.2     1  UNL1        0.1156
     44 C          -5.9192   -9.3499   28.3837 C.2     1  UNL1        0.4230
     45 O          -7.1439   -9.0649   28.4869 O.2     1  UNL1       -0.2135
@<TRIPOS>BOND
     1    29    30    2
     2    30    31   am
     3    31    33    1
     4    33    34   ar
     5    34    35   ar
     6    35    36   ar
     7    36    39    1
     8    39    40    1
     9    40    41    2
    10    41    42    1
    11    42    43    2
    12    43    44    1
    13    44    45    2
    14    36    37   ar
    15    37    38   ar
    16    30     1    1
    17     1     2    1
    18     2     3    1
    19     3     4    1
    20     3    12    1
    21    12    13   ar
    22    13    14    1
    23    13    15   ar
    24    15    16   ar
    25    16    17    1
    26    16    18   ar
    27    18    19   ar
    28    19    20    1
    29     3     5    1
    30     5     6    1
    31     6     7   am
    32     7     8    2
    33     7     9   am
    34     9    22    1
    35    22    23   ar
    36    23    24   ar
    37    24    25   ar
    38    25    26    1
    39    25    27   ar
    40    27    28   ar
    41    38    33   ar
    42     6     1    1
    43    28    22   ar
    44    44    39    1
    45    19    12   ar
    46    31    32    1
    47     4    10    1
    48    14    21    1
    49     9    11    1
