@<TRIPOS>MOLECULE
*****
 38 42 0 0 0
SMALL
GASTEIGER

@<TRIPOS>ATOM
      1 C         -20.9785   -7.6203   -9.4629 C.2     1  UNL1        0.2492
      2 O         -20.5073   -7.0468  -10.4823 O.2     1  UNL1       -0.2699
      3 N         -22.4023   -7.6118   -9.2182 N.am    1  UNL1       -0.2680
      4 C         -23.0330   -8.6720   -8.4271 C.3     1  UNL1        0.1412
      5 C         -23.1354   -9.9524   -9.2572 C.3     1  UNL1        0.2268
      6 O         -23.0008   -9.6982  -10.6565 O.3     1  UNL1       -0.4739
      7 C         -23.8586   -8.8650  -11.3857 C.ar    1  UNL1        0.1362
      8 C         -24.5325   -9.4291  -12.4735 C.ar    1  UNL1        0.0366
      9 C         -25.4073   -8.6666  -13.2463 C.ar    1  UNL1        0.0031
     10 C         -25.6184   -7.3116  -12.9526 C.ar    1  UNL1       -0.0000
     11 C         -24.9251   -6.7329  -11.8761 C.ar    1  UNL1        0.0004
     12 C         -24.0369   -7.4867  -11.0888 C.ar    1  UNL1        0.0317
     13 C         -23.2881   -6.7430   -9.9983 C.3     1  UNL1        0.1236
     14 C         -26.5528   -6.4990  -13.7719 C.ar    1  UNL1        0.0015
     15 C         -26.0730   -5.3936  -14.5293 C.ar    1  UNL1        0.0016
     16 C         -26.9510   -4.6176  -15.3091 C.ar    1  UNL1        0.0206
     17 C         -28.2967   -4.9685  -15.3127 C.ar    1  UNL1        0.0985
     18 N         -29.3013   -4.3739  -15.9809 N.ar    1  UNL1       -0.2241
     19 C         -30.3818   -5.1190  -15.6272 C.ar    1  UNL1        0.1750
     20 N         -30.0848   -6.1337  -14.7800 N.ar    1  UNL1       -0.3349
     21 C         -28.7647   -6.0228  -14.5917 C.ar    1  UNL1        0.0757
     22 C         -27.9327   -6.8166  -13.8072 C.ar    1  UNL1        0.0185
     23 H         -30.7379   -6.8379  -14.3704 H       1  UNL1        0.1675
     24 C         -19.2726   -9.4276   -9.0093 C.ar    1  UNL1       -0.0163
     25 C         -18.4012  -10.0570   -8.1062 C.ar    1  UNL1        0.0173
     26 C         -18.2920   -9.6167   -6.7794 C.ar    1  UNL1        0.1392
     27 C         -19.0677   -8.5309   -6.3382 C.ar    1  UNL1        0.1558
     28 C         -19.9486   -7.9024   -7.2364 C.ar    1  UNL1        0.0424
     29 C         -20.0504   -8.3343   -8.5650 C.ar    1  UNL1        0.0527
     30 S         -17.1892  -10.4225   -5.6551 S.O2    1  UNL1        0.0133
     31 C         -16.1267   -9.2788   -4.7956 C.3     1  UNL1        0.1817
     32 O         -17.9943  -11.1800   -4.6371 O.2     1  UNL1       -0.1685
     33 O         -16.3232  -11.3829   -6.4210 O.2     1  UNL1       -0.1685
     34 O         -18.9394   -8.1015   -5.0066 O.3     1  UNL1       -0.4701
     35 C         -19.9146   -8.3111   -3.9906 C.3     1  UNL1        0.2525
     36 C         -19.4037   -9.9895  -10.4107 C.3     1  UNL1        0.0265
     37 C         -20.5921  -11.9652  -11.4941 C.3     1  UNL1        0.0004
     38 C         -19.6197  -11.5098  -10.4066 C.3     1  UNL1        0.0047
@<TRIPOS>BOND
     1    37    38    1
     2    38    36    1
     3    36    24    1
     4    24    25   ar
     5    25    26   ar
     6    26    30    1
     7    30    31    1
     8    30    32    2
     9    30    33    2
    10    26    27   ar
    11    27    34    1
    12    34    35    1
    13    27    28   ar
    14    28    29   ar
    15    29     1    1
    16     1     2    2
    17     1     3   am
    18     3     4    1
    19     4     5    1
    20     5     6    1
    21     6     7    1
    22     7     8   ar
    23     8     9   ar
    24     9    10   ar
    25    10    14    1
    26    14    15   ar
    27    15    16   ar
    28    16    17   ar
    29    17    18   ar
    30    18    19   ar
    31    19    20   ar
    32    20    21   ar
    33    21    22   ar
    34    10    11   ar
    35    11    12   ar
    36    12    13    1
    37    29    24   ar
    38    13     3    1
    39    12     7   ar
    40    22    14   ar
    41    21    17   ar
    42    20    23    1
@<TRIPOS>MOLECULE
*****
 38 42 0 0 0
SMALL
GASTEIGER

@<TRIPOS>ATOM
      1 C         -22.4162   -9.9049  -11.8503 C.2     1  UNL1        0.2492
      2 O         -23.5395  -10.3324  -11.4688 O.2     1  UNL1       -0.2699
      3 N         -22.3338   -8.9215  -12.9054 N.am    1  UNL1       -0.2680
      4 C         -21.1862   -8.0148  -12.9968 C.3     1  UNL1        0.1412
      5 C         -21.2934   -6.9272  -11.9268 C.3     1  UNL1        0.2268
      6 O         -22.6212   -6.8066  -11.4139 O.3     1  UNL1       -0.4739
      7 C         -23.7364   -6.4877  -12.1989 C.ar    1  UNL1        0.1362
      8 C         -24.4668   -5.3484  -11.8467 C.ar    1  UNL1        0.0366
      9 C         -25.5871   -4.9618  -12.5810 C.ar    1  UNL1        0.0031
     10 C         -26.0101   -5.7186  -13.6833 C.ar    1  UNL1       -0.0000
     11 C         -25.2949   -6.8782  -14.0271 C.ar    1  UNL1        0.0004
     12 C         -24.1652   -7.2841  -13.2952 C.ar    1  UNL1        0.0317
     13 C         -23.5132   -8.5901  -13.7100 C.3     1  UNL1        0.1236
     14 C         -27.2005   -5.3061  -14.4693 C.ar    1  UNL1        0.0015
     15 C         -28.4624   -5.9252  -14.2451 C.ar    1  UNL1        0.0016
     16 C         -29.5964   -5.5407  -14.9849 C.ar    1  UNL1        0.0206
     17 C         -29.4399   -4.5394  -15.9372 C.ar    1  UNL1        0.0985
     18 N         -30.3789   -4.0197  -16.7480 N.ar    1  UNL1       -0.2241
     19 C         -29.6848   -3.0909  -17.4573 C.ar    1  UNL1        0.1750
     20 N         -28.3748   -3.0204  -17.1191 N.ar    1  UNL1       -0.3349
     21 C         -28.2380   -3.9424  -16.1590 C.ar    1  UNL1        0.0757
     22 C         -27.0912   -4.2911  -15.4512 C.ar    1  UNL1        0.0185
     23 H         -27.6434   -2.3908  -17.5177 H       1  UNL1        0.1675
     24 C         -20.6584  -11.6698  -11.4296 C.ar    1  UNL1       -0.0163
     25 C         -19.4988  -12.0711  -10.7473 C.ar    1  UNL1        0.0173
     26 C         -18.8808  -11.2284   -9.8124 C.ar    1  UNL1        0.1392
     27 C         -19.4279   -9.9615   -9.5458 C.ar    1  UNL1        0.1558
     28 C         -20.5941   -9.5581  -10.2202 C.ar    1  UNL1        0.0424
     29 C         -21.2061  -10.3946  -11.1623 C.ar    1  UNL1        0.0527
     30 S         -17.4207  -11.7514   -8.9614 S.O2    1  UNL1        0.0133
     31 C         -17.5062  -11.4588   -7.2056 C.3     1  UNL1        0.1817
     32 O         -17.2216  -13.2234   -9.1887 O.2     1  UNL1       -0.1685
     33 O         -16.2394  -10.9983   -9.5057 O.2     1  UNL1       -0.1685
     34 O         -18.7903   -9.1300   -8.6099 O.3     1  UNL1       -0.4701
     35 C         -19.4600   -8.2040   -7.7606 C.3     1  UNL1        0.2525
     36 C         -21.3251  -12.6480  -12.3760 C.3     1  UNL1        0.0265
     37 C         -21.0998  -13.6882  -14.6904 C.3     1  UNL1        0.0004
     38 C         -20.3642  -13.1446  -13.4660 C.3     1  UNL1        0.0047
@<TRIPOS>BOND
     1    37    38    1
     2    38    36    1
     3    36    24    1
     4    24    25   ar
     5    25    26   ar
     6    26    30    1
     7    30    31    1
     8    30    32    2
     9    30    33    2
    10    26    27   ar
    11    27    34    1
    12    34    35    1
    13    27    28   ar
    14    28    29   ar
    15    29     1    1
    16     1     2    2
    17     1     3   am
    18     3     4    1
    19     4     5    1
    20     5     6    1
    21     6     7    1
    22     7     8   ar
    23     8     9   ar
    24     9    10   ar
    25    10    14    1
    26    14    15   ar
    27    15    16   ar
    28    16    17   ar
    29    17    18   ar
    30    18    19   ar
    31    19    20   ar
    32    20    21   ar
    33    21    22   ar
    34    10    11   ar
    35    11    12   ar
    36    12    13    1
    37    29    24   ar
    38    13     3    1
    39    12     7   ar
    40    22    14   ar
    41    21    17   ar
    42    20    23    1
@<TRIPOS>MOLECULE
*****
 38 42 0 0 0
SMALL
GASTEIGER

@<TRIPOS>ATOM
      1 C         -21.1848   -8.5710  -11.4947 C.2     1  UNL1        0.2492
      2 O         -20.8887   -8.2766  -12.6845 O.2     1  UNL1       -0.2699
      3 N         -22.3969   -8.0571  -10.8998 N.am    1  UNL1       -0.2680
      4 C         -23.0536   -8.7710   -9.8013 C.3     1  UNL1        0.1412
      5 C         -23.7839  -10.0016  -10.3411 C.3     1  UNL1        0.2268
      6 O         -24.0030   -9.9218  -11.7505 O.3     1  UNL1       -0.4739
      7 C         -24.7432   -8.9071  -12.3703 C.ar    1  UNL1        0.1362
      8 C         -25.8494   -9.2923  -13.1341 C.ar    1  UNL1        0.0366
      9 C         -26.6395   -8.3416  -13.7787 C.ar    1  UNL1        0.0031
     10 C         -26.3303   -6.9771  -13.6821 C.ar    1  UNL1       -0.0000
     11 C         -25.2055   -6.5856  -12.9365 C.ar    1  UNL1        0.0004
     12 C         -24.3963   -7.5316  -12.2830 C.ar    1  UNL1        0.0317
     13 C         -23.1668   -7.0035  -11.5671 C.3     1  UNL1        0.1236
     14 C         -27.1730   -5.9626  -14.3644 C.ar    1  UNL1        0.0015
     15 C         -26.5723   -4.9150  -15.1178 C.ar    1  UNL1        0.0016
     16 C         -27.3628   -3.9491  -15.7683 C.ar    1  UNL1        0.0206
     17 C         -28.7443   -4.0551  -15.6490 C.ar    1  UNL1        0.0985
     18 N         -29.6813   -3.2517  -16.1836 N.ar    1  UNL1       -0.2241
     19 C         -30.8419   -3.8140  -15.7538 C.ar    1  UNL1        0.1750
     20 N         -30.6574   -4.9157  -14.9871 N.ar    1  UNL1       -0.3349
     21 C         -29.3275   -5.0523  -14.9308 C.ar    1  UNL1        0.0757
     22 C         -28.5849   -6.0279  -14.2717 C.ar    1  UNL1        0.0185
     23 H         -31.3870   -5.5170  -14.5439 H       1  UNL1        0.1675
     24 C         -20.1135  -10.8314  -11.1417 C.ar    1  UNL1       -0.0163
     25 C         -19.2437  -11.6452  -10.3983 C.ar    1  UNL1        0.0173
     26 C         -18.5558  -11.1418   -9.2850 C.ar    1  UNL1        0.1392
     27 C         -18.7384   -9.8030   -8.8983 C.ar    1  UNL1        0.1558
     28 C         -19.6151   -8.9860   -9.6342 C.ar    1  UNL1        0.0424
     29 C         -20.2943   -9.4846  -10.7532 C.ar    1  UNL1        0.0527
     30 S         -17.4645  -12.1822   -8.3596 S.O2    1  UNL1        0.0133
     31 C         -15.7723  -12.0617   -8.9053 C.3     1  UNL1        0.1817
     32 O         -17.5254  -11.7904   -6.9102 O.2     1  UNL1       -0.1685
     33 O         -17.9051  -13.6113   -8.5089 O.2     1  UNL1       -0.1685
     34 O         -18.0355   -9.3165   -7.7833 O.3     1  UNL1       -0.4701
     35 C         -18.6385   -8.6874   -6.6573 C.3     1  UNL1        0.2525
     36 C         -20.8855  -11.4461  -12.2919 C.3     1  UNL1        0.0265
     37 C         -20.9120  -13.4427  -13.8738 C.3     1  UNL1        0.0004
     38 C         -20.5621  -12.9361  -12.4750 C.3     1  UNL1        0.0047
@<TRIPOS>BOND
     1    37    38    1
     2    38    36    1
     3    36    24    1
     4    24    25   ar
     5    25    26   ar
     6    26    30    1
     7    30    31    1
     8    30    32    2
     9    30    33    2
    10    26    27   ar
    11    27    34    1
    12    34    35    1
    13    27    28   ar
    14    28    29   ar
    15    29     1    1
    16     1     2    2
    17     1     3   am
    18     3     4    1
    19     4     5    1
    20     5     6    1
    21     6     7    1
    22     7     8   ar
    23     8     9   ar
    24     9    10   ar
    25    10    14    1
    26    14    15   ar
    27    15    16   ar
    28    16    17   ar
    29    17    18   ar
    30    18    19   ar
    31    19    20   ar
    32    20    21   ar
    33    21    22   ar
    34    10    11   ar
    35    11    12   ar
    36    12    13    1
    37    29    24   ar
    38    13     3    1
    39    12     7   ar
    40    22    14   ar
    41    21    17   ar
    42    20    23    1
@<TRIPOS>MOLECULE
*****
 38 42 0 0 0
SMALL
GASTEIGER

@<TRIPOS>ATOM
      1 C         -21.8132   -7.7780  -11.9309 C.2     1  UNL1        0.2492
      2 O         -21.5701   -7.5436  -13.1458 O.2     1  UNL1       -0.2699
      3 N         -22.9999   -7.2361  -11.3102 N.am    1  UNL1       -0.2680
      4 C         -23.6058   -7.8945  -10.1497 C.3     1  UNL1        0.1412
      5 C         -24.3550   -9.1514  -10.5945 C.3     1  UNL1        0.2268
      6 O         -24.6355   -9.1428  -11.9952 O.3     1  UNL1       -0.4739
      7 C         -25.4053   -8.1613  -12.6323 C.ar    1  UNL1        0.1362
      8 C         -26.5424   -8.5855  -13.3268 C.ar    1  UNL1        0.0366
      9 C         -27.3629   -7.6691  -13.9832 C.ar    1  UNL1        0.0031
     10 C         -27.0542   -6.3012  -13.9687 C.ar    1  UNL1       -0.0000
     11 C         -25.8991   -5.8716  -13.2936 C.ar    1  UNL1        0.0004
     12 C         -25.0592   -6.7828  -12.6294 C.ar    1  UNL1        0.0317
     13 C         -23.8015   -6.2181  -11.9953 C.3     1  UNL1        0.1236
     14 C         -27.9290   -5.3232  -14.6637 C.ar    1  UNL1        0.0015
     15 C         -27.3813   -4.4090  -15.6072 C.ar    1  UNL1        0.0016
     16 C         -28.2026   -3.4786  -16.2711 C.ar    1  UNL1        0.0206
     17 C         -29.5610   -3.4851  -15.9735 C.ar    1  UNL1        0.0985
     18 N         -30.5203   -2.6934  -16.4855 N.ar    1  UNL1       -0.2241
     19 C         -31.6414   -3.1297  -15.8528 C.ar    1  UNL1        0.1750
     20 N         -31.4120   -4.1440  -14.9844 N.ar    1  UNL1       -0.3349
     21 C         -30.0935   -4.3544  -15.0730 C.ar    1  UNL1        0.0757
     22 C         -29.3191   -5.2906  -14.3936 C.ar    1  UNL1        0.0185
     23 H         -32.1062   -4.6439  -14.3857 H       1  UNL1        0.1675
     24 C         -20.6678   -9.9981  -11.5551 C.ar    1  UNL1       -0.0163
     25 C         -19.7668  -10.7733  -10.8077 C.ar    1  UNL1        0.0173
     26 C         -19.0866  -10.2326   -9.7072 C.ar    1  UNL1        0.1392
     27 C         -19.3086   -8.8948   -9.3379 C.ar    1  UNL1        0.1558
     28 C         -20.2165   -8.1166  -10.0778 C.ar    1  UNL1        0.0424
     29 C         -20.8883   -8.6523  -11.1840 C.ar    1  UNL1        0.0527
     30 S         -17.9556  -11.2246   -8.7765 S.O2    1  UNL1        0.0133
     31 C         -18.1092  -12.9633   -9.1360 C.3     1  UNL1        0.1817
     32 O         -16.5509  -10.7959   -9.0949 O.2     1  UNL1       -0.1685
     33 O         -18.2183  -11.0235   -7.3104 O.2     1  UNL1       -0.1685
     34 O         -18.6129   -8.3705   -8.2356 O.3     1  UNL1       -0.4701
     35 C         -19.2227   -7.9404   -7.0230 C.3     1  UNL1        0.2525
     36 C         -21.4289  -10.6533  -12.6902 C.3     1  UNL1        0.0265
     37 C         -21.3339  -12.8281  -14.0133 C.3     1  UNL1        0.0004
     38 C         -21.3565  -12.1858  -12.6267 C.3     1  UNL1        0.0047
@<TRIPOS>BOND
     1    37    38    1
     2    38    36    1
     3    36    24    1
     4    24    25   ar
     5    25    26   ar
     6    26    30    1
     7    30    31    1
     8    30    32    2
     9    30    33    2
    10    26    27   ar
    11    27    34    1
    12    34    35    1
    13    27    28   ar
    14    28    29   ar
    15    29     1    1
    16     1     2    2
    17     1     3   am
    18     3     4    1
    19     4     5    1
    20     5     6    1
    21     6     7    1
    22     7     8   ar
    23     8     9   ar
    24     9    10   ar
    25    10    14    1
    26    14    15   ar
    27    15    16   ar
    28    16    17   ar
    29    17    18   ar
    30    18    19   ar
    31    19    20   ar
    32    20    21   ar
    33    21    22   ar
    34    10    11   ar
    35    11    12   ar
    36    12    13    1
    37    29    24   ar
    38    13     3    1
    39    12     7   ar
    40    22    14   ar
    41    21    17   ar
    42    20    23    1
@<TRIPOS>MOLECULE
*****
 38 42 0 0 0
SMALL
GASTEIGER

@<TRIPOS>ATOM
      1 C         -20.9314   -8.5861  -10.9903 C.2     1  UNL1        0.2492
      2 O         -20.5988   -8.0861  -12.0991 O.2     1  UNL1       -0.2699
      3 N         -22.2468   -8.3374  -10.4471 N.am    1  UNL1       -0.2680
      4 C         -22.8648   -9.2859   -9.5165 C.3     1  UNL1        0.1412
      5 C         -23.3599  -10.5167  -10.2775 C.3     1  UNL1        0.2268
      6 O         -23.4870  -10.2676  -11.6784 O.3     1  UNL1       -0.4739
      7 C         -24.3260   -9.2885  -12.2254 C.ar    1  UNL1        0.1362
      8 C         -25.3036   -9.7116  -13.1313 C.ar    1  UNL1        0.0366
      9 C         -26.1802   -8.7985  -13.7157 C.ar    1  UNL1        0.0031
     10 C         -26.0889   -7.4321  -13.4132 C.ar    1  UNL1       -0.0000
     11 C         -25.0926   -6.9977  -12.5227 C.ar    1  UNL1        0.0004
     12 C         -24.1984   -7.9048  -11.9272 C.ar    1  UNL1        0.0317
     13 C         -23.1175   -7.3175  -11.0385 C.3     1  UNL1        0.1236
     14 C         -27.0244   -6.4586  -14.0313 C.ar    1  UNL1        0.0015
     15 C         -26.5378   -5.2367  -14.5752 C.ar    1  UNL1        0.0016
     16 C         -27.4167   -4.3079  -15.1634 C.ar    1  UNL1        0.0206
     17 C         -28.7702   -4.6260  -15.1937 C.ar    1  UNL1        0.0985
     18 N         -29.7771   -3.8943  -15.7035 N.ar    1  UNL1       -0.2241
     19 C         -30.8658   -4.6733  -15.4676 C.ar    1  UNL1        0.1750
     20 N         -30.5716   -5.8383  -14.8418 N.ar    1  UNL1       -0.3349
     21 C         -29.2447   -5.7909  -14.6760 C.ar    1  UNL1        0.0757
     22 C         -28.4121   -6.7373  -14.0852 C.ar    1  UNL1        0.0185
     23 H         -31.2308   -6.5961  -14.5562 H       1  UNL1        0.1675
     24 C         -19.3335   -9.0728   -9.0950 C.ar    1  UNL1       -0.0163
     25 C         -18.4346   -9.9585   -8.4798 C.ar    1  UNL1        0.0173
     26 C         -18.1620  -11.2162   -9.0366 C.ar    1  UNL1        0.1392
     27 C         -18.7921  -11.6015  -10.2323 C.ar    1  UNL1        0.1558
     28 C         -19.6869  -10.7147  -10.8573 C.ar    1  UNL1        0.0424
     29 C         -19.9683   -9.4625  -10.2962 C.ar    1  UNL1        0.0527
     30 S         -17.0255  -12.3188   -8.2478 S.O2    1  UNL1        0.0133
     31 C         -15.4308  -12.3470   -9.0427 C.3     1  UNL1        0.1817
     32 O         -16.8372  -11.8897   -6.8200 O.2     1  UNL1       -0.1685
     33 O         -17.5906  -13.7111   -8.2797 O.2     1  UNL1       -0.1685
     34 O         -18.5098  -12.8681  -10.7708 O.3     1  UNL1       -0.4701
     35 C         -19.3465  -13.5618  -11.6907 C.3     1  UNL1        0.2525
     36 C         -19.5365   -7.6988   -8.4886 C.3     1  UNL1        0.0265
     37 C         -18.5599   -7.5446   -6.1409 C.3     1  UNL1        0.0004
     38 C         -19.8172   -7.7677   -6.9805 C.3     1  UNL1        0.0047
@<TRIPOS>BOND
     1    37    38    1
     2    38    36    1
     3    36    24    1
     4    24    25   ar
     5    25    26   ar
     6    26    30    1
     7    30    31    1
     8    30    32    2
     9    30    33    2
    10    26    27   ar
    11    27    34    1
    12    34    35    1
    13    27    28   ar
    14    28    29   ar
    15    29     1    1
    16     1     2    2
    17     1     3   am
    18     3     4    1
    19     4     5    1
    20     5     6    1
    21     6     7    1
    22     7     8   ar
    23     8     9   ar
    24     9    10   ar
    25    10    14    1
    26    14    15   ar
    27    15    16   ar
    28    16    17   ar
    29    17    18   ar
    30    18    19   ar
    31    19    20   ar
    32    20    21   ar
    33    21    22   ar
    34    10    11   ar
    35    11    12   ar
    36    12    13    1
    37    29    24   ar
    38    13     3    1
    39    12     7   ar
    40    22    14   ar
    41    21    17   ar
    42    20    23    1
@<TRIPOS>MOLECULE
*****
 38 42 0 0 0
SMALL
GASTEIGER

@<TRIPOS>ATOM
      1 C         -25.0795   -6.4980  -12.6851 C.2     1  UNL1        0.2492
      2 O         -25.0511   -6.2912  -11.4415 O.2     1  UNL1       -0.2699
      3 N         -23.9677   -7.1498  -13.3382 N.am    1  UNL1       -0.2680
      4 C         -24.1625   -7.8920  -14.5867 C.3     1  UNL1        0.1412
      5 C         -24.8397   -9.2324  -14.2971 C.3     1  UNL1        0.2268
      6 O         -24.7290   -9.6049  -12.9224 O.3     1  UNL1       -0.4739
      7 C         -23.5098   -9.7992  -12.2609 C.ar    1  UNL1        0.1362
      8 C         -23.2844  -11.0518  -11.6815 C.ar    1  UNL1        0.0366
      9 C         -22.0939  -11.3252  -11.0095 C.ar    1  UNL1        0.0031
     10 C         -21.1021  -10.3407  -10.8917 C.ar    1  UNL1       -0.0000
     11 C         -21.3331   -9.0722  -11.4503 C.ar    1  UNL1        0.0004
     12 C         -22.5294   -8.7789  -12.1283 C.ar    1  UNL1        0.0317
     13 C         -22.7024   -7.3565  -12.6281 C.3     1  UNL1        0.1236
     14 C         -19.8317  -10.6312  -10.1800 C.ar    1  UNL1        0.0015
     15 C         -19.3029   -9.7020   -9.2404 C.ar    1  UNL1        0.0016
     16 C         -18.0996   -9.9688   -8.5606 C.ar    1  UNL1        0.0206
     17 C         -17.4501  -11.1666   -8.8389 C.ar    1  UNL1        0.0985
     18 N         -16.3006  -11.6225   -8.3097 N.ar    1  UNL1       -0.2241
     19 C         -16.1383  -12.8220   -8.9283 C.ar    1  UNL1        0.1750
     20 N         -17.1289  -13.1168   -9.8043 N.ar    1  UNL1       -0.3349
     21 C         -17.9473  -12.0604   -9.7355 C.ar    1  UNL1        0.0757
     22 C         -19.1329  -11.8376  -10.4301 C.ar    1  UNL1        0.0185
     23 H         -17.2276  -13.9719  -10.3953 H       1  UNL1        0.1675
     24 C         -27.5061   -6.8102  -13.3144 C.ar    1  UNL1       -0.0163
     25 C         -28.6210   -6.3780  -14.0502 C.ar    1  UNL1        0.0173
     26 C         -28.5417   -5.2632  -14.8969 C.ar    1  UNL1        0.1392
     27 C         -27.3283   -4.5646  -15.0194 C.ar    1  UNL1        0.1558
     28 C         -26.2061   -4.9984  -14.2912 C.ar    1  UNL1        0.0424
     29 C         -26.2871   -6.1053  -13.4366 C.ar    1  UNL1        0.0527
     30 S         -29.9567   -4.7337  -15.8172 S.O2    1  UNL1        0.0133
     31 C         -30.7117   -3.2703  -15.1360 C.3     1  UNL1        0.1817
     32 O         -29.5400   -4.4393  -17.2307 O.2     1  UNL1       -0.1685
     33 O         -30.9811   -5.8335  -15.8180 O.2     1  UNL1       -0.1685
     34 O         -27.2712   -3.4469  -15.8686 O.3     1  UNL1       -0.4701
     35 C         -26.4843   -3.3687  -17.0527 C.3     1  UNL1        0.2525
     36 C         -27.6283   -8.0628  -12.4701 C.3     1  UNL1        0.0265
     37 C         -26.9324   -8.5193  -10.0625 C.3     1  UNL1        0.0004
     38 C         -27.8666   -7.7404  -10.9878 C.3     1  UNL1        0.0047
@<TRIPOS>BOND
     1    37    38    1
     2    38    36    1
     3    36    24    1
     4    24    25   ar
     5    25    26   ar
     6    26    30    1
     7    30    31    1
     8    30    32    2
     9    30    33    2
    10    26    27   ar
    11    27    34    1
    12    34    35    1
    13    27    28   ar
    14    28    29   ar
    15    29     1    1
    16     1     2    2
    17     1     3   am
    18     3     4    1
    19     4     5    1
    20     5     6    1
    21     6     7    1
    22     7     8   ar
    23     8     9   ar
    24     9    10   ar
    25    10    14    1
    26    14    15   ar
    27    15    16   ar
    28    16    17   ar
    29    17    18   ar
    30    18    19   ar
    31    19    20   ar
    32    20    21   ar
    33    21    22   ar
    34    10    11   ar
    35    11    12   ar
    36    12    13    1
    37    29    24   ar
    38    13     3    1
    39    12     7   ar
    40    22    14   ar
    41    21    17   ar
    42    20    23    1
@<TRIPOS>MOLECULE
*****
 38 42 0 0 0
SMALL
GASTEIGER

@<TRIPOS>ATOM
      1 C         -21.0846   -8.6457  -11.2338 C.2     1  UNL1        0.2492
      2 O         -20.7758   -8.1935  -12.3697 O.2     1  UNL1       -0.2699
      3 N         -22.3784   -8.3512  -10.6624 N.am    1  UNL1       -0.2680
      4 C         -22.9861   -9.2523   -9.6795 C.3     1  UNL1        0.1412
      5 C         -23.5264  -10.5004  -10.3792 C.3     1  UNL1        0.2268
      6 O         -23.6903  -10.3007  -11.7841 O.3     1  UNL1       -0.4739
      7 C         -24.5268   -9.3261  -12.3428 C.ar    1  UNL1        0.1362
      8 C         -25.5385   -9.7631  -13.2036 C.ar    1  UNL1        0.0366
      9 C         -26.4150   -8.8551  -13.7961 C.ar    1  UNL1        0.0031
     10 C         -26.2893   -7.4805  -13.5478 C.ar    1  UNL1       -0.0000
     11 C         -25.2591   -7.0332  -12.7035 C.ar    1  UNL1        0.0004
     12 C         -24.3647   -7.9351  -12.1006 C.ar    1  UNL1        0.0317
     13 C         -23.2472   -7.3369  -11.2662 C.3     1  UNL1        0.1236
     14 C         -27.2244   -6.5122  -14.1746 C.ar    1  UNL1        0.0015
     15 C         -28.6317   -6.6843  -14.0490 C.ar    1  UNL1        0.0016
     16 C         -29.5259   -5.7716  -14.6393 C.ar    1  UNL1        0.0206
     17 C         -28.9873   -4.7016  -15.3457 C.ar    1  UNL1        0.0985
     18 N         -29.6486   -3.7181  -15.9819 N.ar    1  UNL1       -0.2241
     19 C         -28.6429   -2.9567  -16.4883 C.ar    1  UNL1        0.1750
     20 N         -27.4072   -3.4269  -16.1925 N.ar    1  UNL1       -0.3349
     21 C         -27.6440   -4.5291  -15.4717 C.ar    1  UNL1        0.0757
     22 C         -26.7239   -5.4066  -14.9049 C.ar    1  UNL1        0.0185
     23 H         -26.4850   -3.0205  -16.4656 H       1  UNL1        0.1675
     24 C         -19.4312   -9.0888   -9.3758 C.ar    1  UNL1       -0.0163
     25 C         -18.5315   -9.9690   -8.7536 C.ar    1  UNL1        0.0173
     26 C         -18.3086  -11.2561   -9.2632 C.ar    1  UNL1        0.1392
     27 C         -18.9902  -11.6774  -10.4178 C.ar    1  UNL1        0.1558
     28 C         -19.8860  -10.7968  -11.0499 C.ar    1  UNL1        0.0424
     29 C         -20.1178   -9.5147  -10.5355 C.ar    1  UNL1        0.0527
     30 S         -17.1705  -12.3513   -8.4663 S.O2    1  UNL1        0.0133
     31 C         -16.5913  -11.7224   -6.9027 C.3     1  UNL1        0.1817
     32 O         -17.8470  -13.6715   -8.2264 O.2     1  UNL1       -0.1685
     33 O         -15.9796  -12.5562   -9.3600 O.2     1  UNL1       -0.1685
     34 O         -18.7571  -12.9729  -10.9090 O.3     1  UNL1       -0.4701
     35 C         -19.5583  -13.6234  -11.8901 C.3     1  UNL1        0.2525
     36 C         -19.5801   -7.6851   -8.8244 C.3     1  UNL1        0.0265
     37 C         -20.0146   -8.4449   -6.4320 C.3     1  UNL1        0.0004
     38 C         -19.1449   -7.5916   -7.3547 C.3     1  UNL1        0.0047
@<TRIPOS>BOND
     1    37    38    1
     2    38    36    1
     3    36    24    1
     4    24    25   ar
     5    25    26   ar
     6    26    30    1
     7    30    31    1
     8    30    32    2
     9    30    33    2
    10    26    27   ar
    11    27    34    1
    12    34    35    1
    13    27    28   ar
    14    28    29   ar
    15    29     1    1
    16     1     2    2
    17     1     3   am
    18     3     4    1
    19     4     5    1
    20     5     6    1
    21     6     7    1
    22     7     8   ar
    23     8     9   ar
    24     9    10   ar
    25    10    14    1
    26    14    15   ar
    27    15    16   ar
    28    16    17   ar
    29    17    18   ar
    30    18    19   ar
    31    19    20   ar
    32    20    21   ar
    33    21    22   ar
    34    10    11   ar
    35    11    12   ar
    36    12    13    1
    37    29    24   ar
    38    13     3    1
    39    12     7   ar
    40    22    14   ar
    41    21    17   ar
    42    20    23    1
@<TRIPOS>MOLECULE
*****
 38 42 0 0 0
SMALL
GASTEIGER

@<TRIPOS>ATOM
      1 C         -22.7160  -10.3013  -11.7687 C.2     1  UNL1        0.2492
      2 O         -23.7959  -10.4866  -11.1446 O.2     1  UNL1       -0.2699
      3 N         -22.7043   -9.5187  -12.9830 N.am    1  UNL1       -0.2680
      4 C         -21.4883   -8.8244  -13.4153 C.3     1  UNL1        0.1412
      5 C         -21.2637   -7.5799  -12.5550 C.3     1  UNL1        0.2268
      6 O         -22.4512   -7.1785  -11.8698 O.3     1  UNL1       -0.4739
      7 C         -23.6416   -6.8185  -12.5139 C.ar    1  UNL1        0.1362
      8 C         -24.1485   -5.5399  -12.2618 C.ar    1  UNL1        0.0366
      9 C         -25.3263   -5.1051  -12.8682 C.ar    1  UNL1        0.0031
     10 C         -26.0328   -5.9504  -13.7359 C.ar    1  UNL1       -0.0000
     11 C         -25.5417   -7.2453  -13.9737 C.ar    1  UNL1        0.0004
     12 C         -24.3576   -7.7006  -13.3678 C.ar    1  UNL1        0.0317
     13 C         -23.9593   -9.1398  -13.6384 C.3     1  UNL1        0.1236
     14 C         -27.2851   -5.4877  -14.3860 C.ar    1  UNL1        0.0015
     15 C         -28.5180   -6.1514  -14.1303 C.ar    1  UNL1        0.0016
     16 C         -29.7101   -5.7199  -14.7416 C.ar    1  UNL1        0.0206
     17 C         -29.6400   -4.6275  -15.5993 C.ar    1  UNL1        0.0985
     18 N         -30.6450   -4.0506  -16.2822 N.ar    1  UNL1       -0.2241
     19 C         -30.0192   -3.0429  -16.9462 C.ar    1  UNL1        0.1750
     20 N         -28.6882   -2.9789  -16.7016 N.ar    1  UNL1       -0.3349
     21 C         -28.4664   -3.9872  -15.8502 C.ar    1  UNL1        0.0757
     22 C         -27.2644   -4.3797  -15.2682 C.ar    1  UNL1        0.0185
     23 H         -27.9977   -2.2986  -17.0897 H       1  UNL1        0.1675
     24 C         -20.8131  -10.2542  -10.1077 C.ar    1  UNL1       -0.0163
     25 C         -19.6379  -10.8403   -9.6110 C.ar    1  UNL1        0.0173
     26 C         -19.1146  -12.0091  -10.1821 C.ar    1  UNL1        0.1392
     27 C         -19.7694  -12.6068  -11.2727 C.ar    1  UNL1        0.1558
     28 C         -20.9420  -12.0190  -11.7797 C.ar    1  UNL1        0.0424
     29 C         -21.4718  -10.8576  -11.2030 C.ar    1  UNL1        0.0527
     30 S         -17.6321  -12.7331   -9.5435 S.O2    1  UNL1        0.0133
     31 C         -16.5414  -11.5310   -8.8079 C.3     1  UNL1        0.1817
     32 O         -17.9942  -13.7492   -8.4973 O.2     1  UNL1       -0.1685
     33 O         -16.8955  -13.4117  -10.6640 O.2     1  UNL1       -0.1685
     34 O         -19.2319  -13.7806  -11.8269 O.3     1  UNL1       -0.4701
     35 C         -19.4720  -14.2325  -13.1557 C.3     1  UNL1        0.2525
     36 C         -21.2945   -8.9525   -9.4989 C.3     1  UNL1        0.0265
     37 C         -19.8847   -8.1859   -7.5204 C.3     1  UNL1        0.0004
     38 C         -20.1307   -8.0704   -9.0244 C.3     1  UNL1        0.0047
@<TRIPOS>BOND
     1    37    38    1
     2    38    36    1
     3    36    24    1
     4    24    25   ar
     5    25    26   ar
     6    26    30    1
     7    30    31    1
     8    30    32    2
     9    30    33    2
    10    26    27   ar
    11    27    34    1
    12    34    35    1
    13    27    28   ar
    14    28    29   ar
    15    29     1    1
    16     1     2    2
    17     1     3   am
    18     3     4    1
    19     4     5    1
    20     5     6    1
    21     6     7    1
    22     7     8   ar
    23     8     9   ar
    24     9    10   ar
    25    10    14    1
    26    14    15   ar
    27    15    16   ar
    28    16    17   ar
    29    17    18   ar
    30    18    19   ar
    31    19    20   ar
    32    20    21   ar
    33    21    22   ar
    34    10    11   ar
    35    11    12   ar
    36    12    13    1
    37    29    24   ar
    38    13     3    1
    39    12     7   ar
    40    22    14   ar
    41    21    17   ar
    42    20    23    1
@<TRIPOS>MOLECULE
*****
 38 42 0 0 0
SMALL
GASTEIGER

@<TRIPOS>ATOM
      1 C         -21.8097   -8.6321  -15.2204 C.2     1  UNL1        0.2492
      2 O         -20.5672   -8.4185  -15.2466 O.2     1  UNL1       -0.2699
      3 N         -22.4361   -9.1259  -14.0158 N.am    1  UNL1       -0.2680
      4 C         -23.8528   -8.8650  -13.7469 C.3     1  UNL1        0.1412
      5 C         -24.0420   -7.4126  -13.3065 C.3     1  UNL1        0.2268
      6 O         -22.8182   -6.8198  -12.8686 O.3     1  UNL1       -0.4739
      7 C         -22.0551   -7.3023  -11.7979 C.ar    1  UNL1        0.1362
      8 C         -21.8069   -6.4251  -10.7376 C.ar    1  UNL1        0.0366
      9 C         -21.0595   -6.8314   -9.6331 C.ar    1  UNL1        0.0031
     10 C         -20.5307   -8.1289   -9.5712 C.ar    1  UNL1       -0.0000
     11 C         -20.7556   -9.0069  -10.6449 C.ar    1  UNL1        0.0004
     12 C         -21.5043   -8.6121  -11.7676 C.ar    1  UNL1        0.0317
     13 C         -21.6230   -9.6162  -12.8993 C.3     1  UNL1        0.1236
     14 C         -19.7379   -8.5649   -8.3939 C.ar    1  UNL1        0.0015
     15 C         -19.7651   -7.8109   -7.1870 C.ar    1  UNL1        0.0016
     16 C         -19.0172   -8.2165   -6.0657 C.ar    1  UNL1        0.0206
     17 C         -18.2552   -9.3742   -6.1793 C.ar    1  UNL1        0.0985
     18 N         -17.4738   -9.9413   -5.2428 N.ar    1  UNL1       -0.2241
     19 C         -16.9783  -11.0329   -5.8836 C.ar    1  UNL1        0.1750
     20 N         -17.4183  -11.1571   -7.1590 N.ar    1  UNL1       -0.3349
     21 C         -18.2223  -10.1010   -7.3286 C.ar    1  UNL1        0.0757
     22 C         -18.9455   -9.7371   -8.4611 C.ar    1  UNL1        0.0185
     23 H         -17.1823  -11.9054   -7.8478 H       1  UNL1        0.1675
     24 C         -22.9693   -9.3154  -17.3582 C.ar    1  UNL1       -0.0163
     25 C         -23.7340   -8.9526  -18.4784 C.ar    1  UNL1        0.0173
     26 C         -24.1378   -7.6251  -18.6801 C.ar    1  UNL1        0.1392
     27 C         -23.7711   -6.6353  -17.7521 C.ar    1  UNL1        0.1558
     28 C         -22.9978   -6.9917  -16.6329 C.ar    1  UNL1        0.0424
     29 C         -22.6032   -8.3195  -16.4246 C.ar    1  UNL1        0.0527
     30 S         -25.1004   -7.1862  -20.0980 S.O2    1  UNL1        0.0133
     31 C         -25.0223   -8.4127  -21.3885 C.3     1  UNL1        0.1817
     32 O         -26.5358   -7.0224  -19.6844 O.2     1  UNL1       -0.1685
     33 O         -24.5902   -5.8865  -20.6541 O.2     1  UNL1       -0.1685
     34 O         -24.1906   -5.3122  -17.9695 O.3     1  UNL1       -0.4701
     35 C         -25.3408   -4.7193  -17.3754 C.3     1  UNL1        0.2525
     36 C         -22.5000  -10.7505  -17.2271 C.3     1  UNL1        0.0265
     37 C         -23.0495  -12.6557  -15.6279 C.3     1  UNL1        0.0004
     38 C         -23.5931  -11.6670  -16.6587 C.3     1  UNL1        0.0047
@<TRIPOS>BOND
     1    37    38    1
     2    38    36    1
     3    36    24    1
     4    24    25   ar
     5    25    26   ar
     6    26    30    1
     7    30    31    1
     8    30    32    2
     9    30    33    2
    10    26    27   ar
    11    27    34    1
    12    34    35    1
    13    27    28   ar
    14    28    29   ar
    15    29     1    1
    16     1     2    2
    17     1     3   am
    18     3     4    1
    19     4     5    1
    20     5     6    1
    21     6     7    1
    22     7     8   ar
    23     8     9   ar
    24     9    10   ar
    25    10    14    1
    26    14    15   ar
    27    15    16   ar
    28    16    17   ar
    29    17    18   ar
    30    18    19   ar
    31    19    20   ar
    32    20    21   ar
    33    21    22   ar
    34    10    11   ar
    35    11    12   ar
    36    12    13    1
    37    29    24   ar
    38    13     3    1
    39    12     7   ar
    40    22    14   ar
    41    21    17   ar
    42    20    23    1
