@<TRIPOS>MOLECULE
*****
 52 57 0 0 0
SMALL
GASTEIGER

@<TRIPOS>ATOM
      1 C          -7.8091  -14.3017   27.6604 C.ar    1  UNL1        0.0502
      2 C          -9.1710  -14.4238   27.9726 C.ar    1  UNL1        0.0148
      3 C          -9.7511  -13.6007   28.9406 C.ar    1  UNL1        0.0080
      4 C          -8.9805  -12.6453   29.6272 C.ar    1  UNL1        0.0808
      5 C          -7.6098  -12.5254   29.3110 C.ar    1  UNL1        0.1457
      6 F          -6.8265  -11.5867   29.8977 F       1  UNL1       -0.2040
      7 C          -7.0361  -13.3488   28.3378 C.ar    1  UNL1        0.0443
      8 N          -6.0510  -16.2877   24.4079 N.pl3   1  UNL1       -0.3041
      9 C          -7.4828  -15.9685   24.3643 C.3     1  UNL1        0.1122
     10 C          -8.0550  -15.9575   25.7802 C.3     1  UNL1        0.1122
     11 N          -7.2074  -15.1380   26.6546 N.pl3   1  UNL1       -0.3040
     12 C          -5.7721  -15.4421   26.7003 C.3     1  UNL1        0.1122
     13 C          -5.1942  -15.4789   25.2834 C.3     1  UNL1        0.1122
     14 C          -3.4959  -17.9791   22.2313 C.ar    1  UNL1        0.0124
     15 C          -4.0854  -17.1605   23.2110 C.ar    1  UNL1        0.0126
     16 C          -5.4718  -17.1424   23.4039 C.ar    1  UNL1        0.0477
     17 C          -6.2827  -17.9561   22.6058 C.ar    1  UNL1        0.0144
     18 C          -5.7178  -18.7838   21.6362 C.ar    1  UNL1        0.0049
     19 C          -4.3235  -18.8172   21.4312 C.ar    1  UNL1        0.0699
     20 C          -3.7477  -19.7471   20.3787 C.3     1  UNL1        0.4184
     21 F          -3.1676  -19.0485   19.3334 F       1  UNL1       -0.1659
     22 F          -4.7541  -20.5378   19.8541 F       1  UNL1       -0.1659
     23 F          -2.7742  -20.5509   20.9432 F       1  UNL1       -0.1659
     24 C          -1.9865  -17.9198   22.0926 C.3     1  UNL1        0.1687
     25 C          -0.7571  -17.1121   20.3015 C.3     1  UNL1        0.1746
     26 O          -1.5891  -16.7602   21.3855 O.3     1  UNL1       -0.3463
     27 C          -9.6376  -11.7596   30.6221 C.2     1  UNL1        0.2483
     28 O          -9.2530  -11.7897   31.8234 O.2     1  UNL1       -0.2701
     29 N         -10.6943  -10.8644   30.2418 N.am    1  UNL1       -0.2945
     30 H         -10.7670  -10.5898   29.2370 H       1  UNL1        0.1501
     31 C         -11.5888  -10.2469   31.2327 C.3     1  UNL1        0.1535
     32 C         -12.1029  -11.2651   32.2245 C.2     1  UNL1        0.2443
     33 O         -12.7049  -10.8850   33.2661 O.2     1  UNL1       -0.2730
     34 N         -11.9931  -12.6656   31.9235 N.am    1  UNL1       -0.2825
     35 H         -11.7743  -12.9354   30.9375 H       1  UNL1        0.1549
     36 C         -12.2840  -13.7162   32.8610 C.ar    1  UNL1        0.0535
     37 C         -13.3045  -14.6529   32.6234 C.ar    1  UNL1        0.0353
     38 C         -13.5667  -15.6419   33.5748 C.ar    1  UNL1        0.1002
     39 N         -12.8485  -15.6878   34.7279 N.ar    1  UNL1       -0.2422
     40 C         -11.8685  -14.7839   34.9922 C.ar    1  UNL1        0.1002
     41 C         -11.5750  -13.7780   34.0683 C.ar    1  UNL1        0.0353
     42 C         -10.9044   -9.0658   31.9569 C.3     1  UNL1        0.0569
     43 C         -10.9952   -7.7707   31.1951 C.ar    1  UNL1       -0.0017
     44 C         -12.1564   -7.1688   30.7181 C.ar    1  UNL1        0.0681
     45 N         -11.8705   -5.9803   30.1400 N.ar    1  UNL1       -0.3523
     46 C         -10.5394   -5.8268   30.2437 C.ar    1  UNL1        0.0563
     47 C          -9.7788   -4.7427   29.8073 C.ar    1  UNL1        0.0170
     48 C          -8.3903   -4.7811   30.0292 C.ar    1  UNL1        0.0015
     49 C          -7.7986   -5.8930   30.6673 C.ar    1  UNL1        0.0001
     50 C          -8.5901   -6.9746   31.0936 C.ar    1  UNL1        0.0012
     51 C          -9.9672   -6.9023   30.8746 C.ar    1  UNL1        0.0131
     52 H         -12.5508   -5.3155   29.7092 H       1  UNL1        0.1660
@<TRIPOS>BOND
     1    25    26    1
     2    26    24    1
     3    24    14    1
     4    14    15   ar
     5    15    16   ar
     6    16     8    1
     7     8     9    1
     8     9    10    1
     9    10    11    1
    10    11     1    1
    11     1     2   ar
    12     2     3   ar
    13     3     4   ar
    14     4    27    1
    15    27    28    2
    16    27    29   am
    17    29    31    1
    18    31    42    1
    19    42    43    1
    20    43    44   ar
    21    44    45   ar
    22    45    46   ar
    23    46    47   ar
    24    47    48   ar
    25    48    49   ar
    26    49    50   ar
    27    50    51   ar
    28    31    32    1
    29    32    33    2
    30    32    34   am
    31    34    36    1
    32    36    37   ar
    33    37    38   ar
    34    38    39   ar
    35    39    40   ar
    36    40    41   ar
    37     4     5   ar
    38     5     6    1
    39     5     7   ar
    40    11    12    1
    41    12    13    1
    42    16    17   ar
    43    17    18   ar
    44    18    19   ar
    45    19    20    1
    46    20    21    1
    47    20    22    1
    48    20    23    1
    49    19    14   ar
    50    13     8    1
    51     7     1   ar
    52    51    43   ar
    53    41    36   ar
    54    51    46   ar
    55    29    30    1
    56    45    52    1
    57    34    35    1
@<TRIPOS>MOLECULE
*****
 52 57 0 0 0
SMALL
GASTEIGER

@<TRIPOS>ATOM
      1 C          -7.7357  -14.3156   27.6544 C.ar    1  UNL1        0.0502
      2 C          -9.1015  -14.4306   27.9520 C.ar    1  UNL1        0.0148
      3 C          -9.6876  -13.6045   28.9137 C.ar    1  UNL1        0.0080
      4 C          -8.9194  -12.6531   29.6086 C.ar    1  UNL1        0.0808
      5 C          -7.5449  -12.5404   29.3070 C.ar    1  UNL1        0.1457
      6 F          -6.7630  -11.6058   29.9021 F       1  UNL1       -0.2040
      7 C          -6.9651  -13.3668   28.3400 C.ar    1  UNL1        0.0443
      8 N          -5.8815  -16.2969   24.4528 N.pl3   1  UNL1       -0.3041
      9 C          -7.2619  -15.8224   24.2997 C.3     1  UNL1        0.1122
     10 C          -7.9655  -15.8281   25.6551 C.3     1  UNL1        0.1122
     11 N          -7.1278  -15.1551   26.6550 N.pl3   1  UNL1       -0.3040
     12 C          -5.7425  -15.6151   26.8115 C.3     1  UNL1        0.1122
     13 C          -5.0358  -15.6356   25.4539 C.3     1  UNL1        0.1122
     14 C          -5.5048  -18.3845   21.3500 C.ar    1  UNL1        0.0124
     15 C          -6.0484  -17.5426   22.3366 C.ar    1  UNL1        0.0126
     16 C          -5.2978  -17.1522   23.4520 C.ar    1  UNL1        0.0477
     17 C          -3.9825  -17.6096   23.5836 C.ar    1  UNL1        0.0144
     18 C          -3.4203  -18.4360   22.6112 C.ar    1  UNL1        0.0049
     19 C          -4.1606  -18.8356   21.4801 C.ar    1  UNL1        0.0699
     20 C          -3.5045  -19.7197   20.4351 C.3     1  UNL1        0.4184
     21 F          -2.3518  -20.3185   20.9147 F       1  UNL1       -0.1659
     22 F          -3.1607  -18.9604   19.3312 F       1  UNL1       -0.1659
     23 F          -4.3763  -20.7231   20.0534 F       1  UNL1       -0.1659
     24 C          -6.4016  -18.7591   20.1853 C.3     1  UNL1        0.1687
     25 C          -8.5575  -19.4643   19.7091 C.3     1  UNL1        0.1746
     26 O          -7.4827  -19.5633   20.6180 O.3     1  UNL1       -0.3463
     27 C          -9.5825  -11.7640   30.5964 C.2     1  UNL1        0.2483
     28 O          -9.2075  -11.7924   31.8008 O.2     1  UNL1       -0.2701
     29 N         -10.6343  -10.8674   30.2059 N.am    1  UNL1       -0.2945
     30 H         -10.6985  -10.5948   29.2000 H       1  UNL1        0.1501
     31 C         -11.5353  -10.2459   31.1885 C.3     1  UNL1        0.1535
     32 C         -12.0434  -11.2571   32.1905 C.2     1  UNL1        0.2443
     33 O         -12.5438  -10.8692   33.2818 O.2     1  UNL1       -0.2730
     34 N         -12.0470  -12.6527   31.8492 N.am    1  UNL1       -0.2825
     35 H         -11.9168  -12.9078   30.8438 H       1  UNL1        0.1549
     36 C         -12.3389  -13.7089   32.7801 C.ar    1  UNL1        0.0535
     37 C         -11.7038  -13.7832   34.0316 C.ar    1  UNL1        0.0353
     38 C         -12.0022  -14.8417   34.8935 C.ar    1  UNL1        0.1002
     39 N         -12.8900  -15.7996   34.5168 N.ar    1  UNL1       -0.2422
     40 C         -13.5050  -15.7629   33.3054 C.ar    1  UNL1        0.1002
     41 C         -13.2343  -14.7227   32.4130 C.ar    1  UNL1        0.0353
     42 C         -10.8614   -9.0517   31.9008 C.3     1  UNL1        0.0569
     43 C         -10.9900   -7.7589   31.1407 C.ar    1  UNL1       -0.0017
     44 C         -12.1696   -7.1844   30.6752 C.ar    1  UNL1        0.0681
     45 N         -11.9175   -5.9893   30.0951 N.ar    1  UNL1       -0.3523
     46 C         -10.5895   -5.8044   30.1862 C.ar    1  UNL1        0.0563
     47 C          -9.8589   -4.7024   29.7432 C.ar    1  UNL1        0.0170
     48 C          -8.4679   -4.7080   29.9518 C.ar    1  UNL1        0.0015
     49 C          -7.8439   -5.8058   30.5835 C.ar    1  UNL1        0.0001
     50 C          -8.6055   -6.9060   31.0167 C.ar    1  UNL1        0.0012
     51 C          -9.9860   -6.8663   30.8109 C.ar    1  UNL1        0.0131
     52 H         -12.6174   -5.3406   29.6713 H       1  UNL1        0.1660
@<TRIPOS>BOND
     1    25    26    1
     2    26    24    1
     3    24    14    1
     4    14    15   ar
     5    15    16   ar
     6    16     8    1
     7     8     9    1
     8     9    10    1
     9    10    11    1
    10    11     1    1
    11     1     2   ar
    12     2     3   ar
    13     3     4   ar
    14     4    27    1
    15    27    28    2
    16    27    29   am
    17    29    31    1
    18    31    42    1
    19    42    43    1
    20    43    44   ar
    21    44    45   ar
    22    45    46   ar
    23    46    47   ar
    24    47    48   ar
    25    48    49   ar
    26    49    50   ar
    27    50    51   ar
    28    31    32    1
    29    32    33    2
    30    32    34   am
    31    34    36    1
    32    36    37   ar
    33    37    38   ar
    34    38    39   ar
    35    39    40   ar
    36    40    41   ar
    37     4     5   ar
    38     5     6    1
    39     5     7   ar
    40    11    12    1
    41    12    13    1
    42    16    17   ar
    43    17    18   ar
    44    18    19   ar
    45    19    20    1
    46    20    21    1
    47    20    22    1
    48    20    23    1
    49    19    14   ar
    50    13     8    1
    51     7     1   ar
    52    51    43   ar
    53    41    36   ar
    54    51    46   ar
    55    29    30    1
    56    45    52    1
    57    34    35    1
@<TRIPOS>MOLECULE
*****
 52 57 0 0 0
SMALL
GASTEIGER

@<TRIPOS>ATOM
      1 C          -7.6060  -14.2763   27.6281 C.ar    1  UNL1        0.0502
      2 C          -8.9595  -14.3039   27.9945 C.ar    1  UNL1        0.0148
      3 C          -9.4415  -13.4457   28.9855 C.ar    1  UNL1        0.0080
      4 C          -8.5790  -12.5490   29.6415 C.ar    1  UNL1        0.0808
      5 C          -7.2170  -12.5242   29.2707 C.ar    1  UNL1        0.1457
      6 F          -6.3471  -11.6448   29.8263 F       1  UNL1       -0.2040
      7 C          -6.7417  -13.3823   28.2747 C.ar    1  UNL1        0.0443
      8 N          -6.1429  -16.3728   24.2998 N.pl3   1  UNL1       -0.3041
      9 C          -7.5600  -15.9934   24.3420 C.3     1  UNL1        0.1122
     10 C          -8.0401  -15.9417   25.7909 C.3     1  UNL1        0.1122
     11 N          -7.1050  -15.1491   26.5983 N.pl3   1  UNL1       -0.3040
     12 C          -5.6837  -15.5136   26.5578 C.3     1  UNL1        0.1122
     13 C          -5.1991  -15.5913   25.1079 C.3     1  UNL1        0.1122
     14 C          -3.8014  -18.3747   22.1464 C.ar    1  UNL1        0.0124
     15 C          -4.2943  -17.5168   23.1458 C.ar    1  UNL1        0.0126
     16 C          -5.6650  -17.2630   23.2735 C.ar    1  UNL1        0.0477
     17 C          -6.5582  -17.8768   22.3892 C.ar    1  UNL1        0.0144
     18 C          -6.0916  -18.7398   21.3982 C.ar    1  UNL1        0.0049
     19 C          -4.7151  -19.0093   21.2578 C.ar    1  UNL1        0.0699
     20 C          -4.2509  -19.9703   20.1784 C.3     1  UNL1        0.4184
     21 F          -3.6079  -21.0747   20.7115 F       1  UNL1       -0.1659
     22 F          -3.3631  -19.3291   19.3335 F       1  UNL1       -0.1659
     23 F          -5.3373  -20.4220   19.4518 F       1  UNL1       -0.1659
     24 C          -2.2993  -18.5771   22.0833 C.3     1  UNL1        0.1687
     25 C          -1.4956  -16.8984   20.7020 C.3     1  UNL1        0.1746
     26 O          -1.6233  -17.3346   22.0378 O.3     1  UNL1       -0.3463
     27 C          -9.1322  -11.6231   30.6626 C.2     1  UNL1        0.2483
     28 O          -9.6470  -10.5325   30.2916 O.2     1  UNL1       -0.2701
     29 N          -9.1008  -11.9488   32.0610 N.am    1  UNL1       -0.2945
     30 H          -9.0076  -12.9538   32.3288 H       1  UNL1        0.1501
     31 C          -9.3081  -10.9327   33.1041 C.3     1  UNL1        0.1535
     32 C          -8.5076   -9.6814   32.8245 C.2     1  UNL1        0.2443
     33 O          -9.0990   -8.5899   32.5990 O.2     1  UNL1       -0.2730
     34 N          -7.0746   -9.7211   32.9188 N.am    1  UNL1       -0.2825
     35 H          -6.6414  -10.5429   33.3980 H       1  UNL1        0.1549
     36 C          -6.2102   -8.6487   32.5062 C.ar    1  UNL1        0.0535
     37 C          -6.1226   -8.2499   31.1614 C.ar    1  UNL1        0.0353
     38 C          -5.2504   -7.2184   30.8044 C.ar    1  UNL1        0.1002
     39 N          -4.4824   -6.6156   31.7500 N.ar    1  UNL1       -0.2422
     40 C          -4.5330   -6.9931   33.0547 C.ar    1  UNL1        0.1002
     41 C          -5.3906   -8.0211   33.4541 C.ar    1  UNL1        0.0353
     42 C         -10.8067  -10.6020   33.2846 C.3     1  UNL1        0.0569
     43 C         -11.7187  -11.6579   32.7197 C.ar    1  UNL1       -0.0017
     44 C         -12.4889  -11.5568   31.5643 C.ar    1  UNL1        0.0681
     45 N         -13.1335  -12.7204   31.3217 N.ar    1  UNL1       -0.3523
     46 C         -12.7811  -13.5550   32.3144 C.ar    1  UNL1        0.0563
     47 C         -13.1794  -14.8805   32.4833 C.ar    1  UNL1        0.0170
     48 C         -12.6778  -15.5818   33.5947 C.ar    1  UNL1        0.0015
     49 C         -11.8061  -14.9476   34.5066 C.ar    1  UNL1        0.0001
     50 C         -11.4243  -13.6079   34.3133 C.ar    1  UNL1        0.0012
     51 C         -11.9247  -12.9413   33.1931 C.ar    1  UNL1        0.0131
     52 H         -13.7687  -12.9271   30.5191 H       1  UNL1        0.1660
@<TRIPOS>BOND
     1    25    26    1
     2    26    24    1
     3    24    14    1
     4    14    15   ar
     5    15    16   ar
     6    16     8    1
     7     8     9    1
     8     9    10    1
     9    10    11    1
    10    11     1    1
    11     1     2   ar
    12     2     3   ar
    13     3     4   ar
    14     4    27    1
    15    27    28    2
    16    27    29   am
    17    29    31    1
    18    31    42    1
    19    42    43    1
    20    43    44   ar
    21    44    45   ar
    22    45    46   ar
    23    46    47   ar
    24    47    48   ar
    25    48    49   ar
    26    49    50   ar
    27    50    51   ar
    28    31    32    1
    29    32    33    2
    30    32    34   am
    31    34    36    1
    32    36    37   ar
    33    37    38   ar
    34    38    39   ar
    35    39    40   ar
    36    40    41   ar
    37     4     5   ar
    38     5     6    1
    39     5     7   ar
    40    11    12    1
    41    12    13    1
    42    16    17   ar
    43    17    18   ar
    44    18    19   ar
    45    19    20    1
    46    20    21    1
    47    20    22    1
    48    20    23    1
    49    19    14   ar
    50    13     8    1
    51     7     1   ar
    52    51    43   ar
    53    41    36   ar
    54    51    46   ar
    55    29    30    1
    56    45    52    1
    57    34    35    1
@<TRIPOS>MOLECULE
*****
 52 57 0 0 0
SMALL
GASTEIGER

@<TRIPOS>ATOM
      1 C          -7.6014  -14.3019   27.6499 C.ar    1  UNL1        0.0502
      2 C          -8.9584  -14.4197   27.9841 C.ar    1  UNL1        0.0148
      3 C          -9.5265  -13.5766   28.9419 C.ar    1  UNL1        0.0080
      4 C          -8.7483  -12.6047   29.5962 C.ar    1  UNL1        0.0808
      5 C          -7.3826  -12.4892   29.2578 C.ar    1  UNL1        0.1457
      6 F          -6.5931  -11.5362   29.8123 F       1  UNL1       -0.2040
      7 C          -6.8209  -13.3328   28.2949 C.ar    1  UNL1        0.0443
      8 N          -5.6883  -16.3365   24.5171 N.pl3   1  UNL1       -0.3041
      9 C          -6.9381  -15.6161   24.2467 C.3     1  UNL1        0.1122
     10 C          -7.8081  -15.5980   25.5016 C.3     1  UNL1        0.1122
     11 N          -7.0123  -15.1591   26.6543 N.pl3   1  UNL1       -0.3040
     12 C          -5.7559  -15.8664   26.9300 C.3     1  UNL1        0.1122
     13 C          -4.8868  -15.9106   25.6707 C.3     1  UNL1        0.1122
     14 C          -5.3979  -18.5278   21.4772 C.ar    1  UNL1        0.0124
     15 C          -5.9210  -17.6717   22.4626 C.ar    1  UNL1        0.0126
     16 C          -5.1254  -17.2049   23.5156 C.ar    1  UNL1        0.0477
     17 C          -3.7851  -17.5991   23.5850 C.ar    1  UNL1        0.0144
     18 C          -3.2433  -18.4383   22.6121 C.ar    1  UNL1        0.0049
     19 C          -4.0291  -18.9145   21.5431 C.ar    1  UNL1        0.0699
     20 C          -3.3953  -19.8102   20.4943 C.3     1  UNL1        0.4184
     21 F          -4.2027  -20.8906   20.1811 F       1  UNL1       -0.1659
     22 F          -2.1920  -20.3023   20.9668 F       1  UNL1       -0.1659
     23 F          -3.1776  -19.0926   19.3323 F       1  UNL1       -0.1659
     24 C          -6.3429  -18.9872   20.3831 C.3     1  UNL1        0.1687
     25 C          -8.6304  -19.3139   20.2026 C.3     1  UNL1        0.1746
     26 O          -7.6168  -18.3889   20.5313 O.3     1  UNL1       -0.3463
     27 C          -9.3932  -11.6985   30.5805 C.2     1  UNL1        0.2483
     28 O         -10.0524  -10.7061   30.1653 O.2     1  UNL1       -0.2701
     29 N          -9.2886  -11.9349   31.9932 N.am    1  UNL1       -0.2945
     30 H          -9.0606  -12.9024   32.3133 H       1  UNL1        0.1501
     31 C          -9.6016  -10.8941   32.9843 C.3     1  UNL1        0.1535
     32 C          -8.7357   -9.6700   32.7933 C.2     1  UNL1        0.2443
     33 O          -7.9270   -9.3206   33.6965 O.2     1  UNL1       -0.2730
     34 N          -8.7654   -8.9697   31.5393 N.am    1  UNL1       -0.2825
     35 H          -9.2045   -9.4528   30.7228 H       1  UNL1        0.1549
     36 C          -8.1242   -7.7037   31.3082 C.ar    1  UNL1        0.0535
     37 C          -8.8129   -6.6248   30.7279 C.ar    1  UNL1        0.0353
     38 C          -8.1411   -5.4210   30.5007 C.ar    1  UNL1        0.1002
     39 N          -6.8269   -5.3005   30.8261 N.ar    1  UNL1       -0.2422
     40 C          -6.1312   -6.3329   31.3715 C.ar    1  UNL1        0.1002
     41 C          -6.7646   -7.5542   31.6140 C.ar    1  UNL1        0.0353
     42 C         -11.1008  -10.5205   32.9608 C.3     1  UNL1        0.0569
     43 C         -11.9958  -11.6820   32.6207 C.ar    1  UNL1       -0.0017
     44 C         -12.8775  -11.7627   31.5463 C.ar    1  UNL1        0.0681
     45 N         -13.4693  -12.9780   31.5098 N.ar    1  UNL1       -0.3523
     46 C         -12.9730  -13.6649   32.5527 C.ar    1  UNL1        0.0563
     47 C         -13.2708  -14.9776   32.9167 C.ar    1  UNL1        0.0170
     48 C         -12.6232  -15.5105   34.0460 C.ar    1  UNL1        0.0015
     49 C         -11.7092  -14.7260   34.7827 C.ar    1  UNL1        0.0001
     50 C         -11.4309  -13.4031   34.3947 C.ar    1  UNL1        0.0012
     51 C         -12.0761  -12.9057   33.2607 C.ar    1  UNL1        0.0131
     52 H         -14.1644  -13.3134   30.8064 H       1  UNL1        0.1660
@<TRIPOS>BOND
     1    25    26    1
     2    26    24    1
     3    24    14    1
     4    14    15   ar
     5    15    16   ar
     6    16     8    1
     7     8     9    1
     8     9    10    1
     9    10    11    1
    10    11     1    1
    11     1     2   ar
    12     2     3   ar
    13     3     4   ar
    14     4    27    1
    15    27    28    2
    16    27    29   am
    17    29    31    1
    18    31    42    1
    19    42    43    1
    20    43    44   ar
    21    44    45   ar
    22    45    46   ar
    23    46    47   ar
    24    47    48   ar
    25    48    49   ar
    26    49    50   ar
    27    50    51   ar
    28    31    32    1
    29    32    33    2
    30    32    34   am
    31    34    36    1
    32    36    37   ar
    33    37    38   ar
    34    38    39   ar
    35    39    40   ar
    36    40    41   ar
    37     4     5   ar
    38     5     6    1
    39     5     7   ar
    40    11    12    1
    41    12    13    1
    42    16    17   ar
    43    17    18   ar
    44    18    19   ar
    45    19    20    1
    46    20    21    1
    47    20    22    1
    48    20    23    1
    49    19    14   ar
    50    13     8    1
    51     7     1   ar
    52    51    43   ar
    53    41    36   ar
    54    51    46   ar
    55    29    30    1
    56    45    52    1
    57    34    35    1
