@<TRIPOS>MOLECULE
*****
 38 41 0 0 0
SMALL
GASTEIGER

@<TRIPOS>ATOM
      1 N          -9.7593   -9.8283   30.2661 N.am    1  UNL1       -0.2685
      2 C         -10.3359   -9.9708   31.5758 C.2     1  UNL1        0.2674
      3 O         -10.2886   -8.9920   32.3681 O.2     1  UNL1       -0.2682
      4 C         -11.0656  -11.2119   31.9408 C.ar    1  UNL1        0.1409
      5 N         -12.0553  -11.6182   31.1018 N.ar    1  UNL1       -0.2390
      6 C         -12.8400  -12.6926   31.3482 C.ar    1  UNL1        0.0990
      7 C         -12.6513  -13.4458   32.5066 C.ar    1  UNL1        0.0194
      8 C         -13.4638  -14.5608   32.7638 C.ar    1  UNL1        0.0015
      9 C         -13.2566  -15.3308   33.9080 C.ar    1  UNL1        0.0000
     10 C         -12.2350  -15.0000   34.7974 C.ar    1  UNL1        0.0000
     11 C         -11.4194  -13.8916   34.5541 C.ar    1  UNL1        0.0003
     12 C         -11.6221  -13.0843   33.4114 C.ar    1  UNL1        0.0094
     13 C         -10.8147  -11.9487   33.1298 C.ar    1  UNL1        0.0976
     14 C          -9.7101  -11.5642   34.0349 C.2     1  UNL1        0.3397
     15 O          -8.8050  -12.3941   34.3185 O.2     1  UNL1       -0.2450
     16 O          -9.6761  -10.2866   34.5851 O.3     1  UNL1       -0.4771
     17 H          -8.9322  -10.0106   35.2146 H       1  UNL1        0.2954
     18 C          -8.3462  -11.8755   30.1861 C.3     1  UNL1        0.0265
     19 C          -8.4138  -10.3563   29.9701 C.3     1  UNL1        0.1007
     20 C          -7.3561   -9.5864   30.7472 C.ar    1  UNL1        0.0234
     21 C          -7.5415   -9.2462   32.1034 C.ar    1  UNL1        0.0019
     22 C          -6.5827   -8.4923   32.7851 C.ar    1  UNL1        0.0295
     23 C          -5.4339   -8.0559   32.1238 C.ar    1  UNL1        0.1424
     24 F          -4.5066   -7.3223   32.7873 F       1  UNL1       -0.2041
     25 C          -5.2460   -8.3653   30.7755 C.ar    1  UNL1        0.0590
     26 C          -6.2020   -9.1176   30.0850 C.ar    1  UNL1        0.1399
     27 F          -6.0028   -9.3780   28.7678 F       1  UNL1       -0.2044
     28 C         -10.4684   -8.9972   29.2848 C.3     1  UNL1        0.1207
     29 C         -10.2793   -7.5434   29.6170 C.ar    1  UNL1       -0.0021
     30 C         -11.3809   -6.7628   29.9955 C.ar    1  UNL1       -0.0026
     31 C         -11.1992   -5.4365   30.3909 C.ar    1  UNL1       -0.0001
     32 C          -9.9171   -4.8827   30.4252 C.ar    1  UNL1        0.0064
     33 C          -8.7986   -5.6538   30.0620 C.ar    1  UNL1        0.0752
     34 C          -8.9904   -6.9862   29.6556 C.ar    1  UNL1        0.0038
     35 C          -7.4359   -5.0809   30.1224 C.2     1  UNL1        0.3380
     36 O          -6.4399   -5.7620   29.7565 O.2     1  UNL1       -0.2451
     37 O          -7.2406   -3.7810   30.5821 O.3     1  UNL1       -0.4771
     38 H          -6.3119   -3.3784   30.6255 H       1  UNL1        0.2954
@<TRIPOS>BOND
     1    18    19    1
     2    19    20    1
     3    20    21   ar
     4    21    22   ar
     5    22    23   ar
     6    23    24    1
     7    23    25   ar
     8    25    26   ar
     9    26    27    1
    10    19     1    1
    11     1    28    1
    12    28    29    1
    13    29    30   ar
    14    30    31   ar
    15    31    32   ar
    16    32    33   ar
    17    33    35    1
    18    35    36    2
    19    35    37    1
    20    33    34   ar
    21     1     2   am
    22     2     3    2
    23     2     4    1
    24     4     5   ar
    25     5     6   ar
    26     6     7   ar
    27     7     8   ar
    28     8     9   ar
    29     9    10   ar
    30    10    11   ar
    31    11    12   ar
    32    12    13   ar
    33    13    14    1
    34    14    15    2
    35    14    16    1
    36    26    20   ar
    37    34    29   ar
    38    13     4   ar
    39    12     7   ar
    40    37    38    1
    41    16    17    1
@<TRIPOS>MOLECULE
*****
 38 41 0 0 0
SMALL
GASTEIGER

@<TRIPOS>ATOM
      1 N          -9.7260   -9.5487   30.9974 N.am    1  UNL1       -0.2685
      2 C          -9.2472  -10.9047   30.9822 C.2     1  UNL1        0.2674
      3 O          -8.1031  -11.1377   30.5082 O.2     1  UNL1       -0.2682
      4 C         -10.0456  -11.9870   31.6127 C.ar    1  UNL1        0.1409
      5 N         -10.8002  -12.7609   30.7880 N.ar    1  UNL1       -0.2390
      6 C         -11.6227  -13.7372   31.2366 C.ar    1  UNL1        0.0990
      7 C         -11.7241  -13.9932   32.6038 C.ar    1  UNL1        0.0194
      8 C         -12.5762  -15.0057   33.0710 C.ar    1  UNL1        0.0015
      9 C         -12.6563  -15.2807   34.4359 C.ar    1  UNL1        0.0000
     10 C         -11.8831  -14.5552   35.3415 C.ar    1  UNL1        0.0000
     11 C         -11.0315  -13.5435   34.8899 C.ar    1  UNL1        0.0003
     12 C         -10.9474  -13.2330   33.5133 C.ar    1  UNL1        0.0094
     13 C         -10.0942  -12.2108   33.0151 C.ar    1  UNL1        0.0976
     14 C          -9.2443  -11.4223   33.9334 C.2     1  UNL1        0.3397
     15 O          -8.0472  -11.7601   34.1362 O.2     1  UNL1       -0.2450
     16 O          -9.7710  -10.3115   34.5852 O.3     1  UNL1       -0.4771
     17 H          -9.2054   -9.7667   35.2249 H       1  UNL1        0.2954
     18 C         -10.2874   -9.6077   28.5734 C.3     1  UNL1        0.0265
     19 C         -10.6576   -9.0635   29.9613 C.3     1  UNL1        0.1007
     20 C         -10.7641   -7.5464   30.0084 C.ar    1  UNL1        0.0234
     21 C          -9.8996   -6.7243   29.2559 C.ar    1  UNL1        0.0019
     22 C          -9.9774   -5.3326   29.3537 C.ar    1  UNL1        0.0295
     23 C         -10.9066   -4.7408   30.2103 C.ar    1  UNL1        0.1424
     24 F         -10.9779   -3.3902   30.3050 F       1  UNL1       -0.2041
     25 C         -11.7544   -5.5408   30.9786 C.ar    1  UNL1        0.0590
     26 C         -11.6814   -6.9348   30.8885 C.ar    1  UNL1        0.1399
     27 F         -12.5007   -7.6845   31.6690 F       1  UNL1       -0.2044
     28 C          -9.1332   -8.6165   31.9649 C.3     1  UNL1        0.1207
     29 C          -7.7099   -8.3214   31.5818 C.ar    1  UNL1       -0.0021
     30 C          -7.3508   -8.2443   30.2286 C.ar    1  UNL1       -0.0026
     31 C          -6.0521   -7.8833   29.8660 C.ar    1  UNL1       -0.0001
     32 C          -5.1058   -7.5829   30.8488 C.ar    1  UNL1        0.0064
     33 C          -5.4509   -7.6416   32.2109 C.ar    1  UNL1        0.0752
     34 C          -6.7584   -8.0154   32.5687 C.ar    1  UNL1        0.0038
     35 C          -4.4607   -7.2983   33.2552 C.2     1  UNL1        0.3380
     36 O          -3.5585   -6.4480   33.0251 O.2     1  UNL1       -0.2451
     37 O          -4.5177   -7.9100   34.5049 O.3     1  UNL1       -0.4771
     38 H          -3.8459   -7.6805   35.2277 H       1  UNL1        0.2954
@<TRIPOS>BOND
     1    18    19    1
     2    19    20    1
     3    20    21   ar
     4    21    22   ar
     5    22    23   ar
     6    23    24    1
     7    23    25   ar
     8    25    26   ar
     9    26    27    1
    10    19     1    1
    11     1    28    1
    12    28    29    1
    13    29    30   ar
    14    30    31   ar
    15    31    32   ar
    16    32    33   ar
    17    33    35    1
    18    35    36    2
    19    35    37    1
    20    33    34   ar
    21     1     2   am
    22     2     3    2
    23     2     4    1
    24     4     5   ar
    25     5     6   ar
    26     6     7   ar
    27     7     8   ar
    28     8     9   ar
    29     9    10   ar
    30    10    11   ar
    31    11    12   ar
    32    12    13   ar
    33    13    14    1
    34    14    15    2
    35    14    16    1
    36    26    20   ar
    37    34    29   ar
    38    13     4   ar
    39    12     7   ar
    40    37    38    1
    41    16    17    1
@<TRIPOS>MOLECULE
*****
 38 41 0 0 0
SMALL
GASTEIGER

@<TRIPOS>ATOM
      1 N         -10.3125  -11.3490   32.0390 N.am    1  UNL1       -0.2685
      2 C          -8.9534  -11.3569   31.5689 C.2     1  UNL1        0.2674
      3 O          -8.5854  -12.2814   30.7957 O.2     1  UNL1       -0.2682
      4 C          -8.0391  -10.2357   31.9052 C.ar    1  UNL1        0.1409
      5 N          -8.1322   -9.7148   33.1576 N.ar    1  UNL1       -0.2390
      6 C          -7.4058   -8.6513   33.5728 C.ar    1  UNL1        0.0990
      7 C          -6.5055   -8.0366   32.7031 C.ar    1  UNL1        0.0194
      8 C          -5.7508   -6.9338   33.1320 C.ar    1  UNL1        0.0015
      9 C          -4.8299   -6.3367   32.2715 C.ar    1  UNL1        0.0000
     10 C          -4.6496   -6.8389   30.9833 C.ar    1  UNL1        0.0000
     11 C          -5.3954   -7.9357   30.5430 C.ar    1  UNL1        0.0003
     12 C          -6.3488   -8.5459   31.3899 C.ar    1  UNL1        0.0094
     13 C          -7.1273   -9.6620   30.9785 C.ar    1  UNL1        0.0976
     14 C          -6.9637  -10.2399   29.6271 C.2     1  UNL1        0.3397
     15 O          -7.2846   -9.5707   28.6084 O.2     1  UNL1       -0.2450
     16 O          -6.4658  -11.5308   29.4796 O.3     1  UNL1       -0.4771
     17 H          -6.3570  -11.9451   28.5618 H       1  UNL1        0.2954
     18 C          -9.4028  -11.9982   34.2628 C.3     1  UNL1        0.0265
     19 C         -10.6523  -11.8618   33.3800 C.3     1  UNL1        0.1007
     20 C         -11.4598  -13.1468   33.2705 C.ar    1  UNL1        0.0234
     21 C         -12.3461  -13.3698   32.1961 C.ar    1  UNL1        0.0019
     22 C         -13.1191  -14.5325   32.1413 C.ar    1  UNL1        0.0295
     23 C         -13.0306  -15.4820   33.1602 C.ar    1  UNL1        0.1424
     24 F         -13.7839  -16.6079   33.1055 F       1  UNL1       -0.2041
     25 C         -12.1747  -15.2658   34.2417 C.ar    1  UNL1        0.0590
     26 C         -11.3991  -14.1035   34.3056 C.ar    1  UNL1        0.1399
     27 F         -10.5975  -13.9104   35.3838 F       1  UNL1       -0.2044
     28 C         -11.3706  -10.9795   31.0901 C.3     1  UNL1        0.1207
     29 C         -11.5050   -9.4833   31.0341 C.ar    1  UNL1       -0.0021
     30 C         -12.5107   -8.8427   31.7717 C.ar    1  UNL1       -0.0026
     31 C         -12.5854   -7.4491   31.7946 C.ar    1  UNL1       -0.0001
     32 C         -11.6502   -6.6835   31.0940 C.ar    1  UNL1        0.0064
     33 C         -10.6262   -7.3077   30.3593 C.ar    1  UNL1        0.0752
     34 C         -10.5631   -8.7122   30.3332 C.ar    1  UNL1        0.0038
     35 C          -9.6170   -6.5018   29.6376 C.2     1  UNL1        0.3380
     36 O          -9.8075   -5.2719   29.4352 O.2     1  UNL1       -0.2451
     37 O          -8.4442   -7.0944   29.1767 O.3     1  UNL1       -0.4771
     38 H          -7.7457   -6.5512   28.6834 H       1  UNL1        0.2954
@<TRIPOS>BOND
     1    18    19    1
     2    19    20    1
     3    20    21   ar
     4    21    22   ar
     5    22    23   ar
     6    23    24    1
     7    23    25   ar
     8    25    26   ar
     9    26    27    1
    10    19     1    1
    11     1    28    1
    12    28    29    1
    13    29    30   ar
    14    30    31   ar
    15    31    32   ar
    16    32    33   ar
    17    33    35    1
    18    35    36    2
    19    35    37    1
    20    33    34   ar
    21     1     2   am
    22     2     3    2
    23     2     4    1
    24     4     5   ar
    25     5     6   ar
    26     6     7   ar
    27     7     8   ar
    28     8     9   ar
    29     9    10   ar
    30    10    11   ar
    31    11    12   ar
    32    12    13   ar
    33    13    14    1
    34    14    15    2
    35    14    16    1
    36    26    20   ar
    37    34    29   ar
    38    13     4   ar
    39    12     7   ar
    40    37    38    1
    41    16    17    1
@<TRIPOS>MOLECULE
*****
 38 41 0 0 0
SMALL
GASTEIGER

@<TRIPOS>ATOM
      1 N          -8.5526  -10.5598   31.3266 N.am    1  UNL1       -0.2685
      2 C          -9.4871  -10.3777   32.4045 C.2     1  UNL1        0.2674
      3 O          -9.7264   -9.2080   32.8075 O.2     1  UNL1       -0.2682
      4 C         -10.2318  -11.5399   32.9530 C.ar    1  UNL1        0.1409
      5 N          -9.7243  -12.1310   34.0672 N.ar    1  UNL1       -0.2390
      6 C         -10.2658  -13.2354   34.6311 C.ar    1  UNL1        0.0990
      7 C         -11.4017  -13.8208   34.0726 C.ar    1  UNL1        0.0194
      8 C         -11.9652  -14.9659   34.6564 C.ar    1  UNL1        0.0015
      9 C         -13.1175  -15.5348   34.1145 C.ar    1  UNL1        0.0000
     10 C         -13.7192  -14.9623   32.9945 C.ar    1  UNL1        0.0000
     11 C         -13.1679  -13.8228   32.4026 C.ar    1  UNL1        0.0003
     12 C         -11.9895  -13.2393   32.9216 C.ar    1  UNL1        0.0094
     13 C         -11.3978  -12.0813   32.3473 C.ar    1  UNL1        0.0976
     14 C         -12.0052  -11.4291   31.1671 C.2     1  UNL1        0.3397
     15 O         -11.7676  -11.8662   30.0090 O.2     1  UNL1       -0.2450
     16 O         -12.8314  -10.3221   31.3340 O.3     1  UNL1       -0.4771
     17 H         -13.2472   -9.8578   30.5356 H       1  UNL1        0.2954
     18 C          -6.7019  -10.5012   32.9896 C.3     1  UNL1        0.0265
     19 C          -7.1564  -10.9543   31.5941 C.3     1  UNL1        0.1007
     20 C          -6.2434  -10.4758   30.4747 C.ar    1  UNL1        0.0234
     21 C          -5.5649   -9.2419   30.5552 C.ar    1  UNL1        0.0019
     22 C          -4.7735   -8.7948   29.4940 C.ar    1  UNL1        0.0295
     23 C          -4.6570   -9.5624   28.3344 C.ar    1  UNL1        0.1424
     24 F          -3.8904   -9.1247   27.3053 F       1  UNL1       -0.2041
     25 C          -5.3400  -10.7755   28.2301 C.ar    1  UNL1        0.0590
     26 C          -6.1362  -11.2292   29.2869 C.ar    1  UNL1        0.1399
     27 F          -6.8089  -12.3995   29.1434 F       1  UNL1       -0.2044
     28 C          -8.9748  -10.1775   29.9730 C.3     1  UNL1        0.1207
     29 C          -9.2299   -8.6972   29.9178 C.ar    1  UNL1       -0.0021
     30 C         -10.5413   -8.2169   29.7935 C.ar    1  UNL1       -0.0026
     31 C         -10.7933   -6.8445   29.8312 C.ar    1  UNL1       -0.0001
     32 C          -9.7420   -5.9415   30.0070 C.ar    1  UNL1        0.0064
     33 C          -8.4215   -6.4047   30.1469 C.ar    1  UNL1        0.0752
     34 C          -8.1743   -7.7881   30.0983 C.ar    1  UNL1        0.0038
     35 C          -7.3077   -5.4547   30.3604 C.2     1  UNL1        0.3380
     36 O          -6.1430   -5.8779   30.5936 O.2     1  UNL1       -0.2451
     37 O          -7.5350   -4.0820   30.3029 O.3     1  UNL1       -0.4771
     38 H          -6.7789   -3.4229   30.4455 H       1  UNL1        0.2954
@<TRIPOS>BOND
     1    18    19    1
     2    19    20    1
     3    20    21   ar
     4    21    22   ar
     5    22    23   ar
     6    23    24    1
     7    23    25   ar
     8    25    26   ar
     9    26    27    1
    10    19     1    1
    11     1    28    1
    12    28    29    1
    13    29    30   ar
    14    30    31   ar
    15    31    32   ar
    16    32    33   ar
    17    33    35    1
    18    35    36    2
    19    35    37    1
    20    33    34   ar
    21     1     2   am
    22     2     3    2
    23     2     4    1
    24     4     5   ar
    25     5     6   ar
    26     6     7   ar
    27     7     8   ar
    28     8     9   ar
    29     9    10   ar
    30    10    11   ar
    31    11    12   ar
    32    12    13   ar
    33    13    14    1
    34    14    15    2
    35    14    16    1
    36    26    20   ar
    37    34    29   ar
    38    13     4   ar
    39    12     7   ar
    40    37    38    1
    41    16    17    1
@<TRIPOS>MOLECULE
*****
 38 41 0 0 0
SMALL
GASTEIGER

@<TRIPOS>ATOM
      1 N          -8.5402   -9.6006   30.2559 N.am    1  UNL1       -0.2685
      2 C          -9.2902   -9.7880   31.4686 C.2     1  UNL1        0.2674
      3 O          -9.4197   -8.8138   32.2573 O.2     1  UNL1       -0.2682
      4 C          -9.9859  -11.0747   31.7265 C.ar    1  UNL1        0.1409
      5 N         -10.6730  -11.6259   30.6908 N.ar    1  UNL1       -0.2390
      6 C         -11.4030  -12.7593   30.8067 C.ar    1  UNL1        0.0990
      7 C         -11.4742  -13.4236   32.0309 C.ar    1  UNL1        0.0194
      8 C         -12.2304  -14.5995   32.1530 C.ar    1  UNL1        0.0015
      9 C         -12.2786  -15.2793   33.3698 C.ar    1  UNL1        0.0000
     10 C         -11.5682  -14.7969   34.4684 C.ar    1  UNL1        0.0000
     11 C         -10.8123  -13.6265   34.3610 C.ar    1  UNL1        0.0003
     12 C         -10.7634  -12.9091   33.1438 C.ar    1  UNL1        0.0094
     13 C         -10.0072  -11.7145   32.9951 C.ar    1  UNL1        0.0976
     14 C          -9.2260  -11.1695   34.1265 C.2     1  UNL1        0.3397
     15 O          -8.2049  -11.7793   34.5438 O.2     1  UNL1       -0.2450
     16 O          -9.6261   -9.9867   34.7405 O.3     1  UNL1       -0.4771
     17 H          -9.1080   -9.6053   35.5229 H       1  UNL1        0.2954
     18 C          -6.9803  -11.5154   30.5627 C.3     1  UNL1        0.0265
     19 C          -7.1356  -10.0416   30.1591 C.3     1  UNL1        0.1007
     20 C          -6.2268   -9.1014   30.9373 C.ar    1  UNL1        0.0234
     21 C          -5.8876   -9.3524   32.2832 C.ar    1  UNL1        0.0019
     22 C          -5.0956   -8.4496   32.9974 C.ar    1  UNL1        0.0295
     23 C          -4.6417   -7.2797   32.3867 C.ar    1  UNL1        0.1424
     24 F          -3.8756   -6.4043   33.0831 F       1  UNL1       -0.2041
     25 C          -4.9872   -7.0057   31.0622 C.ar    1  UNL1        0.0590
     26 C          -5.7816   -7.9031   30.3408 C.ar    1  UNL1        0.1399
     27 F          -6.1225   -7.5943   29.0637 F       1  UNL1       -0.2044
     28 C          -9.1505   -8.8083   29.1805 C.3     1  UNL1        0.1207
     29 C          -9.7973   -7.5798   29.7568 C.ar    1  UNL1       -0.0021
     30 C          -9.2279   -6.3183   29.5327 C.ar    1  UNL1       -0.0026
     31 C          -9.8709   -5.1664   29.9890 C.ar    1  UNL1       -0.0001
     32 C         -11.0927   -5.2623   30.6595 C.ar    1  UNL1        0.0064
     33 C         -11.6861   -6.5178   30.8819 C.ar    1  UNL1        0.0752
     34 C         -11.0277   -7.6744   30.4278 C.ar    1  UNL1        0.0038
     35 C         -12.9928   -6.6235   31.5674 C.2     1  UNL1        0.3380
     36 O         -13.1085   -6.2879   32.7773 O.2     1  UNL1       -0.2451
     37 O         -14.1098   -7.0927   30.8808 O.3     1  UNL1       -0.4771
     38 H         -15.0097   -7.1670   31.3401 H       1  UNL1        0.2954
@<TRIPOS>BOND
     1    18    19    1
     2    19    20    1
     3    20    21   ar
     4    21    22   ar
     5    22    23   ar
     6    23    24    1
     7    23    25   ar
     8    25    26   ar
     9    26    27    1
    10    19     1    1
    11     1    28    1
    12    28    29    1
    13    29    30   ar
    14    30    31   ar
    15    31    32   ar
    16    32    33   ar
    17    33    35    1
    18    35    36    2
    19    35    37    1
    20    33    34   ar
    21     1     2   am
    22     2     3    2
    23     2     4    1
    24     4     5   ar
    25     5     6   ar
    26     6     7   ar
    27     7     8   ar
    28     8     9   ar
    29     9    10   ar
    30    10    11   ar
    31    11    12   ar
    32    12    13   ar
    33    13    14    1
    34    14    15    2
    35    14    16    1
    36    26    20   ar
    37    34    29   ar
    38    13     4   ar
    39    12     7   ar
    40    37    38    1
    41    16    17    1
@<TRIPOS>MOLECULE
*****
 38 41 0 0 0
SMALL
GASTEIGER

@<TRIPOS>ATOM
      1 N          -8.9541  -10.2297   31.0137 N.am    1  UNL1       -0.2685
      2 C         -10.1011  -10.2054   31.8808 C.2     1  UNL1        0.2674
      3 O         -10.4765   -9.1011   32.3576 O.2     1  UNL1       -0.2682
      4 C         -10.8860  -11.4440   32.1177 C.ar    1  UNL1        0.1409
      5 N         -11.7531  -11.8240   31.1419 N.ar    1  UNL1       -0.2390
      6 C         -12.5744  -12.8932   31.2569 C.ar    1  UNL1        0.0990
      7 C         -12.5556  -13.6684   32.4160 C.ar    1  UNL1        0.0194
      8 C         -13.4064  -14.7780   32.5369 C.ar    1  UNL1        0.0015
      9 C         -13.3675  -15.5699   33.6843 C.ar    1  UNL1        0.0000
     10 C         -12.4764  -15.2665   34.7129 C.ar    1  UNL1        0.0000
     11 C         -11.6247  -14.1638   34.6060 C.ar    1  UNL1        0.0003
     12 C         -11.6590  -13.3346   33.4615 C.ar    1  UNL1        0.0094
     13 C         -10.8098  -12.2039   33.3160 C.ar    1  UNL1        0.0976
     14 C          -9.8382  -11.8481   34.3728 C.2     1  UNL1        0.3397
     15 O          -9.0827  -12.7302   34.8622 O.2     1  UNL1       -0.2450
     16 O          -9.7663  -10.5385   34.8373 O.3     1  UNL1       -0.4771
     17 H          -9.1135  -10.2803   35.5674 H       1  UNL1        0.2954
     18 C          -7.3593  -10.0209   32.9129 C.3     1  UNL1        0.0265
     19 C          -7.6270  -10.6221   31.5250 C.3     1  UNL1        0.1007
     20 C          -6.5453  -10.2971   30.5054 C.ar    1  UNL1        0.0234
     21 C          -5.7928   -9.1068   30.5848 C.ar    1  UNL1        0.0019
     22 C          -4.8411   -8.8004   29.6087 C.ar    1  UNL1        0.0295
     23 C          -4.6346   -9.6670   28.5345 C.ar    1  UNL1        0.1424
     24 F          -3.7123   -9.3656   27.5874 F       1  UNL1       -0.2041
     25 C          -5.3869  -10.8382   28.4294 C.ar    1  UNL1        0.0590
     26 C          -6.3434  -11.1513   29.4009 C.ar    1  UNL1        0.1399
     27 F          -7.0774  -12.2838   29.2552 F       1  UNL1       -0.2044
     28 C          -9.1022   -9.6913   29.6554 C.3     1  UNL1        0.1207
     29 C          -9.2790   -8.1998   29.7150 C.ar    1  UNL1       -0.0021
     30 C         -10.5658   -7.6449   29.6676 C.ar    1  UNL1       -0.0026
     31 C         -10.7427   -6.2679   29.8119 C.ar    1  UNL1       -0.0001
     32 C          -9.6399   -5.4355   30.0185 C.ar    1  UNL1        0.0064
     33 C          -8.3428   -5.9750   30.0823 C.ar    1  UNL1        0.0752
     34 C          -8.1716   -7.3619   29.9265 C.ar    1  UNL1        0.0038
     35 C          -7.1741   -5.1017   30.3278 C.2     1  UNL1        0.3380
     36 O          -7.3351   -3.9154   30.7235 O.2     1  UNL1       -0.2451
     37 O          -5.8831   -5.5835   30.1266 O.3     1  UNL1       -0.4771
     38 H          -5.0759   -4.9946   30.2938 H       1  UNL1        0.2954
@<TRIPOS>BOND
     1    18    19    1
     2    19    20    1
     3    20    21   ar
     4    21    22   ar
     5    22    23   ar
     6    23    24    1
     7    23    25   ar
     8    25    26   ar
     9    26    27    1
    10    19     1    1
    11     1    28    1
    12    28    29    1
    13    29    30   ar
    14    30    31   ar
    15    31    32   ar
    16    32    33   ar
    17    33    35    1
    18    35    36    2
    19    35    37    1
    20    33    34   ar
    21     1     2   am
    22     2     3    2
    23     2     4    1
    24     4     5   ar
    25     5     6   ar
    26     6     7   ar
    27     7     8   ar
    28     8     9   ar
    29     9    10   ar
    30    10    11   ar
    31    11    12   ar
    32    12    13   ar
    33    13    14    1
    34    14    15    2
    35    14    16    1
    36    26    20   ar
    37    34    29   ar
    38    13     4   ar
    39    12     7   ar
    40    37    38    1
    41    16    17    1
@<TRIPOS>MOLECULE
*****
 38 41 0 0 0
SMALL
GASTEIGER

@<TRIPOS>ATOM
      1 N         -10.0508   -8.1615   30.7900 N.am    1  UNL1       -0.2685
      2 C         -11.0660   -9.0173   31.3423 C.2     1  UNL1        0.2674
      3 O         -12.2346   -8.9499   30.8757 O.2     1  UNL1       -0.2682
      4 C         -10.7120  -10.0332   32.3665 C.ar    1  UNL1        0.1409
      5 N          -9.6509   -9.7582   33.1708 N.ar    1  UNL1       -0.2390
      6 C          -9.1823  -10.6235   34.0996 C.ar    1  UNL1        0.0990
      7 C          -9.7944  -11.8649   34.2711 C.ar    1  UNL1        0.0194
      8 C          -9.3102  -12.7635   35.2343 C.ar    1  UNL1        0.0015
      9 C          -9.9397  -13.9933   35.4253 C.ar    1  UNL1        0.0000
     10 C         -11.0585  -14.3313   34.6649 C.ar    1  UNL1        0.0000
     11 C         -11.5502  -13.4463   33.7016 C.ar    1  UNL1        0.0003
     12 C         -10.9179  -12.2022   33.4759 C.ar    1  UNL1        0.0094
     13 C         -11.3871  -11.2759   32.5050 C.ar    1  UNL1        0.0976
     14 C         -12.5776  -11.5818   31.6827 C.2     1  UNL1        0.3397
     15 O         -13.7110  -11.6890   32.2236 O.2     1  UNL1       -0.2450
     16 O         -12.4449  -11.7641   30.3097 O.3     1  UNL1       -0.4771
     17 H         -13.2485  -11.9840   29.7337 H       1  UNL1        0.2954
     18 C         -10.5125   -5.7245   30.9950 C.3     1  UNL1        0.0265
     19 C          -9.6620   -6.9117   31.4708 C.3     1  UNL1        0.1007
     20 C          -8.1646   -6.6758   31.3381 C.ar    1  UNL1        0.0234
     21 C          -7.6389   -5.8263   30.3424 C.ar    1  UNL1        0.0019
     22 C          -6.2582   -5.6645   30.2019 C.ar    1  UNL1        0.0295
     23 C          -5.3824   -6.3550   31.0408 C.ar    1  UNL1        0.1424
     24 F          -4.0430   -6.1979   30.9003 F       1  UNL1       -0.2041
     25 C          -5.8862   -7.2167   32.0167 C.ar    1  UNL1        0.0590
     26 C          -7.2670   -7.3863   32.1625 C.ar    1  UNL1        0.1399
     27 F          -7.7240   -8.2521   33.1027 F       1  UNL1       -0.2044
     28 C          -9.5361   -8.4740   29.4505 C.3     1  UNL1        0.1207
     29 C          -8.3615   -9.4054   29.5605 C.ar    1  UNL1       -0.0021
     30 C          -8.5247  -10.6729   30.1374 C.ar    1  UNL1       -0.0026
     31 C          -7.4605  -11.5757   30.1621 C.ar    1  UNL1       -0.0001
     32 C          -6.2300  -11.2273   29.5997 C.ar    1  UNL1        0.0064
     33 C          -6.0510   -9.9656   29.0047 C.ar    1  UNL1        0.0752
     34 C          -7.1248   -9.0579   28.9922 C.ar    1  UNL1        0.0038
     35 C          -4.7586   -9.6013   28.3837 C.2     1  UNL1        0.3380
     36 O          -3.6786   -9.7644   29.0137 O.2     1  UNL1       -0.2451
     37 O          -4.7225   -9.0766   27.0942 O.3     1  UNL1       -0.4771
     38 H          -3.8427   -8.8259   26.6589 H       1  UNL1        0.2954
@<TRIPOS>BOND
     1    18    19    1
     2    19    20    1
     3    20    21   ar
     4    21    22   ar
     5    22    23   ar
     6    23    24    1
     7    23    25   ar
     8    25    26   ar
     9    26    27    1
    10    19     1    1
    11     1    28    1
    12    28    29    1
    13    29    30   ar
    14    30    31   ar
    15    31    32   ar
    16    32    33   ar
    17    33    35    1
    18    35    36    2
    19    35    37    1
    20    33    34   ar
    21     1     2   am
    22     2     3    2
    23     2     4    1
    24     4     5   ar
    25     5     6   ar
    26     6     7   ar
    27     7     8   ar
    28     8     9   ar
    29     9    10   ar
    30    10    11   ar
    31    11    12   ar
    32    12    13   ar
    33    13    14    1
    34    14    15    2
    35    14    16    1
    36    26    20   ar
    37    34    29   ar
    38    13     4   ar
    39    12     7   ar
    40    37    38    1
    41    16    17    1
@<TRIPOS>MOLECULE
*****
 38 41 0 0 0
SMALL
GASTEIGER

@<TRIPOS>ATOM
      1 N          -9.7756   -9.7030   31.0535 N.am    1  UNL1       -0.2685
      2 C          -9.3293  -11.0701   31.0523 C.2     1  UNL1        0.2674
      3 O          -8.1825  -11.3324   30.6007 O.2     1  UNL1       -0.2682
      4 C         -10.1652  -12.1303   31.6715 C.ar    1  UNL1        0.1409
      5 N         -10.9150  -12.8957   30.8347 N.ar    1  UNL1       -0.2390
      6 C         -11.7683  -13.8511   31.2707 C.ar    1  UNL1        0.0990
      7 C         -11.9087  -14.0931   32.6369 C.ar    1  UNL1        0.0194
      8 C         -12.7928  -15.0839   33.0911 C.ar    1  UNL1        0.0015
      9 C         -12.9122  -15.3454   34.4558 C.ar    1  UNL1        0.0000
     10 C         -12.1468  -14.6280   35.3744 C.ar    1  UNL1        0.0000
     11 C         -11.2636  -13.6378   34.9358 C.ar    1  UNL1        0.0003
     12 C         -11.1391  -13.3411   33.5592 C.ar    1  UNL1        0.0094
     13 C         -10.2531  -12.3409   33.0741 C.ar    1  UNL1        0.0976
     14 C          -9.4100  -11.5620   34.0067 C.2     1  UNL1        0.3397
     15 O          -8.2591  -11.9732   34.3149 O.2     1  UNL1       -0.2450
     16 O          -9.8930  -10.3782   34.5557 O.3     1  UNL1       -0.4771
     17 H          -9.3324   -9.8381   35.2037 H       1  UNL1        0.2954
     18 C         -10.2806   -9.7425   28.6168 C.3     1  UNL1        0.0265
     19 C         -10.6756   -9.1998   29.9983 C.3     1  UNL1        0.1007
     20 C         -10.7620   -7.6815   30.0506 C.ar    1  UNL1        0.0234
     21 C          -9.8847   -6.8684   29.3030 C.ar    1  UNL1        0.0019
     22 C          -9.9442   -5.4761   29.4056 C.ar    1  UNL1        0.0295
     23 C         -10.8674   -4.8750   30.2622 C.ar    1  UNL1        0.1424
     24 F         -10.9209   -3.5239   30.3616 F       1  UNL1       -0.2041
     25 C         -11.7276   -5.6663   31.0257 C.ar    1  UNL1        0.0590
     26 C         -11.6731   -7.0608   30.9308 C.ar    1  UNL1        0.1399
     27 F         -12.5042   -7.8022   31.7067 F       1  UNL1       -0.2044
     28 C          -9.1787   -8.7813   32.0286 C.3     1  UNL1        0.1207
     29 C          -7.9143   -8.1938   31.4667 C.ar    1  UNL1       -0.0021
     30 C          -7.3236   -7.0826   32.0849 C.ar    1  UNL1       -0.0026
     31 C          -6.1034   -6.5875   31.6220 C.ar    1  UNL1       -0.0001
     32 C          -5.4562   -7.2045   30.5486 C.ar    1  UNL1        0.0064
     33 C          -6.0265   -8.3281   29.9242 C.ar    1  UNL1        0.0752
     34 C          -7.2606   -8.8154   30.3899 C.ar    1  UNL1        0.0038
     35 C          -5.3326   -9.0020   28.8047 C.2     1  UNL1        0.3380
     36 O          -4.1306   -9.3639   28.9235 O.2     1  UNL1       -0.2451
     37 O          -6.0025   -9.2457   27.6084 O.3     1  UNL1       -0.4771
     38 H          -5.5374   -9.7083   26.8365 H       1  UNL1        0.2954
@<TRIPOS>BOND
     1    18    19    1
     2    19    20    1
     3    20    21   ar
     4    21    22   ar
     5    22    23   ar
     6    23    24    1
     7    23    25   ar
     8    25    26   ar
     9    26    27    1
    10    19     1    1
    11     1    28    1
    12    28    29    1
    13    29    30   ar
    14    30    31   ar
    15    31    32   ar
    16    32    33   ar
    17    33    35    1
    18    35    36    2
    19    35    37    1
    20    33    34   ar
    21     1     2   am
    22     2     3    2
    23     2     4    1
    24     4     5   ar
    25     5     6   ar
    26     6     7   ar
    27     7     8   ar
    28     8     9   ar
    29     9    10   ar
    30    10    11   ar
    31    11    12   ar
    32    12    13   ar
    33    13    14    1
    34    14    15    2
    35    14    16    1
    36    26    20   ar
    37    34    29   ar
    38    13     4   ar
    39    12     7   ar
    40    37    38    1
    41    16    17    1
@<TRIPOS>MOLECULE
*****
 38 41 0 0 0
SMALL
GASTEIGER

@<TRIPOS>ATOM
      1 N          -9.0126  -11.5927   31.0486 N.am    1  UNL1       -0.2685
      2 C          -8.6715  -10.5506   30.1181 C.2     1  UNL1        0.2674
      3 O          -7.8545  -10.8076   29.1938 O.2     1  UNL1       -0.2682
      4 C          -9.3546   -9.2334   30.1869 C.ar    1  UNL1        0.1409
      5 N         -10.6647   -9.2332   30.5501 N.ar    1  UNL1       -0.2390
      6 C         -11.4218   -8.1124   30.5894 C.ar    1  UNL1        0.0990
      7 C         -10.8644   -6.8795   30.2515 C.ar    1  UNL1        0.0194
      8 C         -11.6478   -5.7157   30.2921 C.ar    1  UNL1        0.0015
      9 C         -11.0831   -4.4789   29.9816 C.ar    1  UNL1        0.0000
     10 C          -9.7347   -4.3930   29.6372 C.ar    1  UNL1        0.0000
     11 C          -8.9436   -5.5440   29.5916 C.ar    1  UNL1        0.0003
     12 C          -9.4976   -6.8116   29.8832 C.ar    1  UNL1        0.0094
     13 C          -8.7262   -8.0051   29.8467 C.ar    1  UNL1        0.0976
     14 C          -7.2890   -7.9652   29.5004 C.2     1  UNL1        0.3397
     15 O          -6.4910   -7.2704   30.1852 O.2     1  UNL1       -0.2450
     16 O          -6.8178   -8.6867   28.4079 O.3     1  UNL1       -0.4771
     17 H          -5.8383   -8.6622   28.1512 H       1  UNL1        0.2954
     18 C          -9.4174  -11.6655   33.5032 C.3     1  UNL1        0.0265
     19 C          -8.3734  -11.6605   32.3766 C.3     1  UNL1        0.1007
     20 C          -7.3299  -10.5626   32.5227 C.ar    1  UNL1        0.0234
     21 C          -7.6281   -9.3454   33.1698 C.ar    1  UNL1        0.0019
     22 C          -6.6733   -8.3281   33.2467 C.ar    1  UNL1        0.0295
     23 C          -5.4146   -8.5030   32.6699 C.ar    1  UNL1        0.1424
     24 F          -4.4911   -7.5131   32.7438 F       1  UNL1       -0.2041
     25 C          -5.1114   -9.6932   32.0064 C.ar    1  UNL1        0.0590
     26 C          -6.0623  -10.7157   31.9228 C.ar    1  UNL1        0.1399
     27 F          -5.7458  -11.8497   31.2473 F       1  UNL1       -0.2044
     28 C          -9.8809  -12.6808   30.5809 C.3     1  UNL1        0.1207
     29 C         -11.1359  -12.7222   31.4073 C.ar    1  UNL1       -0.0021
     30 C         -12.1060  -11.7210   31.2575 C.ar    1  UNL1       -0.0026
     31 C         -13.3119  -11.8014   31.9560 C.ar    1  UNL1       -0.0001
     32 C         -13.5655  -12.8869   32.7979 C.ar    1  UNL1        0.0064
     33 C         -12.6102  -13.9077   32.9507 C.ar    1  UNL1        0.0752
     34 C         -11.3938  -13.8150   32.2513 C.ar    1  UNL1        0.0038
     35 C         -12.8843  -15.0731   33.8198 C.2     1  UNL1        0.3380
     36 O         -13.4212  -16.1110   33.3460 O.2     1  UNL1       -0.2451
     37 O         -12.5489  -15.0357   35.1709 O.3     1  UNL1       -0.4771
     38 H         -12.7303  -15.8290   35.7743 H       1  UNL1        0.2954
@<TRIPOS>BOND
     1    18    19    1
     2    19    20    1
     3    20    21   ar
     4    21    22   ar
     5    22    23   ar
     6    23    24    1
     7    23    25   ar
     8    25    26   ar
     9    26    27    1
    10    19     1    1
    11     1    28    1
    12    28    29    1
    13    29    30   ar
    14    30    31   ar
    15    31    32   ar
    16    32    33   ar
    17    33    35    1
    18    35    36    2
    19    35    37    1
    20    33    34   ar
    21     1     2   am
    22     2     3    2
    23     2     4    1
    24     4     5   ar
    25     5     6   ar
    26     6     7   ar
    27     7     8   ar
    28     8     9   ar
    29     9    10   ar
    30    10    11   ar
    31    11    12   ar
    32    12    13   ar
    33    13    14    1
    34    14    15    2
    35    14    16    1
    36    26    20   ar
    37    34    29   ar
    38    13     4   ar
    39    12     7   ar
    40    37    38    1
    41    16    17    1
