@<TRIPOS>MOLECULE
*****
 39 43 0 0 0
SMALL
GASTEIGER

@<TRIPOS>ATOM
      1 C          49.7532   11.5969  -21.3744 C.2     1  UNL1        0.2506
      2 O          50.9277   11.5892  -21.8344 O.2     1  UNL1       -0.2699
      3 N          48.6381   11.3251  -22.2469 N.am    1  UNL1       -0.2680
      4 C          47.4965   10.5463  -21.7550 C.3     1  UNL1        0.1412
      5 C          46.3067   11.4661  -21.4864 C.3     1  UNL1        0.2268
      6 O          46.3061   12.5922  -22.3618 O.3     1  UNL1       -0.4739
      7 C          46.3625   12.4592  -23.7510 C.ar    1  UNL1        0.1362
      8 C          45.2673   12.8974  -24.5008 C.ar    1  UNL1        0.0366
      9 C          45.2548   12.7583  -25.8884 C.ar    1  UNL1        0.0031
     10 C          46.3502   12.1888  -26.5553 C.ar    1  UNL1        0.0001
     11 C          47.4643   11.7747  -25.8047 C.ar    1  UNL1        0.0004
     12 C          47.4870   11.8989  -24.4042 C.ar    1  UNL1        0.0317
     13 C          48.7852   11.5602  -23.6907 C.3     1  UNL1        0.1236
     14 C          46.3404   12.0419  -28.0330 C.ar    1  UNL1        0.0045
     15 C          46.6672   10.7938  -28.6330 C.ar    1  UNL1        0.0386
     16 C          46.6644   10.6407  -30.0416 C.ar    1  UNL1        0.1577
     17 C          46.3295   11.7571  -30.8039 C.ar    1  UNL1        0.1323
     18 N          46.2641   11.8478  -32.1451 N.ar    1  UNL1       -0.2210
     19 C          45.8998   13.1415  -32.3451 C.ar    1  UNL1        0.1751
     20 N          45.7406   13.8411  -31.1965 N.ar    1  UNL1       -0.3348
     21 C          46.0148   12.9521  -30.2346 C.ar    1  UNL1        0.0787
     22 C          46.0064   13.1427  -28.8570 C.ar    1  UNL1        0.0187
     23 H          45.4671   14.8431  -31.0899 H       1  UNL1        0.1675
     24 O          46.9778    9.4339  -30.6835 O.3     1  UNL1       -0.4699
     25 C          48.0697    8.5960  -30.3199 C.3     1  UNL1        0.2525
     26 C          48.8852   13.0885  -19.5304 C.ar    1  UNL1        0.0503
     27 C          48.6748   13.3012  -18.1533 C.ar    1  UNL1        0.0328
     28 C          49.1080   12.3645  -17.2077 C.ar    1  UNL1        0.1069
     29 C          49.7493   11.1973  -17.6316 C.ar    1  UNL1        0.0186
     30 C          49.9662   10.9713  -18.9902 C.ar    1  UNL1        0.0071
     31 C          49.5479   11.9084  -19.9459 C.ar    1  UNL1        0.0667
     32 S          48.8140   12.6470  -15.4948 S.O2    1  UNL1        0.0105
     33 C          50.3662   12.9037  -14.6665 C.3     1  UNL1        0.1816
     34 O          47.9445   13.8597  -15.3134 O.2     1  UNL1       -0.1686
     35 O          48.1138   11.4576  -14.8999 O.2     1  UNL1       -0.1686
     36 N          48.4783   14.0777  -20.5009 N.pl3   1  UNL1       -0.3325
     37 H          47.4592   14.2262  -20.6767 H       1  UNL1        0.1468
     38 C          48.8111   15.2803  -22.6232 C.3     1  UNL1        0.0229
     39 C          49.4039   14.9157  -21.2656 C.3     1  UNL1        0.0871
@<TRIPOS>BOND
     1    38    39    1
     2    39    36    1
     3    36    26    1
     4    26    27   ar
     5    27    28   ar
     6    28    32    1
     7    32    33    1
     8    32    34    2
     9    32    35    2
    10    28    29   ar
    11    29    30   ar
    12    30    31   ar
    13    31     1    1
    14     1     2    2
    15     1     3   am
    16     3     4    1
    17     4     5    1
    18     5     6    1
    19     6     7    1
    20     7     8   ar
    21     8     9   ar
    22     9    10   ar
    23    10    14    1
    24    14    15   ar
    25    15    16   ar
    26    16    24    1
    27    24    25    1
    28    16    17   ar
    29    17    18   ar
    30    18    19   ar
    31    19    20   ar
    32    20    21   ar
    33    21    22   ar
    34    10    11   ar
    35    11    12   ar
    36    12    13    1
    37    31    26   ar
    38    13     3    1
    39    12     7   ar
    40    22    14   ar
    41    21    17   ar
    42    36    37    1
    43    20    23    1
@<TRIPOS>MOLECULE
*****
 39 43 0 0 0
SMALL
GASTEIGER

@<TRIPOS>ATOM
      1 C          49.4387   10.8345  -21.3111 C.2     1  UNL1        0.2506
      2 O          50.4925   10.3103  -21.7647 O.2     1  UNL1       -0.2699
      3 N          48.2961   11.0118  -22.1723 N.am    1  UNL1       -0.2680
      4 C          46.9426   10.8112  -21.6436 C.3     1  UNL1        0.1412
      5 C          46.2541   12.1584  -21.4310 C.3     1  UNL1        0.2268
      6 O          46.7097   13.1337  -22.3669 O.3     1  UNL1       -0.4739
      7 C          46.6787   12.9178  -23.7464 C.ar    1  UNL1        0.1362
      8 C          45.8545   13.7363  -24.5240 C.ar    1  UNL1        0.0366
      9 C          45.7585   13.5440  -25.9019 C.ar    1  UNL1        0.0031
     10 C          46.5007   12.5333  -26.5317 C.ar    1  UNL1        0.0001
     11 C          47.3522   11.7288  -25.7546 C.ar    1  UNL1        0.0004
     12 C          47.4515   11.9040  -24.3630 C.ar    1  UNL1        0.0317
     13 C          48.5008   11.0884  -23.6261 C.3     1  UNL1        0.1236
     14 C          46.4021   12.3281  -27.9992 C.ar    1  UNL1        0.0045
     15 C          46.6656   11.0495  -28.5651 C.ar    1  UNL1        0.0386
     16 C          46.5779   10.8407  -29.9638 C.ar    1  UNL1        0.1577
     17 C          46.2244   11.9338  -30.7509 C.ar    1  UNL1        0.1323
     18 N          46.0835   11.9728  -32.0888 N.ar    1  UNL1       -0.2210
     19 C          45.7372   13.2661  -32.3207 C.ar    1  UNL1        0.1751
     20 N          45.6606   14.0145  -31.1946 N.ar    1  UNL1       -0.3348
     21 C          45.9700   13.1579  -30.2142 C.ar    1  UNL1        0.0787
     22 C          46.0457   13.4033  -28.8473 C.ar    1  UNL1        0.0187
     23 H          45.4162   15.0264  -31.1139 H       1  UNL1        0.1675
     24 O          46.8265    9.6020  -30.5722 O.3     1  UNL1       -0.4699
     25 C          47.8749    8.7192  -30.1875 C.3     1  UNL1        0.2525
     26 C          50.4055   12.1324  -19.3723 C.ar    1  UNL1        0.0503
     27 C          50.2920   12.5600  -18.0343 C.ar    1  UNL1        0.0328
     28 C          49.2146   12.1521  -17.2391 C.ar    1  UNL1        0.1069
     29 C          48.2317   11.3177  -17.7787 C.ar    1  UNL1        0.0186
     30 C          48.3289   10.8847  -19.1004 C.ar    1  UNL1        0.0071
     31 C          49.4102   11.2766  -19.9027 C.ar    1  UNL1        0.0667
     32 S          49.0878   12.7179  -15.5767 S.O2    1  UNL1        0.0105
     33 C          50.7033   12.7271  -14.8341 C.3     1  UNL1        0.1816
     34 O          48.5163   14.1079  -15.5466 O.2     1  UNL1       -0.1686
     35 O          48.1796   11.8057  -14.8008 O.2     1  UNL1       -0.1686
     36 N          51.5417   12.5175  -20.1764 N.pl3   1  UNL1       -0.3325
     37 H          52.1435   11.7723  -20.5936 H       1  UNL1        0.1468
     38 C          52.6921   13.9897  -21.7798 C.3     1  UNL1        0.0229
     39 C          51.9167   13.9023  -20.4687 C.3     1  UNL1        0.0871
@<TRIPOS>BOND
     1    38    39    1
     2    39    36    1
     3    36    26    1
     4    26    27   ar
     5    27    28   ar
     6    28    32    1
     7    32    33    1
     8    32    34    2
     9    32    35    2
    10    28    29   ar
    11    29    30   ar
    12    30    31   ar
    13    31     1    1
    14     1     2    2
    15     1     3   am
    16     3     4    1
    17     4     5    1
    18     5     6    1
    19     6     7    1
    20     7     8   ar
    21     8     9   ar
    22     9    10   ar
    23    10    14    1
    24    14    15   ar
    25    15    16   ar
    26    16    24    1
    27    24    25    1
    28    16    17   ar
    29    17    18   ar
    30    18    19   ar
    31    19    20   ar
    32    20    21   ar
    33    21    22   ar
    34    10    11   ar
    35    11    12   ar
    36    12    13    1
    37    31    26   ar
    38    13     3    1
    39    12     7   ar
    40    22    14   ar
    41    21    17   ar
    42    36    37    1
    43    20    23    1
@<TRIPOS>MOLECULE
*****
 39 43 0 0 0
SMALL
GASTEIGER

@<TRIPOS>ATOM
      1 C          48.5093    9.8634  -21.0661 C.2     1  UNL1        0.2506
      2 O          48.0490    8.6890  -21.0623 O.2     1  UNL1       -0.2699
      3 N          48.9520   10.4576  -22.3028 N.am    1  UNL1       -0.2680
      4 C          48.7089   11.8814  -22.5592 C.3     1  UNL1        0.1412
      5 C          50.0036   12.6757  -22.3953 C.3     1  UNL1        0.2268
      6 O          51.1462   11.8918  -22.7336 O.3     1  UNL1       -0.4739
      7 C          51.2678   11.2389  -23.9622 C.ar    1  UNL1        0.1362
      8 C          52.2939   11.6385  -24.8232 C.ar    1  UNL1        0.0366
      9 C          52.4417   11.0447  -26.0763 C.ar    1  UNL1        0.0031
     10 C          51.5697   10.0247  -26.4865 C.ar    1  UNL1        0.0001
     11 C          50.5556    9.6019  -25.6095 C.ar    1  UNL1        0.0004
     12 C          50.3878   10.1983  -24.3472 C.ar    1  UNL1        0.0317
     13 C          49.3614    9.5826  -23.4110 C.3     1  UNL1        0.1236
     14 C          51.7264    9.3891  -27.8194 C.ar    1  UNL1        0.0045
     15 C          52.9787    9.4329  -28.4935 C.ar    1  UNL1        0.0386
     16 C          53.1412    8.8329  -29.7668 C.ar    1  UNL1        0.1577
     17 C          52.0296    8.2038  -30.3219 C.ar    1  UNL1        0.1323
     18 N          51.9478    7.5752  -31.5091 N.ar    1  UNL1       -0.2210
     19 C          50.6551    7.1576  -31.5438 C.ar    1  UNL1        0.1751
     20 N          49.9478    7.4996  -30.4407 N.ar    1  UNL1       -0.3348
     21 C          50.8306    8.1579  -29.6804 C.ar    1  UNL1        0.0787
     22 C          50.6308    8.7346  -28.4307 C.ar    1  UNL1        0.0187
     23 H          48.9449    7.2950  -30.2345 H       1  UNL1        0.1675
     24 O          54.3525    8.8469  -30.4732 O.3     1  UNL1       -0.4699
     25 C          55.5591    8.2571  -30.0015 C.3     1  UNL1        0.2525
     26 C          47.4686   11.1952  -19.1895 C.ar    1  UNL1        0.0503
     27 C          47.6159   11.8364  -17.9433 C.ar    1  UNL1        0.0328
     28 C          48.8593   11.8822  -17.3019 C.ar    1  UNL1        0.1069
     29 C          49.9692   11.2768  -17.8977 C.ar    1  UNL1        0.0186
     30 C          49.8413   10.6388  -19.1307 C.ar    1  UNL1        0.0071
     31 C          48.6036   10.5974  -19.7886 C.ar    1  UNL1        0.0667
     32 S          49.0098   12.6730  -15.7360 S.O2    1  UNL1        0.0105
     33 C          50.7211   12.7021  -15.2543 C.3     1  UNL1        0.1816
     34 O          48.4896   14.0809  -15.8165 O.2     1  UNL1       -0.1686
     35 O          48.2087   11.9201  -14.7112 O.2     1  UNL1       -0.1686
     36 N          46.1950   11.1890  -19.8705 N.pl3   1  UNL1       -0.3325
     37 H          45.9393   10.3652  -20.4600 H       1  UNL1        0.1468
     38 C          43.9913   11.8272  -18.9773 C.3     1  UNL1        0.0229
     39 C          45.2073   12.2667  -19.7871 C.3     1  UNL1        0.0871
@<TRIPOS>BOND
     1    38    39    1
     2    39    36    1
     3    36    26    1
     4    26    27   ar
     5    27    28   ar
     6    28    32    1
     7    32    33    1
     8    32    34    2
     9    32    35    2
    10    28    29   ar
    11    29    30   ar
    12    30    31   ar
    13    31     1    1
    14     1     2    2
    15     1     3   am
    16     3     4    1
    17     4     5    1
    18     5     6    1
    19     6     7    1
    20     7     8   ar
    21     8     9   ar
    22     9    10   ar
    23    10    14    1
    24    14    15   ar
    25    15    16   ar
    26    16    24    1
    27    24    25    1
    28    16    17   ar
    29    17    18   ar
    30    18    19   ar
    31    19    20   ar
    32    20    21   ar
    33    21    22   ar
    34    10    11   ar
    35    11    12   ar
    36    12    13    1
    37    31    26   ar
    38    13     3    1
    39    12     7   ar
    40    22    14   ar
    41    21    17   ar
    42    36    37    1
    43    20    23    1
