@<TRIPOS>MOLECULE
*****
 31 33 0 0 0
SMALL
GASTEIGER

@<TRIPOS>ATOM
      1 C          46.3413   12.0513  -25.1380 C.2     1  UNL1       -0.0222
      2 C          47.2285   12.1612  -26.1668 C.2     1  UNL1       -0.0040
      3 C          46.7979   12.1365  -27.5798 C.ar    1  UNL1       -0.0003
      4 C          46.8757   10.9508  -28.3270 C.ar    1  UNL1       -0.0000
      5 C          46.4792   10.9391  -29.6678 C.ar    1  UNL1       -0.0000
      6 C          46.0132   12.1112  -30.2706 C.ar    1  UNL1       -0.0000
      7 C          45.9482   13.2982  -29.5348 C.ar    1  UNL1       -0.0000
      8 C          46.3439   13.3137  -28.1937 C.ar    1  UNL1       -0.0000
      9 C          48.6808   12.3335  -25.9207 C.ar    1  UNL1       -0.0001
     10 C          49.5295   11.2176  -25.9274 C.ar    1  UNL1        0.0031
     11 C          50.8803   11.3567  -25.5973 C.ar    1  UNL1        0.0369
     12 C          51.4046   12.6220  -25.2675 C.ar    1  UNL1        0.1386
     13 C          50.5640   13.7401  -25.3103 C.ar    1  UNL1        0.0369
     14 C          49.2117   13.6002  -25.6315 C.ar    1  UNL1        0.0031
     15 O          52.7442   12.8133  -24.8920 O.3     1  UNL1       -0.4740
     16 C          53.3058   12.4519  -23.6299 C.3     1  UNL1        0.2226
     17 C          53.1451   13.5991  -22.6246 C.3     1  UNL1        0.1201
     18 N          52.3091   13.1831  -21.4783 N.3     1  UNL1       -0.2672
     19 C          52.9195   13.6368  -20.2178 C.3     1  UNL1        0.0898
     20 C          50.9492   13.7410  -21.5883 C.3     1  UNL1        0.0898
     21 C          46.8209   11.9422  -23.7341 C.ar    1  UNL1       -0.0043
     22 C          46.6927   13.0258  -22.8528 C.ar    1  UNL1       -0.0003
     23 C          47.2098   12.9436  -21.5585 C.ar    1  UNL1       -0.0003
     24 C          47.8660   11.7854  -21.1349 C.ar    1  UNL1       -0.0043
     25 C          47.9911   10.6814  -21.9984 C.ar    1  UNL1       -0.0225
     26 C          47.4481   10.7649  -23.2912 C.ar    1  UNL1       -0.0046
     27 C          48.7583    9.4405  -21.5826 C.3     1  UNL1        0.0224
     28 C          49.4684    9.6406  -20.2384 C.3     1  UNL1        0.0047
     29 C          49.7481    9.0255  -22.6767 C.3     1  UNL1        0.0047
     30 C          44.1329   13.1637  -24.7100 C.3     1  UNL1        0.0050
     31 C          44.8421   11.9818  -25.3648 C.3     1  UNL1        0.0264
@<TRIPOS>BOND
     1    30    31    1
     2    31     1    1
     3     1     2    2
     4     2     3    1
     5     3     4   ar
     6     4     5   ar
     7     5     6   ar
     8     6     7   ar
     9     7     8   ar
    10     2     9    1
    11     9    10   ar
    12    10    11   ar
    13    11    12   ar
    14    12    15    1
    15    15    16    1
    16    16    17    1
    17    17    18    1
    18    18    19    1
    19    18    20    1
    20    12    13   ar
    21    13    14   ar
    22     1    21    1
    23    21    22   ar
    24    22    23   ar
    25    23    24   ar
    26    24    25   ar
    27    25    27    1
    28    27    28    1
    29    27    29    1
    30    25    26   ar
    31     8     3   ar
    32    14     9   ar
    33    26    21   ar
@<TRIPOS>MOLECULE
*****
 31 33 0 0 0
SMALL
GASTEIGER

@<TRIPOS>ATOM
      1 C          46.2501   15.2643  -26.6923 C.2     1  UNL1       -0.0222
      2 C          47.2773   15.6806  -25.8992 C.2     1  UNL1       -0.0040
      3 C          47.5822   17.1120  -25.6977 C.ar    1  UNL1       -0.0003
      4 C          46.9210   17.8473  -24.7014 C.ar    1  UNL1       -0.0000
      5 C          47.2053   19.2050  -24.5262 C.ar    1  UNL1       -0.0000
      6 C          48.1421   19.8364  -25.3496 C.ar    1  UNL1       -0.0000
      7 C          48.7921   19.1120  -26.3534 C.ar    1  UNL1       -0.0000
      8 C          48.5103   17.7540  -26.5314 C.ar    1  UNL1       -0.0000
      9 C          48.1365   14.7128  -25.1748 C.ar    1  UNL1       -0.0001
     10 C          49.2285   14.1218  -25.8258 C.ar    1  UNL1        0.0031
     11 C          49.9821   13.1349  -25.1849 C.ar    1  UNL1        0.0369
     12 C          49.6594   12.7340  -23.8735 C.ar    1  UNL1        0.1386
     13 C          48.5990   13.3620  -23.2105 C.ar    1  UNL1        0.0369
     14 C          47.8397   14.3423  -23.8540 C.ar    1  UNL1        0.0031
     15 O          50.3586   11.7216  -23.1963 O.3     1  UNL1       -0.4740
     16 C          50.4862   10.3703  -23.6395 C.3     1  UNL1        0.2226
     17 C          49.7465    9.4226  -22.6869 C.3     1  UNL1        0.1201
     18 N          49.1133   10.1735  -21.5818 N.3     1  UNL1       -0.2672
     19 C          47.6530    9.9908  -21.6195 C.3     1  UNL1        0.0898
     20 C          49.6262    9.7212  -20.2760 C.3     1  UNL1        0.0898
     21 C          46.0564   13.8182  -26.9821 C.ar    1  UNL1       -0.0043
     22 C          45.5698   12.9533  -25.9909 C.ar    1  UNL1       -0.0003
     23 C          45.4587   11.5850  -26.2451 C.ar    1  UNL1       -0.0003
     24 C          45.8395   11.0662  -27.4849 C.ar    1  UNL1       -0.0043
     25 C          46.3152   11.9191  -28.4982 C.ar    1  UNL1       -0.0225
     26 C          46.4023   13.2972  -28.2410 C.ar    1  UNL1       -0.0046
     27 C          46.7975   11.3691  -29.8272 C.3     1  UNL1        0.0224
     28 C          45.9608   11.9037  -30.9957 C.3     1  UNL1        0.0047
     29 C          46.8063    9.8366  -29.8063 C.3     1  UNL1        0.0047
     30 C          45.6821   16.4816  -28.8121 C.3     1  UNL1        0.0050
     31 C          45.2934   16.2377  -27.3567 C.3     1  UNL1        0.0264
@<TRIPOS>BOND
     1    30    31    1
     2    31     1    1
     3     1     2    2
     4     2     3    1
     5     3     4   ar
     6     4     5   ar
     7     5     6   ar
     8     6     7   ar
     9     7     8   ar
    10     2     9    1
    11     9    10   ar
    12    10    11   ar
    13    11    12   ar
    14    12    15    1
    15    15    16    1
    16    16    17    1
    17    17    18    1
    18    18    19    1
    19    18    20    1
    20    12    13   ar
    21    13    14   ar
    22     1    21    1
    23    21    22   ar
    24    22    23   ar
    25    23    24   ar
    26    24    25   ar
    27    25    27    1
    28    27    28    1
    29    27    29    1
    30    25    26   ar
    31     8     3   ar
    32    14     9   ar
    33    26    21   ar
@<TRIPOS>MOLECULE
*****
 31 33 0 0 0
SMALL
GASTEIGER

@<TRIPOS>ATOM
      1 C          46.2961   15.3033  -26.7332 C.2     1  UNL1       -0.0222
      2 C          47.4109   15.7611  -26.0966 C.2     1  UNL1       -0.0040
      3 C          47.6724   17.2034  -25.9124 C.ar    1  UNL1       -0.0003
      4 C          48.5115   17.8938  -26.8010 C.ar    1  UNL1       -0.0000
      5 C          48.7649   19.2558  -26.6117 C.ar    1  UNL1       -0.0000
      6 C          48.1908   19.9315  -25.5309 C.ar    1  UNL1       -0.0000
      7 C          47.3666   19.2446  -24.6344 C.ar    1  UNL1       -0.0000
      8 C          47.1109   17.8826  -24.8206 C.ar    1  UNL1       -0.0000
      9 C          48.4174   14.8290  -25.5328 C.ar    1  UNL1       -0.0001
     10 C          48.2571   14.3275  -24.2334 C.ar    1  UNL1        0.0031
     11 C          49.2497   13.5301  -23.6575 C.ar    1  UNL1        0.0369
     12 C          50.4150   13.2120  -24.3824 C.ar    1  UNL1        0.1386
     13 C          50.5476   13.6745  -25.6966 C.ar    1  UNL1        0.0369
     14 C          49.5597   14.4790  -26.2695 C.ar    1  UNL1        0.0031
     15 O          51.4603   12.4467  -23.8401 O.3     1  UNL1       -0.4740
     16 C          52.5471   11.8931  -24.5824 C.3     1  UNL1        0.2226
     17 C          52.3877   10.3730  -24.7112 C.3     1  UNL1        0.1201
     18 N          50.9697   10.0062  -24.9127 N.3     1  UNL1       -0.2672
     19 C          50.7353    9.6534  -26.3226 C.3     1  UNL1        0.0898
     20 C          50.5939    8.8660  -24.0574 C.3     1  UNL1        0.0898
     21 C          46.1317   13.8533  -27.0218 C.ar    1  UNL1       -0.0043
     22 C          45.7304   12.9681  -26.0105 C.ar    1  UNL1       -0.0003
     23 C          45.6481   11.5983  -26.2679 C.ar    1  UNL1       -0.0003
     24 C          45.9729   11.0986  -27.5312 C.ar    1  UNL1       -0.0043
     25 C          46.3624   11.9717  -28.5639 C.ar    1  UNL1       -0.0225
     26 C          46.4208   13.3505  -28.3022 C.ar    1  UNL1       -0.0046
     27 C          46.7844   11.4445  -29.9223 C.3     1  UNL1        0.0224
     28 C          45.9139   12.0200  -31.0458 C.3     1  UNL1        0.0047
     29 C          46.7667    9.9120  -29.9363 C.3     1  UNL1        0.0047
     30 C          45.3585   16.5291  -28.7120 C.3     1  UNL1        0.0050
     31 C          45.2024   16.2350  -27.2227 C.3     1  UNL1        0.0264
@<TRIPOS>BOND
     1    30    31    1
     2    31     1    1
     3     1     2    2
     4     2     3    1
     5     3     4   ar
     6     4     5   ar
     7     5     6   ar
     8     6     7   ar
     9     7     8   ar
    10     2     9    1
    11     9    10   ar
    12    10    11   ar
    13    11    12   ar
    14    12    15    1
    15    15    16    1
    16    16    17    1
    17    17    18    1
    18    18    19    1
    19    18    20    1
    20    12    13   ar
    21    13    14   ar
    22     1    21    1
    23    21    22   ar
    24    22    23   ar
    25    23    24   ar
    26    24    25   ar
    27    25    27    1
    28    27    28    1
    29    27    29    1
    30    25    26   ar
    31     8     3   ar
    32    14     9   ar
    33    26    21   ar
@<TRIPOS>MOLECULE
*****
 31 33 0 0 0
SMALL
GASTEIGER

@<TRIPOS>ATOM
      1 C          46.4791   15.3403  -27.2243 C.2     1  UNL1       -0.0222
      2 C          47.3461   15.7741  -26.2664 C.2     1  UNL1       -0.0040
      3 C          47.6880   17.2024  -26.1067 C.ar    1  UNL1       -0.0003
      4 C          47.0193   17.9928  -25.1588 C.ar    1  UNL1       -0.0000
      5 C          47.3391   19.3471  -25.0235 C.ar    1  UNL1       -0.0000
      6 C          48.3193   19.9203  -25.8390 C.ar    1  UNL1       -0.0000
      7 C          48.9773   19.1408  -26.7951 C.ar    1  UNL1       -0.0000
      8 C          48.6601   17.7860  -26.9332 C.ar    1  UNL1       -0.0000
      9 C          47.9808   14.8314  -25.3134 C.ar    1  UNL1       -0.0001
     10 C          47.3873   14.5906  -24.0664 C.ar    1  UNL1        0.0031
     11 C          48.0294   13.7832  -23.1236 C.ar    1  UNL1        0.0369
     12 C          49.2731   13.1932  -23.4227 C.ar    1  UNL1        0.1386
     13 C          49.8376   13.3970  -24.6870 C.ar    1  UNL1        0.0369
     14 C          49.2004   14.2112  -25.6265 C.ar    1  UNL1        0.0031
     15 O          49.9797   12.4045  -22.5003 O.3     1  UNL1       -0.4740
     16 C          49.6134   12.2067  -21.1344 C.3     1  UNL1        0.2226
     17 C          50.3564   13.1998  -20.2320 C.3     1  UNL1        0.1201
     18 N          51.7829   12.8324  -20.1052 N.3     1  UNL1       -0.2672
     19 C          52.6312   13.9145  -20.6313 C.3     1  UNL1        0.0898
     20 C          52.1379   12.5771  -18.6976 C.3     1  UNL1        0.0898
     21 C          46.2631   13.8853  -27.4459 C.ar    1  UNL1       -0.0043
     22 C          45.8651   13.0562  -26.3869 C.ar    1  UNL1       -0.0003
     23 C          45.7343   11.6800  -26.5830 C.ar    1  UNL1       -0.0003
     24 C          46.0072   11.1179  -27.8324 C.ar    1  UNL1       -0.0043
     25 C          46.3925   11.9344  -28.9118 C.ar    1  UNL1       -0.0225
     26 C          46.4996   13.3204  -28.7111 C.ar    1  UNL1       -0.0046
     27 C          46.7589   11.3378  -30.2577 C.3     1  UNL1        0.0224
     28 C          45.9008   11.9224  -31.3861 C.3     1  UNL1        0.0047
     29 C          46.6557    9.8092  -30.2170 C.3     1  UNL1        0.0047
     30 C          44.3372   16.5906  -27.6074 C.3     1  UNL1        0.0050
     31 C          45.7373   16.2976  -28.1393 C.3     1  UNL1        0.0264
@<TRIPOS>BOND
     1    30    31    1
     2    31     1    1
     3     1     2    2
     4     2     3    1
     5     3     4   ar
     6     4     5   ar
     7     5     6   ar
     8     6     7   ar
     9     7     8   ar
    10     2     9    1
    11     9    10   ar
    12    10    11   ar
    13    11    12   ar
    14    12    15    1
    15    15    16    1
    16    16    17    1
    17    17    18    1
    18    18    19    1
    19    18    20    1
    20    12    13   ar
    21    13    14   ar
    22     1    21    1
    23    21    22   ar
    24    22    23   ar
    25    23    24   ar
    26    24    25   ar
    27    25    27    1
    28    27    28    1
    29    27    29    1
    30    25    26   ar
    31     8     3   ar
    32    14     9   ar
    33    26    21   ar
@<TRIPOS>MOLECULE
*****
 31 33 0 0 0
SMALL
GASTEIGER

@<TRIPOS>ATOM
      1 C          48.4059   14.0734  -24.9196 C.2     1  UNL1       -0.0222
      2 C          49.2279   15.0385  -24.4193 C.2     1  UNL1       -0.0040
      3 C          49.4272   16.3318  -25.1049 C.ar    1  UNL1       -0.0003
      4 C          50.5179   16.5190  -25.9684 C.ar    1  UNL1       -0.0000
      5 C          50.7073   17.7505  -26.6028 C.ar    1  UNL1       -0.0000
      6 C          49.8158   18.8022  -26.3710 C.ar    1  UNL1       -0.0000
      7 C          48.7366   18.6254  -25.5000 C.ar    1  UNL1       -0.0000
      8 C          48.5441   17.3951  -24.8638 C.ar    1  UNL1       -0.0000
      9 C          49.9548   14.8487  -23.1406 C.ar    1  UNL1       -0.0001
     10 C          51.3189   14.5252  -23.1517 C.ar    1  UNL1        0.0031
     11 C          51.9874   14.2457  -21.9569 C.ar    1  UNL1        0.0369
     12 C          51.2997   14.2994  -20.7285 C.ar    1  UNL1        0.1386
     13 C          49.9505   14.6708  -20.7187 C.ar    1  UNL1        0.0369
     14 C          49.2795   14.9415  -21.9136 C.ar    1  UNL1        0.0031
     15 O          51.9120   13.9918  -19.5026 O.3     1  UNL1       -0.4740
     16 C          52.0733   12.6772  -18.9691 C.3     1  UNL1        0.2226
     17 C          51.1770   12.4851  -17.7394 C.3     1  UNL1        0.1201
     18 N          50.2028   11.3953  -17.9614 N.3     1  UNL1       -0.2672
     19 C          48.8720   11.8029  -17.4817 C.3     1  UNL1        0.0898
     20 C          50.1185   11.0475  -19.3913 C.3     1  UNL1        0.0898
     21 C          48.3343   12.7334  -24.2776 C.ar    1  UNL1       -0.0043
     22 C          47.2872   12.4216  -23.3979 C.ar    1  UNL1       -0.0003
     23 C          47.2642   11.1892  -22.7420 C.ar    1  UNL1       -0.0003
     24 C          48.2878   10.2618  -22.9502 C.ar    1  UNL1       -0.0043
     25 C          49.3388   10.5489  -23.8409 C.ar    1  UNL1       -0.0225
     26 C          49.3418   11.7821  -24.5134 C.ar    1  UNL1       -0.0046
     27 C          50.4949    9.5851  -24.0302 C.3     1  UNL1        0.0224
     28 C          50.8355    9.3975  -25.5135 C.3     1  UNL1        0.0047
     29 C          50.1945    8.2421  -23.3556 C.3     1  UNL1        0.0047
     30 C          46.1332   14.6538  -25.8118 C.3     1  UNL1        0.0050
     31 C          47.5710   14.2879  -26.1690 C.3     1  UNL1        0.0264
@<TRIPOS>BOND
     1    30    31    1
     2    31     1    1
     3     1     2    2
     4     2     3    1
     5     3     4   ar
     6     4     5   ar
     7     5     6   ar
     8     6     7   ar
     9     7     8   ar
    10     2     9    1
    11     9    10   ar
    12    10    11   ar
    13    11    12   ar
    14    12    15    1
    15    15    16    1
    16    16    17    1
    17    17    18    1
    18    18    19    1
    19    18    20    1
    20    12    13   ar
    21    13    14   ar
    22     1    21    1
    23    21    22   ar
    24    22    23   ar
    25    23    24   ar
    26    24    25   ar
    27    25    27    1
    28    27    28    1
    29    27    29    1
    30    25    26   ar
    31     8     3   ar
    32    14     9   ar
    33    26    21   ar
@<TRIPOS>MOLECULE
*****
 31 33 0 0 0
SMALL
GASTEIGER

@<TRIPOS>ATOM
      1 C          48.7062   14.2797  -22.2083 C.2     1  UNL1       -0.0222
      2 C          48.3229   13.0506  -22.6554 C.2     1  UNL1       -0.0040
      3 C          48.5970   11.8171  -21.8900 C.ar    1  UNL1       -0.0003
      4 C          49.5433   10.8886  -22.3513 C.ar    1  UNL1       -0.0000
      5 C          49.7868    9.7169  -21.6282 C.ar    1  UNL1       -0.0000
      6 C          49.0812    9.4623  -20.4486 C.ar    1  UNL1       -0.0000
      7 C          48.1267   10.3768  -19.9932 C.ar    1  UNL1       -0.0000
      8 C          47.8805   11.5496  -20.7137 C.ar    1  UNL1       -0.0000
      9 C          47.5871   12.8869  -23.9326 C.ar    1  UNL1       -0.0001
     10 C          46.1945   12.7253  -23.9228 C.ar    1  UNL1        0.0031
     11 C          45.5055   12.4697  -25.1114 C.ar    1  UNL1        0.0369
     12 C          46.2027   12.3853  -26.3327 C.ar    1  UNL1        0.1386
     13 C          47.5861   12.5962  -26.3436 C.ar    1  UNL1        0.0369
     14 C          48.2765   12.8428  -25.1544 C.ar    1  UNL1        0.0031
     15 O          45.5666   12.0940  -27.5504 O.3     1  UNL1       -0.4740
     16 C          46.2319   11.8564  -28.7913 C.3     1  UNL1        0.2226
     17 C          45.8959   12.9629  -29.7990 C.3     1  UNL1        0.1201
     18 N          46.3012   12.5724  -31.1662 N.3     1  UNL1       -0.2672
     19 C          46.6407   11.1404  -31.2021 C.3     1  UNL1        0.0898
     20 C          45.2209   12.8404  -32.1325 C.3     1  UNL1        0.0898
     21 C          48.5368   15.4832  -23.0661 C.ar    1  UNL1       -0.0043
     22 C          47.2982   16.1376  -23.1363 C.ar    1  UNL1       -0.0003
     23 C          47.1246   17.2223  -23.9981 C.ar    1  UNL1       -0.0003
     24 C          48.1800   17.6580  -24.8027 C.ar    1  UNL1       -0.0043
     25 C          49.4351   17.0252  -24.7356 C.ar    1  UNL1       -0.0225
     26 C          49.6069   15.9490  -23.8494 C.ar    1  UNL1       -0.0046
     27 C          50.5741   17.4381  -25.6486 C.3     1  UNL1        0.0224
     28 C          51.7279   18.0696  -24.8605 C.3     1  UNL1        0.0047
     29 C          50.0710   18.3808  -26.7473 C.3     1  UNL1        0.0047
     30 C          50.8644   14.2095  -20.9298 C.3     1  UNL1        0.0050
     31 C          49.3645   14.4809  -20.8555 C.3     1  UNL1        0.0264
@<TRIPOS>BOND
     1    30    31    1
     2    31     1    1
     3     1     2    2
     4     2     3    1
     5     3     4   ar
     6     4     5   ar
     7     5     6   ar
     8     6     7   ar
     9     7     8   ar
    10     2     9    1
    11     9    10   ar
    12    10    11   ar
    13    11    12   ar
    14    12    15    1
    15    15    16    1
    16    16    17    1
    17    17    18    1
    18    18    19    1
    19    18    20    1
    20    12    13   ar
    21    13    14   ar
    22     1    21    1
    23    21    22   ar
    24    22    23   ar
    25    23    24   ar
    26    24    25   ar
    27    25    27    1
    28    27    28    1
    29    27    29    1
    30    25    26   ar
    31     8     3   ar
    32    14     9   ar
    33    26    21   ar
@<TRIPOS>MOLECULE
*****
 31 33 0 0 0
SMALL
GASTEIGER

@<TRIPOS>ATOM
      1 C          47.4170   12.0081  -24.7310 C.2     1  UNL1       -0.0222
      2 C          48.6336   11.4839  -24.4106 C.2     1  UNL1       -0.0040
      3 C          48.9705   11.0683  -23.0336 C.ar    1  UNL1       -0.0003
      4 C          48.7874    9.7374  -22.6268 C.ar    1  UNL1       -0.0000
      5 C          49.0957    9.3552  -21.3177 C.ar    1  UNL1       -0.0000
      6 C          49.5782   10.3000  -20.4073 C.ar    1  UNL1       -0.0000
      7 C          49.7478   11.6301  -20.8034 C.ar    1  UNL1       -0.0000
      8 C          49.4405   12.0160  -22.1118 C.ar    1  UNL1       -0.0000
      9 C          49.6837   11.2820  -25.4383 C.ar    1  UNL1       -0.0001
     10 C          49.6733   10.1268  -26.2327 C.ar    1  UNL1        0.0031
     11 C          50.7137    9.8800  -27.1324 C.ar    1  UNL1        0.0369
     12 C          51.7762   10.7965  -27.2589 C.ar    1  UNL1        0.1386
     13 C          51.7564   11.9716  -26.4992 C.ar    1  UNL1        0.0369
     14 C          50.7212   12.2145  -25.5932 C.ar    1  UNL1        0.0031
     15 O          52.8653   10.5809  -28.1189 O.3     1  UNL1       -0.4740
     16 C          52.8153    9.8495  -29.3442 C.3     1  UNL1        0.2226
     17 C          54.1267    9.0852  -29.5651 C.3     1  UNL1        0.1201
     18 N          53.8784    7.6319  -29.6751 N.3     1  UNL1       -0.2672
     19 C          52.8817    7.3685  -30.7260 C.3     1  UNL1        0.0898
     20 C          55.1224    6.9077  -29.9923 C.3     1  UNL1        0.0898
     21 C          47.1590   12.5420  -26.0953 C.ar    1  UNL1       -0.0043
     22 C          47.1097   13.9257  -26.3196 C.ar    1  UNL1       -0.0003
     23 C          46.7952   14.4212  -27.5865 C.ar    1  UNL1       -0.0003
     24 C          46.5190   13.5431  -28.6372 C.ar    1  UNL1       -0.0043
     25 C          46.5787   12.1515  -28.4367 C.ar    1  UNL1       -0.0225
     26 C          46.9178   11.6621  -27.1645 C.ar    1  UNL1       -0.0046
     27 C          46.2166   11.1809  -29.5450 C.3     1  UNL1        0.0224
     28 C          47.1322    9.9509  -29.5388 C.3     1  UNL1        0.0047
     29 C          46.2400   11.8832  -30.9070 C.3     1  UNL1        0.0047
     30 C          44.9744   12.4792  -24.4002 C.3     1  UNL1        0.0050
     31 C          46.2925   12.1241  -23.7181 C.3     1  UNL1        0.0264
@<TRIPOS>BOND
     1    30    31    1
     2    31     1    1
     3     1     2    2
     4     2     3    1
     5     3     4   ar
     6     4     5   ar
     7     5     6   ar
     8     6     7   ar
     9     7     8   ar
    10     2     9    1
    11     9    10   ar
    12    10    11   ar
    13    11    12   ar
    14    12    15    1
    15    15    16    1
    16    16    17    1
    17    17    18    1
    18    18    19    1
    19    18    20    1
    20    12    13   ar
    21    13    14   ar
    22     1    21    1
    23    21    22   ar
    24    22    23   ar
    25    23    24   ar
    26    24    25   ar
    27    25    27    1
    28    27    28    1
    29    27    29    1
    30    25    26   ar
    31     8     3   ar
    32    14     9   ar
    33    26    21   ar
@<TRIPOS>MOLECULE
*****
 31 33 0 0 0
SMALL
GASTEIGER

@<TRIPOS>ATOM
      1 C          49.1378   13.6968  -24.9186 C.2     1  UNL1       -0.0222
      2 C          49.6482   14.7633  -24.2407 C.2     1  UNL1       -0.0040
      3 C          49.5361   16.1446  -24.7525 C.ar    1  UNL1       -0.0003
      4 C          48.3735   16.8968  -24.5223 C.ar    1  UNL1       -0.0000
      5 C          48.2697   18.1985  -25.0219 C.ar    1  UNL1       -0.0000
      6 C          49.3200   18.7511  -25.7607 C.ar    1  UNL1       -0.0000
      7 C          50.4737   18.0003  -26.0057 C.ar    1  UNL1       -0.0000
      8 C          50.5811   16.6982  -25.5075 C.ar    1  UNL1       -0.0000
      9 C          50.3297   14.5952  -22.9342 C.ar    1  UNL1       -0.0001
     10 C          51.7017   14.3100  -22.8915 C.ar    1  UNL1        0.0031
     11 C          52.3307   14.0505  -21.6709 C.ar    1  UNL1        0.0369
     12 C          51.5944   14.0860  -20.4705 C.ar    1  UNL1        0.1386
     13 C          50.2359   14.4194  -20.5140 C.ar    1  UNL1        0.0369
     14 C          49.6047   14.6701  -21.7347 C.ar    1  UNL1        0.0031
     15 O          52.1667   13.7969  -19.2210 O.3     1  UNL1       -0.4740
     16 C          52.1243   12.5272  -18.5693 C.3     1  UNL1        0.2226
     17 C          51.6870   12.6899  -17.1082 C.3     1  UNL1        0.1201
     18 N          50.6004   11.7447  -16.7740 N.3     1  UNL1       -0.2672
     19 C          50.1951   11.9180  -15.3694 C.3     1  UNL1        0.0898
     20 C          49.4315   11.9560  -17.6468 C.3     1  UNL1        0.0898
     21 C          49.3877   12.3092  -24.4443 C.ar    1  UNL1       -0.0043
     22 C          50.2794   11.4727  -25.1316 C.ar    1  UNL1       -0.0003
     23 C          50.4552   10.1484  -24.7254 C.ar    1  UNL1       -0.0003
     24 C          49.7382    9.6447  -23.6376 C.ar    1  UNL1       -0.0043
     25 C          48.8507   10.4721  -22.9249 C.ar    1  UNL1       -0.0225
     26 C          48.6970   11.8092  -23.3268 C.ar    1  UNL1       -0.0046
     27 C          48.0122    9.9277  -21.7839 C.3     1  UNL1        0.0224
     28 C          46.9693   10.9486  -21.3134 C.3     1  UNL1        0.0047
     29 C          48.9067    9.4739  -20.6250 C.3     1  UNL1        0.0047
     30 C          46.8513   13.6639  -25.9523 C.3     1  UNL1        0.0050
     31 C          48.3443   13.8572  -26.2025 C.3     1  UNL1        0.0264
@<TRIPOS>BOND
     1    30    31    1
     2    31     1    1
     3     1     2    2
     4     2     3    1
     5     3     4   ar
     6     4     5   ar
     7     5     6   ar
     8     6     7   ar
     9     7     8   ar
    10     2     9    1
    11     9    10   ar
    12    10    11   ar
    13    11    12   ar
    14    12    15    1
    15    15    16    1
    16    16    17    1
    17    17    18    1
    18    18    19    1
    19    18    20    1
    20    12    13   ar
    21    13    14   ar
    22     1    21    1
    23    21    22   ar
    24    22    23   ar
    25    23    24   ar
    26    24    25   ar
    27    25    27    1
    28    27    28    1
    29    27    29    1
    30    25    26   ar
    31     8     3   ar
    32    14     9   ar
    33    26    21   ar
@<TRIPOS>MOLECULE
*****
 31 33 0 0 0
SMALL
GASTEIGER

@<TRIPOS>ATOM
      1 C          48.9716   13.6482  -23.4536 C.2     1  UNL1       -0.0222
      2 C          48.4536   12.4251  -23.7588 C.2     1  UNL1       -0.0040
      3 C          48.4817   11.3003  -22.8014 C.ar    1  UNL1       -0.0003
      4 C          49.5910   10.4423  -22.7435 C.ar    1  UNL1       -0.0000
      5 C          49.6039    9.3718  -21.8442 C.ar    1  UNL1       -0.0000
      6 C          48.5073    9.1473  -21.0067 C.ar    1  UNL1       -0.0000
      7 C          47.3937    9.9901  -21.0713 C.ar    1  UNL1       -0.0000
      8 C          47.3773   11.0617  -21.9695 C.ar    1  UNL1       -0.0000
      9 C          47.8111   12.1623  -25.0694 C.ar    1  UNL1       -0.0001
     10 C          46.4532   12.4571  -25.2554 C.ar    1  UNL1        0.0031
     11 C          45.8156   12.1200  -26.4523 C.ar    1  UNL1        0.0369
     12 C          46.5349   11.4925  -27.4884 C.ar    1  UNL1        0.1386
     13 C          47.9016   11.2452  -27.3162 C.ar    1  UNL1        0.0369
     14 C          48.5373   11.5738  -26.1165 C.ar    1  UNL1        0.0031
     15 O          45.9366   11.0983  -28.6962 O.3     1  UNL1       -0.4740
     16 C          46.6227   10.5118  -29.8026 C.3     1  UNL1        0.2226
     17 C          46.6337   11.4746  -30.9966 C.3     1  UNL1        0.1201
     18 N          45.4395   12.3462  -30.9829 N.3     1  UNL1       -0.2672
     19 C          45.7277   13.5853  -30.2421 C.3     1  UNL1        0.0898
     20 C          45.0199   12.6862  -32.3544 C.3     1  UNL1        0.0898
     21 C          49.0501   14.7155  -24.4868 C.ar    1  UNL1       -0.0043
     22 C          50.0494   14.6806  -25.4705 C.ar    1  UNL1       -0.0003
     23 C          50.1635   15.7223  -26.3932 C.ar    1  UNL1       -0.0003
     24 C          49.2895   16.8105  -26.3380 C.ar    1  UNL1       -0.0043
     25 C          48.2702   16.8569  -25.3689 C.ar    1  UNL1       -0.0225
     26 C          48.1489   15.7938  -24.4589 C.ar    1  UNL1       -0.0046
     27 C          47.3537   18.0597  -25.2481 C.3     1  UNL1        0.0224
     28 C          48.1044   19.3697  -25.5157 C.3     1  UNL1        0.0047
     29 C          46.6699   18.0822  -23.8766 C.3     1  UNL1        0.0047
     30 C          51.0624   13.9358  -22.0958 C.3     1  UNL1        0.0050
     31 C          49.5368   13.9695  -22.0820 C.3     1  UNL1        0.0264
@<TRIPOS>BOND
     1    30    31    1
     2    31     1    1
     3     1     2    2
     4     2     3    1
     5     3     4   ar
     6     4     5   ar
     7     5     6   ar
     8     6     7   ar
     9     7     8   ar
    10     2     9    1
    11     9    10   ar
    12    10    11   ar
    13    11    12   ar
    14    12    15    1
    15    15    16    1
    16    16    17    1
    17    17    18    1
    18    18    19    1
    19    18    20    1
    20    12    13   ar
    21    13    14   ar
    22     1    21    1
    23    21    22   ar
    24    22    23   ar
    25    23    24   ar
    26    24    25   ar
    27    25    27    1
    28    27    28    1
    29    27    29    1
    30    25    26   ar
    31     8     3   ar
    32    14     9   ar
    33    26    21   ar
