@<TRIPOS>MOLECULE
*****
 36 40 0 0 0
SMALL
GASTEIGER

@<TRIPOS>ATOM
      1 C          46.2924   15.4689  -27.0039 C.2     1  UNL1        0.2496
      2 O          45.4623   16.2434  -27.5536 O.2     1  UNL1       -0.2699
      3 N          47.0755   15.9446  -25.8895 N.am    1  UNL1       -0.2687
      4 C          48.4962   15.5975  -25.7620 C.3     1  UNL1        0.0961
      5 C          48.8188   15.0623  -24.3539 C.3     1  UNL1        0.0399
      6 C          47.8305   15.5386  -23.2406 C.3     1  UNL1        0.0653
      7 C          48.5979   15.6645  -21.8779 C.3     1  UNL1        0.0478
      8 C          48.8877   14.3071  -21.3120 C.ar    1  UNL1        0.0220
      9 C          49.7945   13.9003  -20.3616 C.ar    1  UNL1        0.0923
     10 N          49.5232   12.6062  -20.0554 N.ar    1  UNL1       -0.2534
     11 N          48.4603   12.1974  -20.7435 N.ar    1  UNL1       -0.1651
     12 C          48.0752   13.2330  -21.5083 C.ar    1  UNL1        0.1515
     13 C          46.9193   13.3205  -22.3878 C.2     1  UNL1        0.2650
     14 O          46.0986   12.3710  -22.4911 O.2     1  UNL1       -0.2684
     15 N          46.7305   14.5459  -23.1140 N.am    1  UNL1       -0.3023
     16 C          47.2528   16.9305  -23.6072 C.3     1  UNL1        0.0492
     17 C          46.4969   16.9220  -24.9546 C.3     1  UNL1        0.1217
     18 S          46.4883   18.5934  -25.6945 S.3     1  UNL1       -0.1490
     19 H          45.8343   14.6674  -23.6352 H       1  UNL1        0.1497
     20 H          47.8785   18.6206  -25.9111 H       1  UNL1        0.1038
     21 C          46.2531   12.2117  -30.7409 C.ar    1  UNL1        0.2248
     22 N          46.3656   10.9229  -31.1702 N.ar    1  UNL1       -0.2101
     23 C          46.6007    9.8929  -30.3165 C.ar    1  UNL1        0.1021
     24 C          46.7358   10.1316  -28.9492 C.ar    1  UNL1        0.0209
     25 C          46.6277   11.4413  -28.4660 C.ar    1  UNL1        0.0060
     26 C          46.7551   11.7087  -27.0963 C.ar    1  UNL1        0.0003
     27 C          46.6466   13.0173  -26.6224 C.ar    1  UNL1        0.0045
     28 C          46.4200   14.0824  -27.5088 C.ar    1  UNL1        0.0538
     29 C          46.2748   13.8162  -28.8809 C.ar    1  UNL1        0.0092
     30 C          46.3827   12.5019  -29.3691 C.ar    1  UNL1        0.0534
     31 C          45.2432   13.0539  -32.8426 C.3     1  UNL1        0.2542
     32 O          46.0102   13.2406  -31.6592 O.3     1  UNL1       -0.4561
     33 C          50.2297   11.7881  -19.0494 C.3     1  UNL1        0.0867
     34 C          49.5552   11.9258  -17.6673 C.3     1  UNL1        0.0244
     35 C          50.1939   10.3054  -19.4684 C.3     1  UNL1        0.0244
     36 C          51.6902   12.2628  -18.9415 C.3     1  UNL1        0.0244
@<TRIPOS>BOND
     1    31    32    1
     2    32    21    1
     3    21    22   ar
     4    22    23   ar
     5    23    24   ar
     6    24    25   ar
     7    25    26   ar
     8    26    27   ar
     9    27    28   ar
    10    28     1    1
    11     1     2    2
    12     1     3   am
    13     3     4    1
    14     4     5    1
    15     5     6    1
    16     6     7    1
    17     7     8    1
    18     8     9   ar
    19     9    10   ar
    20    10    33    1
    21    33    34    1
    22    33    35    1
    23    33    36    1
    24    10    11   ar
    25    11    12   ar
    26    12    13    1
    27    13    14    2
    28    13    15   am
    29     6    16    1
    30    16    17    1
    31    17    18    1
    32    28    29   ar
    33    29    30   ar
    34    30    21   ar
    35    30    25   ar
    36    17     3    1
    37    15     6    1
    38    12     8   ar
    39    15    19    1
    40    18    20    1
@<TRIPOS>MOLECULE
*****
 36 40 0 0 0
SMALL
GASTEIGER

@<TRIPOS>ATOM
      1 C          45.9243   15.9728  -27.7430 C.2     1  UNL1        0.2496
      2 O          45.1981   16.9420  -28.0956 O.2     1  UNL1       -0.2699
      3 N          46.6741   16.0594  -26.5134 N.am    1  UNL1       -0.2687
      4 C          48.0499   15.5538  -26.4307 C.3     1  UNL1        0.0961
      5 C          48.2384   14.6379  -25.2065 C.3     1  UNL1        0.0399
      6 C          47.2266   14.8984  -24.0440 C.3     1  UNL1        0.0653
      7 C          47.9160   14.5854  -22.6697 C.3     1  UNL1        0.0478
      8 C          48.0547   13.1054  -22.4778 C.ar    1  UNL1        0.0220
      9 C          48.8634   12.3760  -21.6380 C.ar    1  UNL1        0.0923
     10 N          48.4656   11.0799  -21.7002 N.ar    1  UNL1       -0.2534
     11 N          47.4168   10.9726  -22.5117 N.ar    1  UNL1       -0.1651
     12 C          47.1684   12.2056  -22.9849 C.ar    1  UNL1        0.1515
     13 C          46.0807   12.6341  -23.8513 C.2     1  UNL1        0.2650
     14 O          45.1909   11.8302  -24.2358 O.2     1  UNL1       -0.2684
     15 N          46.0412   14.0199  -24.2291 N.am    1  UNL1       -0.3023
     16 C          46.7921   16.3873  -24.0455 C.3     1  UNL1        0.0492
     17 C          46.1231   16.8077  -25.3731 C.3     1  UNL1        0.1217
     18 S          46.3012   18.6076  -25.6379 S.3     1  UNL1       -0.1490
     19 H          45.1924   14.3613  -24.7317 H       1  UNL1        0.1497
     20 H          47.6995   18.5549  -25.7872 H       1  UNL1        0.1038
     21 C          46.8502   11.1395  -28.3411 C.ar    1  UNL1        0.2248
     22 N          46.8869   10.0479  -29.1566 N.ar    1  UNL1       -0.2101
     23 C          46.5411   10.1118  -30.4686 C.ar    1  UNL1        0.1021
     24 C          46.1310   11.3217  -31.0280 C.ar    1  UNL1        0.0209
     25 C          46.0784   12.4676  -30.2251 C.ar    1  UNL1        0.0060
     26 C          45.6738   13.6968  -30.7628 C.ar    1  UNL1        0.0003
     27 C          45.6235   14.8347  -29.9556 C.ar    1  UNL1        0.0045
     28 C          45.9657   14.7626  -28.5958 C.ar    1  UNL1        0.0538
     29 C          46.3881   13.5354  -28.0570 C.ar    1  UNL1        0.0092
     30 C          46.4420   12.3829  -28.8609 C.ar    1  UNL1        0.0534
     31 C          48.5639   11.1233  -26.5496 C.3     1  UNL1        0.2542
     32 O          47.2163   11.0244  -26.9944 O.3     1  UNL1       -0.4561
     33 C          49.0370    9.9608  -20.9246 C.3     1  UNL1        0.0867
     34 C          49.8899   10.4926  -19.7524 C.3     1  UNL1        0.0244
     35 C          47.8998    9.0931  -20.3509 C.3     1  UNL1        0.0244
     36 C          49.9292    9.1071  -21.8438 C.3     1  UNL1        0.0244
@<TRIPOS>BOND
     1    31    32    1
     2    32    21    1
     3    21    22   ar
     4    22    23   ar
     5    23    24   ar
     6    24    25   ar
     7    25    26   ar
     8    26    27   ar
     9    27    28   ar
    10    28     1    1
    11     1     2    2
    12     1     3   am
    13     3     4    1
    14     4     5    1
    15     5     6    1
    16     6     7    1
    17     7     8    1
    18     8     9   ar
    19     9    10   ar
    20    10    33    1
    21    33    34    1
    22    33    35    1
    23    33    36    1
    24    10    11   ar
    25    11    12   ar
    26    12    13    1
    27    13    14    2
    28    13    15   am
    29     6    16    1
    30    16    17    1
    31    17    18    1
    32    28    29   ar
    33    29    30   ar
    34    30    21   ar
    35    30    25   ar
    36    17     3    1
    37    15     6    1
    38    12     8   ar
    39    15    19    1
    40    18    20    1
@<TRIPOS>MOLECULE
*****
 36 40 0 0 0
SMALL
GASTEIGER

@<TRIPOS>ATOM
      1 C          49.1820   12.3371  -24.5779 C.2     1  UNL1        0.2496
      2 O          49.6804   11.9457  -25.6685 O.2     1  UNL1       -0.2699
      3 N          49.0557   11.4072  -23.4821 N.am    1  UNL1       -0.2687
      4 C          47.8573   11.3974  -22.6342 C.3     1  UNL1        0.0961
      5 C          48.2276   11.4236  -21.1390 C.3     1  UNL1        0.0399
      6 C          49.6511   10.8643  -20.8171 C.3     1  UNL1        0.0653
      7 C          49.6416   10.1928  -19.3991 C.3     1  UNL1        0.0478
      8 C          49.5962   11.2371  -18.3248 C.ar    1  UNL1        0.0220
      9 C          49.2410   11.1532  -16.9990 C.ar    1  UNL1        0.0923
     10 N          49.5645   12.3308  -16.4067 N.ar    1  UNL1       -0.2534
     11 N          50.1441   13.1337  -17.2954 N.ar    1  UNL1       -0.1651
     12 C          50.1619   12.4674  -18.4622 C.ar    1  UNL1        0.1515
     13 C          50.7542   12.8813  -19.7252 C.2     1  UNL1        0.2650
     14 O          51.3778   13.9700  -19.8332 O.2     1  UNL1       -0.2684
     15 N          50.6278   11.9854  -20.8415 N.am    1  UNL1       -0.3023
     16 C          50.0461    9.7904  -21.8642 C.3     1  UNL1        0.0492
     17 C          50.0585   10.3454  -23.3060 C.3     1  UNL1        0.1217
     18 S          49.7889    8.9990  -24.5126 S.3     1  UNL1       -0.1490
     19 H          51.1669   12.2098  -21.7066 H       1  UNL1        0.1497
     20 H          48.4692    8.7451  -24.0950 H       1  UNL1        0.1038
     21 C          46.4038   16.1679  -26.0551 C.ar    1  UNL1        0.2248
     22 N          46.0480   17.4765  -25.9174 N.ar    1  UNL1       -0.2101
     23 C          46.6124   18.2863  -24.9842 C.ar    1  UNL1        0.1021
     24 C          47.5917   17.7899  -24.1243 C.ar    1  UNL1        0.0209
     25 C          47.9861   16.4506  -24.2316 C.ar    1  UNL1        0.0060
     26 C          48.9708   15.9273  -23.3829 C.ar    1  UNL1        0.0003
     27 C          49.3581   14.5908  -23.4958 C.ar    1  UNL1        0.0045
     28 C          48.7615   13.7515  -24.4502 C.ar    1  UNL1        0.0538
     29 C          47.7859   14.2770  -25.3142 C.ar    1  UNL1        0.0092
     30 C          47.3879   15.6216  -25.2090 C.ar    1  UNL1        0.0534
     31 C          45.5065   15.8437  -28.3434 C.3     1  UNL1        0.2542
     32 O          45.7936   15.3720  -27.0324 O.3     1  UNL1       -0.4561
     33 C          49.3918   12.6570  -14.9770 C.3     1  UNL1        0.0867
     34 C          48.4928   13.9011  -14.8090 C.3     1  UNL1        0.0244
     35 C          48.7295   11.4703  -14.2502 C.3     1  UNL1        0.0244
     36 C          50.7680   12.9476  -14.3511 C.3     1  UNL1        0.0244
@<TRIPOS>BOND
     1    31    32    1
     2    32    21    1
     3    21    22   ar
     4    22    23   ar
     5    23    24   ar
     6    24    25   ar
     7    25    26   ar
     8    26    27   ar
     9    27    28   ar
    10    28     1    1
    11     1     2    2
    12     1     3   am
    13     3     4    1
    14     4     5    1
    15     5     6    1
    16     6     7    1
    17     7     8    1
    18     8     9   ar
    19     9    10   ar
    20    10    33    1
    21    33    34    1
    22    33    35    1
    23    33    36    1
    24    10    11   ar
    25    11    12   ar
    26    12    13    1
    27    13    14    2
    28    13    15   am
    29     6    16    1
    30    16    17    1
    31    17    18    1
    32    28    29   ar
    33    29    30   ar
    34    30    21   ar
    35    30    25   ar
    36    17     3    1
    37    15     6    1
    38    12     8   ar
    39    15    19    1
    40    18    20    1
@<TRIPOS>MOLECULE
*****
 36 40 0 0 0
SMALL
GASTEIGER

@<TRIPOS>ATOM
      1 C          48.9207   10.4821  -20.0938 C.2     1  UNL1        0.2496
      2 O          48.5884    9.2893  -19.8536 O.2     1  UNL1       -0.2699
      3 N          49.5382   10.8054  -21.3570 N.am    1  UNL1       -0.2687
      4 C          50.6585   11.7513  -21.4299 C.3     1  UNL1        0.0961
      5 C          50.4207   12.8203  -22.5133 C.3     1  UNL1        0.0399
      6 C          49.4450   12.3789  -23.6519 C.3     1  UNL1        0.0653
      7 C          49.8613   13.0724  -24.9964 C.3     1  UNL1        0.0478
      8 C          49.4893   14.5243  -24.9744 C.ar    1  UNL1        0.0220
      9 C          49.9318   15.5809  -25.7352 C.ar    1  UNL1        0.0923
     10 N          49.1396   16.6489  -25.4638 N.ar    1  UNL1       -0.2534
     11 N          48.1947   16.2957  -24.5962 N.ar    1  UNL1       -0.1651
     12 C          48.4093   15.0029  -24.2985 C.ar    1  UNL1        0.1515
     13 C          47.6085   14.1297  -23.4539 C.2     1  UNL1        0.2650
     14 O          46.5450   14.5327  -22.9131 O.2     1  UNL1       -0.2684
     15 N          48.0604   12.7764  -23.2830 N.am    1  UNL1       -0.3023
     16 C          49.5238   10.8425  -23.8492 C.3     1  UNL1        0.0492
     17 C          49.1575   10.0613  -22.5676 C.3     1  UNL1        0.1217
     18 S          49.9390    8.4088  -22.5798 S.3     1  UNL1       -0.1490
     19 H          47.4214   12.1098  -22.7962 H       1  UNL1        0.1497
     20 H          51.2505    8.9112  -22.4912 H       1  UNL1        0.1038
     21 C          49.2597   12.1726  -15.4458 C.ar    1  UNL1        0.2248
     22 N          48.9785   13.1430  -14.5309 N.ar    1  UNL1       -0.2101
     23 C          48.2792   14.2620  -14.8534 C.ar    1  UNL1        0.1021
     24 C          47.8205   14.4516  -16.1567 C.ar    1  UNL1        0.0209
     25 C          48.0882   13.4792  -17.1280 C.ar    1  UNL1        0.0060
     26 C          47.6354   13.6426  -18.4440 C.ar    1  UNL1        0.0003
     27 C          47.9069   12.6688  -19.4068 C.ar    1  UNL1        0.0045
     28 C          48.6440   11.5209  -19.0749 C.ar    1  UNL1        0.0538
     29 C          49.0852   11.3454  -17.7523 C.ar    1  UNL1        0.0092
     30 C          48.8178   12.3201  -16.7747 C.ar    1  UNL1        0.0534
     31 C          50.2854   10.7304  -13.7097 C.3     1  UNL1        0.2542
     32 O          49.9841   11.0361  -15.0660 O.3     1  UNL1       -0.4561
     33 C          49.2374   17.9815  -26.0924 C.3     1  UNL1        0.0867
     34 C          48.5506   19.0484  -25.2124 C.3     1  UNL1        0.0244
     35 C          50.7198   18.3665  -26.2646 C.3     1  UNL1        0.0244
     36 C          48.5458   17.9481  -27.4674 C.3     1  UNL1        0.0244
@<TRIPOS>BOND
     1    31    32    1
     2    32    21    1
     3    21    22   ar
     4    22    23   ar
     5    23    24   ar
     6    24    25   ar
     7    25    26   ar
     8    26    27   ar
     9    27    28   ar
    10    28     1    1
    11     1     2    2
    12     1     3   am
    13     3     4    1
    14     4     5    1
    15     5     6    1
    16     6     7    1
    17     7     8    1
    18     8     9   ar
    19     9    10   ar
    20    10    33    1
    21    33    34    1
    22    33    35    1
    23    33    36    1
    24    10    11   ar
    25    11    12   ar
    26    12    13    1
    27    13    14    2
    28    13    15   am
    29     6    16    1
    30    16    17    1
    31    17    18    1
    32    28    29   ar
    33    29    30   ar
    34    30    21   ar
    35    30    25   ar
    36    17     3    1
    37    15     6    1
    38    12     8   ar
    39    15    19    1
    40    18    20    1
@<TRIPOS>MOLECULE
*****
 36 40 0 0 0
SMALL
GASTEIGER

@<TRIPOS>ATOM
      1 C          48.8719   12.3490  -24.7603 C.2     1  UNL1        0.2496
      2 O          49.3677   12.0170  -25.8716 O.2     1  UNL1       -0.2699
      3 N          48.8830   11.4055  -23.6689 N.am    1  UNL1       -0.2687
      4 C          47.7240   11.2672  -22.7784 C.3     1  UNL1        0.0961
      5 C          48.1444   11.3241  -21.2974 C.3     1  UNL1        0.0399
      6 C          49.6291   10.9138  -21.0321 C.3     1  UNL1        0.0653
      7 C          49.7413   10.2378  -19.6206 C.3     1  UNL1        0.0478
      8 C          49.6277   11.2663  -18.5362 C.ar    1  UNL1        0.0220
      9 C          49.3321   11.1393  -17.1992 C.ar    1  UNL1        0.0923
     10 N          49.5536   12.3410  -16.6086 N.ar    1  UNL1       -0.2534
     11 N          50.0139   13.2042  -17.5104 N.ar    1  UNL1       -0.1651
     12 C          50.0576   12.5493  -18.6830 C.ar    1  UNL1        0.1515
     13 C          50.5570   13.0288  -19.9629 C.2     1  UNL1        0.2650
     14 O          51.0602   14.1768  -20.0837 O.2     1  UNL1       -0.2684
     15 N          50.4830   12.1302  -21.0817 N.am    1  UNL1       -0.3023
     16 C          50.0942    9.8920  -22.1022 C.3     1  UNL1        0.0492
     17 C          49.9960   10.4525  -23.5385 C.3     1  UNL1        0.1217
     18 S          49.8229    9.0916  -24.7465 S.3     1  UNL1       -0.1490
     19 H          50.9638   12.4138  -21.9638 H       1  UNL1        0.1497
     20 H          48.5528    8.7001  -24.2838 H       1  UNL1        0.1038
     21 C          49.0654   17.2242  -25.6386 C.ar    1  UNL1        0.2248
     22 N          48.5296   18.4657  -25.4667 N.ar    1  UNL1       -0.2101
     23 C          47.4036   18.6739  -24.7361 C.ar    1  UNL1        0.1021
     24 C          46.7522   17.6004  -24.1294 C.ar    1  UNL1        0.0209
     25 C          47.2689   16.3079  -24.2814 C.ar    1  UNL1        0.0060
     26 C          46.6365   15.2119  -23.6791 C.ar    1  UNL1        0.0003
     27 C          47.1577   13.9263  -23.8357 C.ar    1  UNL1        0.0045
     28 C          48.3124   13.7116  -24.6050 C.ar    1  UNL1        0.0538
     29 C          48.9589   14.8101  -25.1965 C.ar    1  UNL1        0.0092
     30 C          48.4424   16.1092  -25.0456 C.ar    1  UNL1        0.0534
     31 C          51.3478   17.9312  -26.2997 C.3     1  UNL1        0.2542
     32 O          50.2285   17.0591  -26.4008 O.3     1  UNL1       -0.4561
     33 C          49.4009   12.6404  -15.1707 C.3     1  UNL1        0.0867
     34 C          48.5053   13.8816  -14.9670 C.3     1  UNL1        0.0244
     35 C          48.7478   11.4405  -14.4573 C.3     1  UNL1        0.0244
     36 C          50.7858   12.9184  -14.5585 C.3     1  UNL1        0.0244
@<TRIPOS>BOND
     1    31    32    1
     2    32    21    1
     3    21    22   ar
     4    22    23   ar
     5    23    24   ar
     6    24    25   ar
     7    25    26   ar
     8    26    27   ar
     9    27    28   ar
    10    28     1    1
    11     1     2    2
    12     1     3   am
    13     3     4    1
    14     4     5    1
    15     5     6    1
    16     6     7    1
    17     7     8    1
    18     8     9   ar
    19     9    10   ar
    20    10    33    1
    21    33    34    1
    22    33    35    1
    23    33    36    1
    24    10    11   ar
    25    11    12   ar
    26    12    13    1
    27    13    14    2
    28    13    15   am
    29     6    16    1
    30    16    17    1
    31    17    18    1
    32    28    29   ar
    33    29    30   ar
    34    30    21   ar
    35    30    25   ar
    36    17     3    1
    37    15     6    1
    38    12     8   ar
    39    15    19    1
    40    18    20    1
@<TRIPOS>MOLECULE
*****
 36 40 0 0 0
SMALL
GASTEIGER

@<TRIPOS>ATOM
      1 C          50.1861    9.7724  -24.1019 C.2     1  UNL1        0.2496
      2 O          50.5058    8.8168  -23.3432 O.2     1  UNL1       -0.2699
      3 N          49.0753   10.6207  -23.7442 N.am    1  UNL1       -0.2687
      4 C          48.1216   11.0844  -24.7594 C.3     1  UNL1        0.0961
      5 C          47.9021   12.6066  -24.6692 C.3     1  UNL1        0.0399
      6 C          48.1989   13.2189  -23.2620 C.3     1  UNL1        0.0653
      7 C          47.2540   14.4470  -23.0155 C.3     1  UNL1        0.0478
      8 C          47.6961   15.6215  -23.8350 C.ar    1  UNL1        0.0220
      9 C          47.0267   16.7618  -24.2127 C.ar    1  UNL1        0.0923
     10 N          47.9282   17.6059  -24.7755 N.ar    1  UNL1       -0.2534
     11 N          49.1408   17.0600  -24.7298 N.ar    1  UNL1       -0.1651
     12 C          48.9980   15.8522  -24.1582 C.ar    1  UNL1        0.1515
     13 C          50.0356   14.8921  -23.8135 C.2     1  UNL1        0.2650
     14 O          51.2543   15.1437  -24.0066 O.2     1  UNL1       -0.2684
     15 N          49.6200   13.6540  -23.2142 N.am    1  UNL1       -0.3023
     16 C          47.9272   12.1634  -22.1585 C.3     1  UNL1        0.0492
     17 C          48.7923   10.8945  -22.3268 C.3     1  UNL1        0.1217
     18 S          47.9794    9.4568  -21.5434 S.3     1  UNL1       -0.1490
     19 H          50.3627   13.0240  -22.8385 H       1  UNL1        0.1497
     20 H          46.9008    9.4396  -22.4470 H       1  UNL1        0.1038
     21 C          51.2458    8.7174  -28.8285 C.ar    1  UNL1        0.2248
     22 N          52.0025    8.9516  -29.9378 N.ar    1  UNL1       -0.2101
     23 C          52.9925    9.8815  -29.9563 C.ar    1  UNL1        0.1021
     24 C          53.2671   10.6369  -28.8166 C.ar    1  UNL1        0.0209
     25 C          52.5129   10.4284  -27.6555 C.ar    1  UNL1        0.0060
     26 C          52.7706   11.1708  -26.4952 C.ar    1  UNL1        0.0003
     27 C          52.0139   10.9574  -25.3416 C.ar    1  UNL1        0.0045
     28 C          50.9802   10.0072  -25.3299 C.ar    1  UNL1        0.0538
     29 C          50.7300    9.2490  -26.4863 C.ar    1  UNL1        0.0092
     30 C          51.4857    9.4561  -27.6539 C.ar    1  UNL1        0.0534
     31 C          49.3602    7.5783  -29.9657 C.3     1  UNL1        0.2542
     32 O          50.2358    7.7478  -28.8575 O.3     1  UNL1       -0.4561
     33 C          47.6440   18.9630  -25.2833 C.3     1  UNL1        0.0867
     34 C          47.8816   20.0162  -24.1795 C.3     1  UNL1        0.0244
     35 C          48.5739   19.2778  -26.4714 C.3     1  UNL1        0.0244
     36 C          46.1753   19.0394  -25.7381 C.3     1  UNL1        0.0244
@<TRIPOS>BOND
     1    31    32    1
     2    32    21    1
     3    21    22   ar
     4    22    23   ar
     5    23    24   ar
     6    24    25   ar
     7    25    26   ar
     8    26    27   ar
     9    27    28   ar
    10    28     1    1
    11     1     2    2
    12     1     3   am
    13     3     4    1
    14     4     5    1
    15     5     6    1
    16     6     7    1
    17     7     8    1
    18     8     9   ar
    19     9    10   ar
    20    10    33    1
    21    33    34    1
    22    33    35    1
    23    33    36    1
    24    10    11   ar
    25    11    12   ar
    26    12    13    1
    27    13    14    2
    28    13    15   am
    29     6    16    1
    30    16    17    1
    31    17    18    1
    32    28    29   ar
    33    29    30   ar
    34    30    21   ar
    35    30    25   ar
    36    17     3    1
    37    15     6    1
    38    12     8   ar
    39    15    19    1
    40    18    20    1
