@<TRIPOS>MOLECULE
*****
 44 50 0 0 0
SMALL
GASTEIGER

@<TRIPOS>ATOM
      1 C         -27.6164   51.1147   -9.0097 C.3     1  UNL1        0.1158
      2 N         -27.9432   52.0545   -9.9311 N.3     1  UNL1       -0.2851
      3 C         -28.8617   51.4400  -10.6882 C.3     1  UNL1        0.0910
      4 C         -29.5098   51.9647  -11.7945 C.3     1  UNL1        0.1018
      5 C         -30.4173   51.1337  -12.4639 C.3     1  UNL1        0.3136
      6 N         -30.6480   49.8441  -12.0375 N.am    1  UNL1       -0.1293
      7 C         -29.9881   49.3384  -10.9361 C.2     1  UNL1        0.4047
      8 O         -30.1891   48.1515  -10.5674 O.2     1  UNL1       -0.2174
      9 C         -29.0861   50.1711  -10.2478 C.3     1  UNL1        0.2038
     10 N         -28.3110   49.9408   -9.1579 N.3     1  UNL1       -0.2473
     11 H         -27.1299   52.3194  -10.4867 H       1  UNL1        0.1244
     12 C         -28.2049   48.6951   -8.3668 C.3     1  UNL1        0.0817
     13 C         -26.7396   48.3107   -8.0624 C.3     1  UNL1        0.0252
     14 C         -26.6629   47.9964   -6.5544 C.3     1  UNL1        0.0278
     15 C         -27.9972   48.3848   -6.0336 C.ar    1  UNL1       -0.0248
     16 C         -28.4255   48.3141   -4.7067 C.ar    1  UNL1       -0.0045
     17 C         -29.7532   48.6723   -4.3948 C.ar    1  UNL1       -0.0002
     18 C         -30.6237   49.0773   -5.4324 C.ar    1  UNL1       -0.0003
     19 C         -30.1703   49.1359   -6.7582 C.ar    1  UNL1       -0.0033
     20 C         -28.8421   48.8026   -7.0306 C.ar    1  UNL1       -0.0117
     21 C         -30.2482   48.5516   -3.0012 C.ar    1  UNL1        0.0035
     22 C         -30.8642   49.6716   -2.4172 C.ar    1  UNL1        0.0001
     23 C         -31.2829   49.6410   -1.0888 C.ar    1  UNL1        0.0005
     24 C         -31.0962   48.4930   -0.3236 C.ar    1  UNL1        0.0068
     25 C         -30.4973   47.3592   -0.8806 C.ar    1  UNL1        0.0375
     26 BR        -30.3617   45.7992    0.2315 Br      1  UNL1       -0.0489
     27 C         -30.0703   47.3716   -2.2294 C.ar    1  UNL1        0.0433
     28 C         -29.4910   46.1500   -2.8316 C.ar    1  UNL1        0.1810
     29 N         -28.2549   45.6806   -2.5782 N.ar    1  UNL1       -0.1083
     30 N         -28.1467   44.5856   -3.3177 N.ar    1  UNL1       -0.0229
     31 N         -29.2658   44.3866   -3.9977 N.ar    1  UNL1       -0.0464
     32 N         -30.1185   45.3532   -3.7113 N.ar    1  UNL1       -0.2388
     33 H         -31.0847   45.4436   -4.0961 H       1  UNL1        0.1923
     34 C         -27.2097   52.0386   -6.7295 C.3     1  UNL1        0.0029
     35 C         -26.5760   51.4049   -7.9617 C.3     1  UNL1        0.0326
     36 C         -31.5839   49.0005  -12.8016 C.3     1  UNL1        0.3404
     37 C         -31.0912   48.8125  -14.2215 C.ar    1  UNL1        0.0640
     38 C         -31.4086   49.7945  -15.1774 C.ar    1  UNL1        0.0031
     39 C         -30.9612   49.6776  -16.4950 C.ar    1  UNL1       -0.0001
     40 C         -30.1924   48.5787  -16.8778 C.ar    1  UNL1        0.0007
     41 C         -29.8709   47.5911  -15.9450 C.ar    1  UNL1        0.0102
     42 C         -30.3137   47.6958  -14.6184 C.ar    1  UNL1        0.0710
     43 C         -29.9643   46.6414  -13.6970 C.1     1  UNL1        0.1003
     44 N         -29.6850   45.7961  -12.9575 N.1     1  UNL1       -0.1908
@<TRIPOS>BOND
     1    34    35    1
     2    35     1    1
     3     1     2    1
     4     2     3    1
     5     3     4    1
     6     4     5    1
     7     5     6    1
     8     6    36    1
     9    36    37    1
    10    37    38   ar
    11    38    39   ar
    12    39    40   ar
    13    40    41   ar
    14    41    42   ar
    15    42    43    1
    16    43    44    3
    17     6     7    1
    18     7     8    2
    19     7     9    1
    20     9    10    1
    21    10    12    1
    22    12    13    1
    23    13    14    1
    24    14    15    1
    25    15    16   ar
    26    16    17   ar
    27    17    21    1
    28    21    22   ar
    29    22    23   ar
    30    23    24   ar
    31    24    25   ar
    32    25    26    1
    33    25    27   ar
    34    27    28    1
    35    28    29   ar
    36    29    30   ar
    37    30    31   ar
    38    31    32   ar
    39    17    18   ar
    40    18    19   ar
    41    19    20   ar
    42    10     1    1
    43    20    12    1
    44     9     3    1
    45    20    15   ar
    46    42    37   ar
    47    27    21   ar
    48    32    28   ar
    49    32    33    1
    50     2    11    1
@<TRIPOS>MOLECULE
*****
 44 50 0 0 0
SMALL
GASTEIGER

@<TRIPOS>ATOM
      1 C         -27.2808   51.2766   -9.6027 C.3     1  UNL1        0.1158
      2 N         -26.7808   51.5026  -10.8429 N.3     1  UNL1       -0.2851
      3 C         -25.4555   51.5028  -10.6473 C.3     1  UNL1        0.0910
      4 C         -24.4765   51.7125  -11.6047 C.3     1  UNL1        0.1018
      5 C         -23.1430   51.7017  -11.1758 C.3     1  UNL1        0.3136
      6 N         -22.8241   51.4958   -9.8515 N.am    1  UNL1       -0.1293
      7 C         -23.8146   51.2940   -8.9122 C.2     1  UNL1        0.4047
      8 O         -23.5144   51.1288   -7.7008 O.2     1  UNL1       -0.2174
      9 C         -25.1567   51.2876   -9.3364 C.3     1  UNL1        0.2038
     10 N         -26.3118   51.1210   -8.6440 N.3     1  UNL1       -0.2473
     11 H         -27.0965   52.4022  -11.2055 H       1  UNL1        0.1244
     12 C         -26.4739   50.8900   -7.1916 C.3     1  UNL1        0.0817
     13 C         -27.2053   52.0536   -6.4855 C.3     1  UNL1        0.0252
     14 C         -28.3099   51.4243   -5.6124 C.3     1  UNL1        0.0278
     15 C         -28.2951   49.9881   -5.9861 C.ar    1  UNL1       -0.0248
     16 C         -29.1328   48.9894   -5.4863 C.ar    1  UNL1       -0.0045
     17 C         -28.9420   47.6585   -5.9110 C.ar    1  UNL1       -0.0002
     18 C         -27.8984   47.3632   -6.8178 C.ar    1  UNL1       -0.0003
     19 C         -27.0676   48.3840   -7.3019 C.ar    1  UNL1       -0.0033
     20 C         -27.3003   49.6960   -6.8847 C.ar    1  UNL1       -0.0117
     21 C         -29.7827   46.5714   -5.3514 C.ar    1  UNL1        0.0035
     22 C         -30.6138   45.8565   -6.2306 C.ar    1  UNL1        0.0001
     23 C         -31.4784   44.8747   -5.7518 C.ar    1  UNL1        0.0005
     24 C         -31.5258   44.5891   -4.3899 C.ar    1  UNL1        0.0068
     25 C         -30.7024   45.2753   -3.4924 C.ar    1  UNL1        0.0375
     26 BR        -30.7815   44.7497   -1.6469 Br      1  UNL1       -0.0489
     27 C         -29.8152   46.2722   -3.9623 C.ar    1  UNL1        0.0433
     28 C         -28.9034   46.9541   -3.0168 C.ar    1  UNL1        0.1810
     29 N         -27.5761   46.7412   -2.9407 N.ar    1  UNL1       -0.1083
     30 N         -27.1558   47.5447   -1.9736 N.ar    1  UNL1       -0.0229
     31 N         -28.1771   48.2243   -1.4743 N.ar    1  UNL1       -0.0464
     32 N         -29.2791   47.8694   -2.1092 N.ar    1  UNL1       -0.2388
     33 H         -30.2332   48.2528   -1.9293 H       1  UNL1        0.1923
     34 C         -29.3639   49.9626   -9.9931 C.3     1  UNL1        0.0029
     35 C         -28.7682   51.2235   -9.3792 C.3     1  UNL1        0.0326
     36 C         -21.4072   51.5329   -9.4484 C.3     1  UNL1        0.3404
     37 C         -20.9125   52.9628   -9.3777 C.ar    1  UNL1        0.0640
     38 C         -21.4763   53.9117  -10.2497 C.ar    1  UNL1        0.0031
     39 C         -21.0689   55.2467  -10.2101 C.ar    1  UNL1       -0.0001
     40 C         -20.0924   55.6534   -9.3012 C.ar    1  UNL1        0.0007
     41 C         -19.5174   54.7258   -8.4307 C.ar    1  UNL1        0.0102
     42 C         -19.9171   53.3818   -8.4598 C.ar    1  UNL1        0.0710
     43 C         -19.2823   52.4611   -7.5475 C.1     1  UNL1        0.1003
     44 N         -18.7741   51.7220   -6.8162 N.1     1  UNL1       -0.1908
@<TRIPOS>BOND
     1    34    35    1
     2    35     1    1
     3     1     2    1
     4     2     3    1
     5     3     4    1
     6     4     5    1
     7     5     6    1
     8     6    36    1
     9    36    37    1
    10    37    38   ar
    11    38    39   ar
    12    39    40   ar
    13    40    41   ar
    14    41    42   ar
    15    42    43    1
    16    43    44    3
    17     6     7    1
    18     7     8    2
    19     7     9    1
    20     9    10    1
    21    10    12    1
    22    12    13    1
    23    13    14    1
    24    14    15    1
    25    15    16   ar
    26    16    17   ar
    27    17    21    1
    28    21    22   ar
    29    22    23   ar
    30    23    24   ar
    31    24    25   ar
    32    25    26    1
    33    25    27   ar
    34    27    28    1
    35    28    29   ar
    36    29    30   ar
    37    30    31   ar
    38    31    32   ar
    39    17    18   ar
    40    18    19   ar
    41    19    20   ar
    42    10     1    1
    43    20    12    1
    44     9     3    1
    45    20    15   ar
    46    42    37   ar
    47    27    21   ar
    48    32    28   ar
    49    32    33    1
    50     2    11    1
@<TRIPOS>MOLECULE
*****
 44 50 0 0 0
SMALL
GASTEIGER

@<TRIPOS>ATOM
      1 C         -31.3306   45.8369   -8.6779 C.3     1  UNL1        0.1158
      2 N         -31.5840   45.1569   -7.5323 N.3     1  UNL1       -0.2851
      3 C         -31.3242   46.0565   -6.5742 C.3     1  UNL1        0.0910
      4 C         -31.4090   45.8578   -5.2058 C.3     1  UNL1        0.1018
      5 C         -31.0596   46.9310   -4.3760 C.3     1  UNL1        0.3136
      6 N         -30.6433   48.1326   -4.9057 N.am    1  UNL1       -0.1293
      7 C         -30.5606   48.3087   -6.2719 C.2     1  UNL1        0.4047
      8 O         -30.1579   49.4032   -6.7462 O.2     1  UNL1       -0.2174
      9 C         -30.9245   47.2410   -7.1138 C.3     1  UNL1        0.2038
     10 N         -30.9364   47.1339   -8.4666 N.3     1  UNL1       -0.2473
     11 H         -30.9723   44.3453   -7.4466 H       1  UNL1        0.1244
     12 C         -30.5530   48.1597   -9.4615 C.3     1  UNL1        0.0817
     13 C         -31.3995   49.4466   -9.3406 C.3     1  UNL1        0.0252
     14 C         -30.4138   50.6327   -9.3385 C.3     1  UNL1        0.0278
     15 C         -29.0762   49.9939   -9.2672 C.ar    1  UNL1       -0.0248
     16 C         -27.8435   50.6474   -9.2164 C.ar    1  UNL1       -0.0045
     17 C         -26.6605   49.8800   -9.2096 C.ar    1  UNL1       -0.0002
     18 C         -26.7484   48.4704   -9.2717 C.ar    1  UNL1       -0.0003
     19 C         -27.9990   47.8381   -9.3264 C.ar    1  UNL1       -0.0033
     20 C         -29.1525   48.6245   -9.3025 C.ar    1  UNL1       -0.0117
     21 C         -25.3378   50.5524   -9.2130 C.ar    1  UNL1        0.0035
     22 C         -24.5362   50.4443   -8.0638 C.ar    1  UNL1        0.0001
     23 C         -23.3174   51.1141   -7.9813 C.ar    1  UNL1        0.0005
     24 C         -22.8783   51.8994   -9.0438 C.ar    1  UNL1        0.0068
     25 C         -23.6484   52.0165  -10.2047 C.ar    1  UNL1        0.0375
     26 BR        -22.9165   53.0543  -11.6455 Br      1  UNL1       -0.0489
     27 C         -24.8865   51.3394  -10.3070 C.ar    1  UNL1        0.0433
     28 C         -25.6698   51.4186  -11.5602 C.ar    1  UNL1        0.1810
     29 N         -25.1642   51.2374  -12.7948 N.ar    1  UNL1       -0.1083
     30 N         -26.1950   51.3969  -13.6132 N.ar    1  UNL1       -0.0229
     31 N         -27.2889   51.6644  -12.9160 N.ar    1  UNL1       -0.0464
     32 N         -26.9837   51.6854  -11.6315 N.ar    1  UNL1       -0.2388
     33 H         -27.6545   51.8617  -10.8513 H       1  UNL1        0.1923
     34 C         -30.1887   45.2444  -10.8141 C.3     1  UNL1        0.0029
     35 C         -31.4828   45.1613  -10.0142 C.3     1  UNL1        0.0326
     36 C         -30.2507   49.2156   -3.9868 C.3     1  UNL1        0.3404
     37 C         -29.0765   49.9897   -4.5492 C.ar    1  UNL1        0.0640
     38 C         -27.8093   49.3786   -4.5515 C.ar    1  UNL1        0.0031
     39 C         -26.6990   50.0425   -5.0771 C.ar    1  UNL1       -0.0001
     40 C         -26.8367   51.3255   -5.6061 C.ar    1  UNL1        0.0007
     41 C         -28.0849   51.9507   -5.6086 C.ar    1  UNL1        0.0102
     42 C         -29.2085   51.2956   -5.0838 C.ar    1  UNL1        0.0710
     43 C         -30.4730   51.9911   -5.0991 C.1     1  UNL1        0.1003
     44 N         -31.4867   52.5494   -5.1123 N.1     1  UNL1       -0.1908
@<TRIPOS>BOND
     1    34    35    1
     2    35     1    1
     3     1     2    1
     4     2     3    1
     5     3     4    1
     6     4     5    1
     7     5     6    1
     8     6    36    1
     9    36    37    1
    10    37    38   ar
    11    38    39   ar
    12    39    40   ar
    13    40    41   ar
    14    41    42   ar
    15    42    43    1
    16    43    44    3
    17     6     7    1
    18     7     8    2
    19     7     9    1
    20     9    10    1
    21    10    12    1
    22    12    13    1
    23    13    14    1
    24    14    15    1
    25    15    16   ar
    26    16    17   ar
    27    17    21    1
    28    21    22   ar
    29    22    23   ar
    30    23    24   ar
    31    24    25   ar
    32    25    26    1
    33    25    27   ar
    34    27    28    1
    35    28    29   ar
    36    29    30   ar
    37    30    31   ar
    38    31    32   ar
    39    17    18   ar
    40    18    19   ar
    41    19    20   ar
    42    10     1    1
    43    20    12    1
    44     9     3    1
    45    20    15   ar
    46    42    37   ar
    47    27    21   ar
    48    32    28   ar
    49    32    33    1
    50     2    11    1
@<TRIPOS>MOLECULE
*****
 44 50 0 0 0
SMALL
GASTEIGER

@<TRIPOS>ATOM
      1 C         -25.6755   50.8112  -10.4590 C.3     1  UNL1        0.1158
      2 N         -25.1086   51.2736  -11.6009 N.3     1  UNL1       -0.2851
      3 C         -23.9323   51.7628  -11.1867 C.3     1  UNL1        0.0910
      4 C         -22.9677   52.3759  -11.9696 C.3     1  UNL1        0.1018
      5 C         -21.8168   52.8458  -11.3239 C.3     1  UNL1        0.3136
      6 N         -21.6586   52.7060   -9.9625 N.am    1  UNL1       -0.1293
      7 C         -22.6338   52.0969   -9.1994 C.2     1  UNL1        0.4047
      8 O         -22.4901   51.9936   -7.9530 O.2     1  UNL1       -0.2174
      9 C         -23.7867   51.6077   -9.8417 C.3     1  UNL1        0.2038
     10 N         -24.8860   50.9820   -9.3501 N.3     1  UNL1       -0.2473
     11 H         -25.6806   52.0056  -12.0219 H       1  UNL1        0.1244
     12 C         -25.1768   50.6311   -7.9425 C.3     1  UNL1        0.0817
     13 C         -25.9768   51.7324   -7.2114 C.3     1  UNL1        0.0252
     14 C         -27.1514   51.0334   -6.4969 C.3     1  UNL1        0.0278
     15 C         -27.0931   49.6333   -6.9855 C.ar    1  UNL1       -0.0248
     16 C         -27.9657   48.5971   -6.6481 C.ar    1  UNL1       -0.0045
     17 C         -27.7282   47.3059   -7.1628 C.ar    1  UNL1       -0.0002
     18 C         -26.6051   47.0864   -7.9928 C.ar    1  UNL1       -0.0003
     19 C         -25.7410   48.1434   -8.3135 C.ar    1  UNL1       -0.0033
     20 C         -26.0193   49.4162   -7.8116 C.ar    1  UNL1       -0.0117
     21 C         -28.6086   46.1767   -6.7735 C.ar    1  UNL1        0.0035
     22 C         -29.3160   45.5077   -7.7869 C.ar    1  UNL1        0.0001
     23 C         -30.2126   44.4883   -7.4743 C.ar    1  UNL1        0.0005
     24 C         -30.4154   44.1186   -6.1474 C.ar    1  UNL1        0.0068
     25 C         -29.7171   44.7577   -5.1186 C.ar    1  UNL1        0.0375
     26 BR        -30.0042   44.1183   -3.3304 Br      1  UNL1       -0.0489
     27 C         -28.7996   45.7920   -5.4187 C.ar    1  UNL1        0.0433
     28 C         -28.0192   46.4248   -4.3320 C.ar    1  UNL1        0.1810
     29 N         -26.7398   46.1307   -4.0334 N.ar    1  UNL1       -0.1083
     30 N         -26.4388   46.9156   -3.0082 N.ar    1  UNL1       -0.0229
     31 N         -27.4850   47.6618   -2.6875 N.ar    1  UNL1       -0.0464
     32 N         -28.4843   47.3701   -3.4998 N.ar    1  UNL1       -0.2388
     33 H         -29.4292   47.8136   -3.4829 H       1  UNL1        0.1923
     34 C         -28.1280   51.2625  -10.4627 C.3     1  UNL1        0.0029
     35 C         -27.0461   50.1899  -10.4864 C.3     1  UNL1        0.0326
     36 C         -20.4459   53.2529   -9.3289 C.3     1  UNL1        0.3404
     37 C         -19.2034   52.6539   -9.9548 C.ar    1  UNL1        0.0640
     38 C         -19.0173   52.7932  -11.3422 C.ar    1  UNL1        0.0031
     39 C         -17.8788   52.2764  -11.9640 C.ar    1  UNL1       -0.0001
     40 C         -16.9111   51.6120  -11.2109 C.ar    1  UNL1        0.0007
     41 C         -17.0798   51.4593   -9.8336 C.ar    1  UNL1        0.0102
     42 C         -18.2185   51.9733   -9.1962 C.ar    1  UNL1        0.0710
     43 C         -18.3505   51.7774   -7.7724 C.1     1  UNL1        0.1003
     44 N         -18.4570   51.6213   -6.6306 N.1     1  UNL1       -0.1908
@<TRIPOS>BOND
     1    34    35    1
     2    35     1    1
     3     1     2    1
     4     2     3    1
     5     3     4    1
     6     4     5    1
     7     5     6    1
     8     6    36    1
     9    36    37    1
    10    37    38   ar
    11    38    39   ar
    12    39    40   ar
    13    40    41   ar
    14    41    42   ar
    15    42    43    1
    16    43    44    3
    17     6     7    1
    18     7     8    2
    19     7     9    1
    20     9    10    1
    21    10    12    1
    22    12    13    1
    23    13    14    1
    24    14    15    1
    25    15    16   ar
    26    16    17   ar
    27    17    21    1
    28    21    22   ar
    29    22    23   ar
    30    23    24   ar
    31    24    25   ar
    32    25    26    1
    33    25    27   ar
    34    27    28    1
    35    28    29   ar
    36    29    30   ar
    37    30    31   ar
    38    31    32   ar
    39    17    18   ar
    40    18    19   ar
    41    19    20   ar
    42    10     1    1
    43    20    12    1
    44     9     3    1
    45    20    15   ar
    46    42    37   ar
    47    27    21   ar
    48    32    28   ar
    49    32    33    1
    50     2    11    1
@<TRIPOS>MOLECULE
*****
 44 50 0 0 0
SMALL
GASTEIGER

@<TRIPOS>ATOM
      1 C         -25.0031   51.2491   -9.2748 C.3     1  UNL1        0.1158
      2 N         -25.1321   51.3670  -10.6195 N.3     1  UNL1       -0.2851
      3 C         -26.4524   51.2526  -10.8154 C.3     1  UNL1        0.0910
      4 C         -27.1158   51.2840  -12.0311 C.3     1  UNL1        0.1018
      5 C         -28.5060   51.1128  -12.0112 C.3     1  UNL1        0.3136
      6 N         -29.1808   50.9156  -10.8265 N.am    1  UNL1       -0.1293
      7 C         -28.5007   50.8823   -9.6262 C.2     1  UNL1        0.4047
      8 O         -29.1234   50.6794   -8.5510 O.2     1  UNL1       -0.2174
      9 C         -27.1057   51.0690   -9.6348 C.3     1  UNL1        0.2038
     10 N         -26.1995   51.0802   -8.6248 N.3     1  UNL1       -0.2473
     11 H         -24.6258   50.6242  -11.1014 H       1  UNL1        0.1244
     12 C         -26.4499   50.8913   -7.1789 C.3     1  UNL1        0.0817
     13 C         -27.2527   52.0576   -6.5603 C.3     1  UNL1        0.0252
     14 C         -28.3965   51.4283   -5.7391 C.3     1  UNL1        0.0278
     15 C         -28.3236   49.9818   -6.0629 C.ar    1  UNL1       -0.0248
     16 C         -29.1682   48.9783   -5.5848 C.ar    1  UNL1       -0.0045
     17 C         -28.9189   47.6399   -5.9518 C.ar    1  UNL1       -0.0002
     18 C         -27.8120   47.3428   -6.7794 C.ar    1  UNL1       -0.0003
     19 C         -26.9759   48.3687   -7.2432 C.ar    1  UNL1       -0.0033
     20 C         -27.2660   49.6869   -6.8858 C.ar    1  UNL1       -0.0117
     21 C         -29.7683   46.5499   -5.4111 C.ar    1  UNL1        0.0035
     22 C         -30.5878   45.8418   -6.3065 C.ar    1  UNL1        0.0001
     23 C         -31.4599   44.8577   -5.8462 C.ar    1  UNL1        0.0005
     24 C         -31.5263   44.5630   -4.4871 C.ar    1  UNL1        0.0068
     25 C         -30.7147   45.2423   -3.5738 C.ar    1  UNL1        0.0375
     26 BR        -30.8197   44.7043   -1.7330 Br      1  UNL1       -0.0489
     27 C         -29.8201   46.2414   -4.0247 C.ar    1  UNL1        0.0433
     28 C         -28.9208   46.9159   -3.0621 C.ar    1  UNL1        0.1810
     29 N         -29.3069   47.8561   -2.1791 N.ar    1  UNL1       -0.1083
     30 N         -28.2015   48.1860   -1.5256 N.ar    1  UNL1       -0.0229
     31 N         -27.1779   47.4813   -1.9838 N.ar    1  UNL1       -0.0464
     32 N         -27.6036   46.6833   -2.9457 N.ar    1  UNL1       -0.2388
     33 H         -27.0133   46.0075   -3.4792 H       1  UNL1        0.1923
     34 C         -22.6525   52.0449   -9.5199 C.3     1  UNL1        0.0029
     35 C         -23.6429   51.3009   -8.6326 C.3     1  UNL1        0.0326
     36 C         -30.6383   50.7023  -10.8667 C.3     1  UNL1        0.3404
     37 C         -30.9547   49.2552  -11.1831 C.ar    1  UNL1        0.0640
     38 C         -30.9369   48.3194  -10.1329 C.ar    1  UNL1        0.0031
     39 C         -31.2411   46.9772  -10.3692 C.ar    1  UNL1       -0.0001
     40 C         -31.5655   46.5495  -11.6564 C.ar    1  UNL1        0.0007
     41 C         -31.5839   47.4619  -12.7127 C.ar    1  UNL1        0.0102
     42 C         -31.2804   48.8129  -12.4897 C.ar    1  UNL1        0.0710
     43 C         -31.3015   49.7124  -13.6181 C.1     1  UNL1        0.1003
     44 N         -31.3179   50.4345  -14.5224 N.1     1  UNL1       -0.1908
@<TRIPOS>BOND
     1    34    35    1
     2    35     1    1
     3     1     2    1
     4     2     3    1
     5     3     4    1
     6     4     5    1
     7     5     6    1
     8     6    36    1
     9    36    37    1
    10    37    38   ar
    11    38    39   ar
    12    39    40   ar
    13    40    41   ar
    14    41    42   ar
    15    42    43    1
    16    43    44    3
    17     6     7    1
    18     7     8    2
    19     7     9    1
    20     9    10    1
    21    10    12    1
    22    12    13    1
    23    13    14    1
    24    14    15    1
    25    15    16   ar
    26    16    17   ar
    27    17    21    1
    28    21    22   ar
    29    22    23   ar
    30    23    24   ar
    31    24    25   ar
    32    25    26    1
    33    25    27   ar
    34    27    28    1
    35    28    29   ar
    36    29    30   ar
    37    30    31   ar
    38    31    32   ar
    39    17    18   ar
    40    18    19   ar
    41    19    20   ar
    42    10     1    1
    43    20    12    1
    44     9     3    1
    45    20    15   ar
    46    42    37   ar
    47    27    21   ar
    48    32    28   ar
    49    32    33    1
    50     2    11    1
@<TRIPOS>MOLECULE
*****
 44 50 0 0 0
SMALL
GASTEIGER

@<TRIPOS>ATOM
      1 C         -25.1581   51.2807  -10.5006 C.3     1  UNL1        0.1158
      2 N         -25.6530   51.3237  -11.7624 N.3     1  UNL1       -0.2851
      3 C         -26.9752   51.2087  -11.5807 C.3     1  UNL1        0.0910
      4 C         -27.9478   51.1767  -12.5667 C.3     1  UNL1        0.1018
      5 C         -29.2774   51.0176  -12.1555 C.3     1  UNL1        0.3136
      6 N         -29.5986   50.8927  -10.8216 N.am    1  UNL1       -0.1293
      7 C         -28.6143   50.9218   -9.8549 C.2     1  UNL1        0.4047
      8 O         -28.9154   50.7847   -8.6402 O.2     1  UNL1       -0.2174
      9 C         -27.2770   51.0969  -10.2575 C.3     1  UNL1        0.2038
     10 N         -26.1280   51.1580   -9.5381 N.3     1  UNL1       -0.2473
     11 H         -25.2929   50.5510  -12.3224 H       1  UNL1        0.1244
     12 C         -25.9694   51.0528   -8.0709 C.3     1  UNL1        0.0817
     13 C         -26.7044   52.1817   -7.3140 C.3     1  UNL1        0.0252
     14 C         -27.5180   51.5107   -6.1887 C.3     1  UNL1        0.0278
     15 C         -27.3755   50.0575   -6.4537 C.ar    1  UNL1       -0.0248
     16 C         -27.9512   49.0176   -5.7214 C.ar    1  UNL1       -0.0045
     17 C         -27.6626   47.6848   -6.0800 C.ar    1  UNL1       -0.0002
     18 C         -26.7852   47.4320   -7.1593 C.ar    1  UNL1       -0.0003
     19 C         -26.2163   48.4944   -7.8765 C.ar    1  UNL1       -0.0033
     20 C         -26.5444   49.8025   -7.5152 C.ar    1  UNL1       -0.0117
     21 C         -28.2172   46.5632   -5.2824 C.ar    1  UNL1        0.0035
     22 C         -28.9712   45.5836   -5.9507 C.ar    1  UNL1        0.0001
     23 C         -29.5774   44.5476   -5.2437 C.ar    1  UNL1        0.0005
     24 C         -29.4390   44.4710   -3.8604 C.ar    1  UNL1        0.0068
     25 C         -28.6851   45.4242   -3.1694 C.ar    1  UNL1        0.0375
     26 BR        -28.4850   45.1831   -1.2745 Br      1  UNL1       -0.0489
     27 C         -28.0590   46.4804   -3.8724 C.ar    1  UNL1        0.0433
     28 C         -27.2134   47.4526   -3.1443 C.ar    1  UNL1        0.1810
     29 N         -25.8672   47.4451   -3.1363 N.ar    1  UNL1       -0.1083
     30 N         -25.5240   48.4714   -2.3703 N.ar    1  UNL1       -0.0229
     31 N         -26.6094   49.0861   -1.9249 N.ar    1  UNL1       -0.0464
     32 N         -27.6762   48.4651   -2.3938 N.ar    1  UNL1       -0.2388
     33 H         -28.6668   48.7397   -2.2121 H       1  UNL1        0.1923
     34 C         -23.1750   52.7899  -10.4106 C.3     1  UNL1        0.0029
     35 C         -23.6741   51.3581  -10.2615 C.3     1  UNL1        0.0326
     36 C         -31.0091   50.6887  -10.4472 C.3     1  UNL1        0.3404
     37 C         -31.1240   49.6376   -9.3626 C.ar    1  UNL1        0.0640
     38 C         -31.4461   50.0525   -8.0576 C.ar    1  UNL1        0.0031
     39 C         -31.5834   49.1205   -7.0269 C.ar    1  UNL1       -0.0001
     40 C         -31.3996   47.7620   -7.2832 C.ar    1  UNL1        0.0007
     41 C         -31.0748   47.3308   -8.5705 C.ar    1  UNL1        0.0102
     42 C         -30.9337   48.2560   -9.6151 C.ar    1  UNL1        0.0710
     43 C         -30.5847   47.7591  -10.9244 C.1     1  UNL1        0.1003
     44 N         -30.3056   47.3599  -11.9742 N.1     1  UNL1       -0.1908
@<TRIPOS>BOND
     1    34    35    1
     2    35     1    1
     3     1     2    1
     4     2     3    1
     5     3     4    1
     6     4     5    1
     7     5     6    1
     8     6    36    1
     9    36    37    1
    10    37    38   ar
    11    38    39   ar
    12    39    40   ar
    13    40    41   ar
    14    41    42   ar
    15    42    43    1
    16    43    44    3
    17     6     7    1
    18     7     8    2
    19     7     9    1
    20     9    10    1
    21    10    12    1
    22    12    13    1
    23    13    14    1
    24    14    15    1
    25    15    16   ar
    26    16    17   ar
    27    17    21    1
    28    21    22   ar
    29    22    23   ar
    30    23    24   ar
    31    24    25   ar
    32    25    26    1
    33    25    27   ar
    34    27    28    1
    35    28    29   ar
    36    29    30   ar
    37    30    31   ar
    38    31    32   ar
    39    17    18   ar
    40    18    19   ar
    41    19    20   ar
    42    10     1    1
    43    20    12    1
    44     9     3    1
    45    20    15   ar
    46    42    37   ar
    47    27    21   ar
    48    32    28   ar
    49    32    33    1
    50     2    11    1
@<TRIPOS>MOLECULE
*****
 44 50 0 0 0
SMALL
GASTEIGER

@<TRIPOS>ATOM
      1 C         -27.9251   50.1167   -8.9534 C.3     1  UNL1        0.1158
      2 N         -28.4875   51.0671   -9.7404 N.3     1  UNL1       -0.2851
      3 C         -29.1021   50.3554  -10.6945 C.3     1  UNL1        0.0910
      4 C         -29.8181   50.8553  -11.7699 C.3     1  UNL1        0.1018
      5 C         -30.3560   49.9289  -12.6725 C.3     1  UNL1        0.3136
      6 N         -30.1722   48.5751  -12.4954 N.am    1  UNL1       -0.1293
      7 C         -29.4511   48.0974  -11.4201 C.2     1  UNL1        0.4047
      8 O         -29.2697   46.8596  -11.2789 O.2     1  UNL1       -0.2174
      9 C         -28.9200   49.0201  -10.4994 C.3     1  UNL1        0.2038
     10 N         -28.1810   48.8369   -9.3762 N.3     1  UNL1       -0.2473
     11 H         -27.7753   51.6773  -10.1416 H       1  UNL1        0.1244
     12 C         -27.7170   47.5584   -8.7938 C.3     1  UNL1        0.0817
     13 C         -26.2411   47.6161   -8.3402 C.3     1  UNL1        0.0252
     14 C         -26.1890   47.0407   -6.9103 C.3     1  UNL1        0.0278
     15 C         -27.6144   46.8593   -6.5390 C.ar    1  UNL1       -0.0248
     16 C         -28.1031   46.3821   -5.3214 C.ar    1  UNL1       -0.0045
     17 C         -29.4940   46.2180   -5.1579 C.ar    1  UNL1       -0.0002
     18 C         -30.3590   46.5231   -6.2336 C.ar    1  UNL1       -0.0003
     19 C         -29.8428   46.9969   -7.4483 C.ar    1  UNL1       -0.0033
     20 C         -28.4634   47.1761   -7.5692 C.ar    1  UNL1       -0.0117
     21 C         -30.0334   45.6594   -3.8935 C.ar    1  UNL1        0.0035
     22 C         -30.9885   44.6319   -3.9768 C.ar    1  UNL1        0.0001
     23 C         -31.5837   44.1191   -2.8264 C.ar    1  UNL1        0.0005
     24 C         -31.2339   44.6208   -1.5757 C.ar    1  UNL1        0.0068
     25 C         -30.2783   45.6346   -1.4602 C.ar    1  UNL1        0.0375
     26 BR        -29.8039   46.1993    0.3131 Br      1  UNL1       -0.0489
     27 C         -29.6607   46.1636   -2.6180 C.ar    1  UNL1        0.0433
     28 C         -28.6070   47.1947   -2.4870 C.ar    1  UNL1        0.1810
     29 N         -27.3566   46.9633   -2.0446 N.ar    1  UNL1       -0.1083
     30 N         -26.7558   48.1444   -2.0843 N.ar    1  UNL1       -0.0229
     31 N         -27.5968   49.0648   -2.5314 N.ar    1  UNL1       -0.0464
     32 N         -28.7599   48.4944   -2.7868 N.ar    1  UNL1       -0.2388
     33 H         -29.6049   48.9802   -3.1606 H       1  UNL1        0.1923
     34 C         -27.9641   51.2358   -6.7252 C.3     1  UNL1        0.0029
     35 C         -27.1060   50.5086   -7.7530 C.3     1  UNL1        0.0326
     36 C         -30.7268   47.6464  -13.4960 C.3     1  UNL1        0.3404
     37 C         -30.1895   47.9688  -14.8751 C.ar    1  UNL1        0.0640
     38 C         -29.6301   49.2404  -15.0968 C.ar    1  UNL1        0.0031
     39 C         -29.1030   49.5794  -16.3446 C.ar    1  UNL1       -0.0001
     40 C         -29.1282   48.6555  -17.3890 C.ar    1  UNL1        0.0007
     41 C         -29.6833   47.3902  -17.1903 C.ar    1  UNL1        0.0102
     42 C         -30.2163   47.0364  -15.9421 C.ar    1  UNL1        0.0710
     43 C         -30.7896   45.7204  -15.7931 C.1     1  UNL1        0.1003
     44 N         -31.2500   44.6651  -15.6746 N.1     1  UNL1       -0.1908
@<TRIPOS>BOND
     1    34    35    1
     2    35     1    1
     3     1     2    1
     4     2     3    1
     5     3     4    1
     6     4     5    1
     7     5     6    1
     8     6    36    1
     9    36    37    1
    10    37    38   ar
    11    38    39   ar
    12    39    40   ar
    13    40    41   ar
    14    41    42   ar
    15    42    43    1
    16    43    44    3
    17     6     7    1
    18     7     8    2
    19     7     9    1
    20     9    10    1
    21    10    12    1
    22    12    13    1
    23    13    14    1
    24    14    15    1
    25    15    16   ar
    26    16    17   ar
    27    17    21    1
    28    21    22   ar
    29    22    23   ar
    30    23    24   ar
    31    24    25   ar
    32    25    26    1
    33    25    27   ar
    34    27    28    1
    35    28    29   ar
    36    29    30   ar
    37    30    31   ar
    38    31    32   ar
    39    17    18   ar
    40    18    19   ar
    41    19    20   ar
    42    10     1    1
    43    20    12    1
    44     9     3    1
    45    20    15   ar
    46    42    37   ar
    47    27    21   ar
    48    32    28   ar
    49    32    33    1
    50     2    11    1
