@<TRIPOS>MOLECULE
*****
 52 57 0 0 0
SMALL
GASTEIGER

@<TRIPOS>ATOM
      1 O         -60.6773  -47.5821  -25.0370 O.2     1  UNL1       -0.2701
      2 C         -61.5572  -46.7120  -25.2808 C.2     1  UNL1        0.2483
      3 N         -62.3501  -46.8115  -26.4761 N.am    1  UNL1       -0.2945
      4 H         -63.1534  -46.1577  -26.6020 H       1  UNL1        0.1501
      5 C         -61.6882  -45.5476  -24.3789 C.ar    1  UNL1        0.0808
      6 C         -61.6752  -44.2551  -24.9285 C.ar    1  UNL1        0.0080
      7 C         -61.8983  -43.1381  -24.1211 C.ar    1  UNL1        0.0148
      8 C         -62.1268  -43.2922  -22.7472 C.ar    1  UNL1        0.0502
      9 C         -62.1004  -44.5779  -22.1869 C.ar    1  UNL1        0.0443
     10 C         -61.8763  -45.6992  -22.9916 C.ar    1  UNL1        0.1457
     11 F         -61.8127  -46.9206  -22.4045 F       1  UNL1       -0.2040
     12 N         -62.4114  -42.1474  -21.9259 N.pl3   1  UNL1       -0.3040
     13 C         -61.3837  -41.1113  -21.7614 C.3     1  UNL1        0.1123
     14 C         -61.7699  -40.0546  -20.7130 C.3     1  UNL1        0.1136
     15 N         -63.1841  -39.6340  -20.7941 N.pl3   1  UNL1       -0.2890
     16 C         -64.1831  -40.5109  -21.4407 C.3     1  UNL1        0.1230
     17 C         -63.7408  -41.9766  -21.3334 C.3     1  UNL1        0.1131
     18 C         -63.6326  -38.4502  -20.0819 C.ar    1  UNL1        0.1318
     19 C         -64.7772  -38.4652  -19.2603 C.ar    1  UNL1        0.0343
     20 C         -65.1739  -37.3000  -18.6018 C.ar    1  UNL1        0.0083
     21 C         -64.4548  -36.1094  -18.7733 C.ar    1  UNL1        0.0906
     22 C         -63.3120  -36.1347  -19.5849 C.ar    1  UNL1        0.1041
     23 N         -62.9436  -37.2812  -20.2137 N.ar    1  UNL1       -0.2292
     24 C         -64.8447  -34.8583  -18.0280 C.3     1  UNL1        0.4200
     25 F         -63.7887  -33.9667  -18.0518 F       1  UNL1       -0.1658
     26 F         -65.1578  -35.1519  -16.7121 F       1  UNL1       -0.1658
     27 F         -65.9495  -34.2650  -18.6140 F       1  UNL1       -0.1658
     28 C         -64.4102  -40.1048  -22.9097 C.3     1  UNL1        0.1585
     29 O         -65.7076  -39.6091  -23.0849 O.3     1  UNL1       -0.3802
     30 H         -65.7837  -39.3660  -24.0441 H       1  UNL1        0.2105
     31 C         -61.8584  -47.4980  -27.6752 C.3     1  UNL1        0.1535
     32 C         -62.9697  -47.6178  -28.6851 C.2     1  UNL1        0.2443
     33 O         -63.4067  -48.7635  -28.9800 O.2     1  UNL1       -0.2730
     34 N         -63.5686  -46.4438  -29.2612 N.am    1  UNL1       -0.2825
     35 H         -63.4140  -45.5267  -28.7853 H       1  UNL1        0.1549
     36 C         -64.4531  -46.4666  -30.3943 C.ar    1  UNL1        0.0535
     37 C         -65.0156  -47.6654  -30.8648 C.ar    1  UNL1        0.0353
     38 C         -65.8491  -47.6418  -31.9860 C.ar    1  UNL1        0.1002
     39 N         -66.1013  -46.4687  -32.6247 N.ar    1  UNL1       -0.2422
     40 C         -65.5561  -45.2973  -32.2030 C.ar    1  UNL1        0.1002
     41 C         -64.7163  -45.2767  -31.0870 C.ar    1  UNL1        0.0353
     42 C         -60.6536  -46.7444  -28.2708 C.3     1  UNL1        0.0569
     43 C         -61.0571  -45.3953  -28.7960 C.ar    1  UNL1       -0.0017
     44 C         -61.9835  -44.5302  -28.2217 C.ar    1  UNL1        0.0681
     45 N         -62.1970  -43.4641  -29.0263 N.ar    1  UNL1       -0.3523
     46 C         -61.4248  -43.6547  -30.1101 C.ar    1  UNL1        0.0563
     47 C         -61.3416  -42.8426  -31.2405 C.ar    1  UNL1        0.0170
     48 C         -60.5011  -43.2584  -32.2891 C.ar    1  UNL1        0.0015
     49 C         -59.7758  -44.4659  -32.1888 C.ar    1  UNL1        0.0001
     50 C         -59.8784  -45.2651  -31.0356 C.ar    1  UNL1        0.0012
     51 C         -60.7155  -44.8243  -30.0088 C.ar    1  UNL1        0.0131
     52 H         -62.8529  -42.6708  -28.8510 H       1  UNL1        0.1660
@<TRIPOS>BOND
     1     1     2    2
     2     2     3   am
     3     3    31    1
     4    31    42    1
     5    42    43    1
     6    43    44   ar
     7    44    45   ar
     8    45    46   ar
     9    46    47   ar
    10    47    48   ar
    11    48    49   ar
    12    49    50   ar
    13    50    51   ar
    14    31    32    1
    15    32    33    2
    16    32    34   am
    17    34    36    1
    18    36    37   ar
    19    37    38   ar
    20    38    39   ar
    21    39    40   ar
    22    40    41   ar
    23     2     5    1
    24     5     6   ar
    25     6     7   ar
    26     7     8   ar
    27     8    12    1
    28    12    13    1
    29    13    14    1
    30    14    15    1
    31    15    18    1
    32    18    19   ar
    33    19    20   ar
    34    20    21   ar
    35    21    24    1
    36    24    25    1
    37    24    26    1
    38    24    27    1
    39    21    22   ar
    40    22    23   ar
    41    15    16    1
    42    16    28    1
    43    28    29    1
    44    16    17    1
    45     8     9   ar
    46     9    10   ar
    47    10    11    1
    48    51    43   ar
    49    41    36   ar
    50    10     5   ar
    51    51    46   ar
    52    17    12    1
    53    23    18   ar
    54     3     4    1
    55    45    52    1
    56    34    35    1
    57    29    30    1
@<TRIPOS>MOLECULE
*****
 52 57 0 0 0
SMALL
GASTEIGER

@<TRIPOS>ATOM
      1 O         -63.2761  -54.9723  -22.5814 O.2     1  UNL1       -0.2701
      2 C         -64.0933  -54.0116  -22.5971 C.2     1  UNL1        0.2483
      3 N         -65.4316  -54.2024  -22.1077 N.am    1  UNL1       -0.2945
      4 H         -66.0550  -53.3713  -22.0125 H       1  UNL1        0.1501
      5 C         -63.6867  -52.7304  -23.2133 C.ar    1  UNL1        0.0808
      6 C         -64.4692  -52.1937  -24.2490 C.ar    1  UNL1        0.0080
      7 C         -64.1742  -50.9384  -24.7841 C.ar    1  UNL1        0.0148
      8 C         -63.0844  -50.2016  -24.3014 C.ar    1  UNL1        0.0502
      9 C         -62.2760  -50.7509  -23.2953 C.ar    1  UNL1        0.0443
     10 C         -62.5671  -52.0083  -22.7573 C.ar    1  UNL1        0.1457
     11 F         -61.7346  -52.5242  -21.8184 F       1  UNL1       -0.2040
     12 N         -62.8138  -48.8861  -24.8136 N.pl3   1  UNL1       -0.3040
     13 C         -61.4273  -48.4036  -24.8505 C.3     1  UNL1        0.1123
     14 C         -61.3260  -46.9213  -25.2475 C.3     1  UNL1        0.1136
     15 N         -62.2299  -46.5449  -26.3542 N.pl3   1  UNL1       -0.2890
     16 C         -63.4251  -47.3639  -26.6471 C.3     1  UNL1        0.1230
     17 C         -63.8987  -48.0742  -25.3717 C.3     1  UNL1        0.1131
     18 C         -62.0532  -45.2755  -27.0377 C.ar    1  UNL1        0.1318
     19 C         -60.7758  -44.7328  -27.2807 C.ar    1  UNL1        0.0343
     20 C         -60.6564  -43.5054  -27.9346 C.ar    1  UNL1        0.0083
     21 C         -61.8005  -42.7979  -28.3282 C.ar    1  UNL1        0.0906
     22 C         -63.0546  -43.3751  -28.0850 C.ar    1  UNL1        0.1041
     23 N         -63.1462  -44.5722  -27.4493 N.ar    1  UNL1       -0.2292
     24 C         -61.6824  -41.4962  -29.0793 C.3     1  UNL1        0.4200
     25 F         -60.6546  -40.7488  -28.5356 F       1  UNL1       -0.1658
     26 F         -62.8602  -40.7742  -28.9924 F       1  UNL1       -0.1658
     27 F         -61.4137  -41.7269  -30.4174 F       1  UNL1       -0.1658
     28 C         -63.1422  -48.3755  -27.7745 C.3     1  UNL1        0.1585
     29 O         -64.3376  -48.9355  -28.2402 O.3     1  UNL1       -0.3802
     30 H         -64.0841  -49.5696  -28.9604 H       1  UNL1        0.2105
     31 C         -66.0771  -55.5193  -22.1147 C.3     1  UNL1        0.1535
     32 C         -66.4601  -55.9064  -20.7102 C.2     1  UNL1        0.2443
     33 O         -66.4820  -57.1278  -20.3973 O.2     1  UNL1       -0.2730
     34 N         -66.7372  -54.9000  -19.7206 N.am    1  UNL1       -0.2825
     35 H         -66.4171  -53.9231  -19.9068 H       1  UNL1        0.1549
     36 C         -67.3368  -55.1733  -18.4428 C.ar    1  UNL1        0.0535
     37 C         -66.5581  -55.3374  -17.2845 C.ar    1  UNL1        0.0353
     38 C         -67.1837  -55.6280  -16.0693 C.ar    1  UNL1        0.1002
     39 N         -68.5349  -55.7650  -16.0127 N.ar    1  UNL1       -0.2422
     40 C         -69.3109  -55.6302  -17.1202 C.ar    1  UNL1        0.1002
     41 C         -68.7257  -55.3410  -18.3552 C.ar    1  UNL1        0.0353
     42 C         -67.3111  -55.5088  -23.0375 C.3     1  UNL1        0.0569
     43 C         -68.5004  -54.8945  -22.3541 C.ar    1  UNL1       -0.0017
     44 C         -68.6140  -53.5761  -21.9235 C.ar    1  UNL1        0.0681
     45 N         -69.7653  -53.4009  -21.2357 N.ar    1  UNL1       -0.3523
     46 C         -70.3734  -54.5997  -21.2155 C.ar    1  UNL1        0.0563
     47 C         -71.5704  -54.9285  -20.5802 C.ar    1  UNL1        0.0170
     48 C         -72.0035  -56.2654  -20.6435 C.ar    1  UNL1        0.0015
     49 C         -71.2365  -57.2343  -21.3269 C.ar    1  UNL1        0.0001
     50 C         -70.0329  -56.8739  -21.9597 C.ar    1  UNL1        0.0012
     51 C         -69.6311  -55.5388  -21.8853 C.ar    1  UNL1        0.0131
     52 H         -70.0965  -52.5184  -20.7866 H       1  UNL1        0.1660
@<TRIPOS>BOND
     1     1     2    2
     2     2     3   am
     3     3    31    1
     4    31    42    1
     5    42    43    1
     6    43    44   ar
     7    44    45   ar
     8    45    46   ar
     9    46    47   ar
    10    47    48   ar
    11    48    49   ar
    12    49    50   ar
    13    50    51   ar
    14    31    32    1
    15    32    33    2
    16    32    34   am
    17    34    36    1
    18    36    37   ar
    19    37    38   ar
    20    38    39   ar
    21    39    40   ar
    22    40    41   ar
    23     2     5    1
    24     5     6   ar
    25     6     7   ar
    26     7     8   ar
    27     8    12    1
    28    12    13    1
    29    13    14    1
    30    14    15    1
    31    15    18    1
    32    18    19   ar
    33    19    20   ar
    34    20    21   ar
    35    21    24    1
    36    24    25    1
    37    24    26    1
    38    24    27    1
    39    21    22   ar
    40    22    23   ar
    41    15    16    1
    42    16    28    1
    43    28    29    1
    44    16    17    1
    45     8     9   ar
    46     9    10   ar
    47    10    11    1
    48    51    43   ar
    49    41    36   ar
    50    10     5   ar
    51    51    46   ar
    52    17    12    1
    53    23    18   ar
    54     3     4    1
    55    45    52    1
    56    34    35    1
    57    29    30    1
@<TRIPOS>MOLECULE
*****
 52 57 0 0 0
SMALL
GASTEIGER

@<TRIPOS>ATOM
      1 O         -63.2813  -54.8385  -22.3264 O.2     1  UNL1       -0.2701
      2 C         -64.1558  -53.9662  -22.5815 C.2     1  UNL1        0.2483
      3 N         -65.5426  -54.2472  -22.3264 N.am    1  UNL1       -0.2945
      4 H         -66.2380  -53.4758  -22.4256 H       1  UNL1        0.1501
      5 C         -63.7454  -52.7042  -23.2337 C.ar    1  UNL1        0.0808
      6 C         -64.5467  -52.1749  -24.2588 C.ar    1  UNL1        0.0080
      7 C         -64.2461  -50.9353  -24.8264 C.ar    1  UNL1        0.0148
      8 C         -63.1319  -50.2075  -24.3877 C.ar    1  UNL1        0.0502
      9 C         -62.3058  -50.7504  -23.3926 C.ar    1  UNL1        0.0443
     10 C         -62.6025  -51.9920  -22.8221 C.ar    1  UNL1        0.1457
     11 F         -61.7535  -52.5033  -21.8956 F       1  UNL1       -0.2040
     12 N         -62.8541  -48.9069  -24.9329 N.pl3   1  UNL1       -0.3040
     13 C         -61.4597  -48.4593  -25.0416 C.3     1  UNL1        0.1123
     14 C         -61.3414  -46.9860  -25.4667 C.3     1  UNL1        0.1136
     15 N         -62.2867  -46.6042  -26.5364 N.pl3   1  UNL1       -0.2890
     16 C         -63.5135  -47.3978  -26.7606 C.3     1  UNL1        0.1230
     17 C         -63.9440  -48.0769  -25.4534 C.3     1  UNL1        0.1131
     18 C         -62.1116  -45.3499  -27.2478 C.ar    1  UNL1        0.1318
     19 C         -60.8514  -44.9312  -27.7185 C.ar    1  UNL1        0.0343
     20 C         -60.7312  -43.7134  -28.3902 C.ar    1  UNL1        0.0083
     21 C         -61.8525  -42.8935  -28.5768 C.ar    1  UNL1        0.0906
     22 C         -63.0933  -43.3488  -28.1098 C.ar    1  UNL1        0.1041
     23 N         -63.1865  -44.5388  -27.4612 N.ar    1  UNL1       -0.2292
     24 C         -61.7437  -41.6006  -29.3443 C.3     1  UNL1        0.4200
     25 F         -60.8016  -40.7900  -28.7392 F       1  UNL1       -0.1658
     26 F         -62.9605  -40.9410  -29.3640 F       1  UNL1       -0.1658
     27 F         -61.3597  -41.8398  -30.6525 F       1  UNL1       -0.1658
     28 C         -63.3076  -48.4329  -27.8834 C.3     1  UNL1        0.1585
     29 O         -64.3633  -48.3755  -28.8008 O.3     1  UNL1       -0.3802
     30 H         -64.1667  -49.0599  -29.4921 H       1  UNL1        0.2105
     31 C         -66.0663  -55.6171  -22.3241 C.3     1  UNL1        0.1535
     32 C         -67.1562  -55.7440  -21.2921 C.2     1  UNL1        0.2443
     33 O         -67.7893  -56.8310  -21.2021 O.2     1  UNL1       -0.2730
     34 N         -67.4331  -54.6670  -20.3798 N.am    1  UNL1       -0.2825
     35 H         -66.7123  -53.9194  -20.2653 H       1  UNL1        0.1549
     36 C         -68.5961  -54.6069  -19.5367 C.ar    1  UNL1        0.0535
     37 C         -68.6563  -55.2998  -18.3156 C.ar    1  UNL1        0.0353
     38 C         -69.8181  -55.2329  -17.5422 C.ar    1  UNL1        0.1002
     39 N         -70.8868  -54.5138  -17.9763 N.ar    1  UNL1       -0.2422
     40 C         -70.8633  -53.8492  -19.1616 C.ar    1  UNL1        0.1002
     41 C         -69.7221  -53.8910  -19.9661 C.ar    1  UNL1        0.0353
     42 C         -66.5879  -55.9961  -23.7236 C.3     1  UNL1        0.0569
     43 C         -67.7220  -55.1045  -24.1450 C.ar    1  UNL1       -0.0017
     44 C         -68.4787  -54.2842  -23.3138 C.ar    1  UNL1        0.0681
     45 N         -69.4972  -53.7222  -24.0039 N.ar    1  UNL1       -0.3523
     46 C         -69.3994  -54.1910  -25.2601 C.ar    1  UNL1        0.0563
     47 C         -70.2584  -53.9310  -26.3273 C.ar    1  UNL1        0.0170
     48 C         -69.9977  -54.5705  -27.5529 C.ar    1  UNL1        0.0015
     49 C         -68.9009  -55.4506  -27.6815 C.ar    1  UNL1        0.0001
     50 C         -68.0501  -55.6936  -26.5879 C.ar    1  UNL1        0.0012
     51 C         -68.3299  -55.0404  -25.3860 C.ar    1  UNL1        0.0131
     52 H         -70.2276  -53.0787  -23.6262 H       1  UNL1        0.1660
@<TRIPOS>BOND
     1     1     2    2
     2     2     3   am
     3     3    31    1
     4    31    42    1
     5    42    43    1
     6    43    44   ar
     7    44    45   ar
     8    45    46   ar
     9    46    47   ar
    10    47    48   ar
    11    48    49   ar
    12    49    50   ar
    13    50    51   ar
    14    31    32    1
    15    32    33    2
    16    32    34   am
    17    34    36    1
    18    36    37   ar
    19    37    38   ar
    20    38    39   ar
    21    39    40   ar
    22    40    41   ar
    23     2     5    1
    24     5     6   ar
    25     6     7   ar
    26     7     8   ar
    27     8    12    1
    28    12    13    1
    29    13    14    1
    30    14    15    1
    31    15    18    1
    32    18    19   ar
    33    19    20   ar
    34    20    21   ar
    35    21    24    1
    36    24    25    1
    37    24    26    1
    38    24    27    1
    39    21    22   ar
    40    22    23   ar
    41    15    16    1
    42    16    28    1
    43    28    29    1
    44    16    17    1
    45     8     9   ar
    46     9    10   ar
    47    10    11    1
    48    51    43   ar
    49    41    36   ar
    50    10     5   ar
    51    51    46   ar
    52    17    12    1
    53    23    18   ar
    54     3     4    1
    55    45    52    1
    56    34    35    1
    57    29    30    1
@<TRIPOS>MOLECULE
*****
 52 57 0 0 0
SMALL
GASTEIGER

@<TRIPOS>ATOM
      1 O         -60.1626  -47.5997  -24.7159 O.2     1  UNL1       -0.2701
      2 C         -61.1657  -46.8621  -24.9174 C.2     1  UNL1        0.2483
      3 N         -61.9852  -47.0706  -26.0802 N.am    1  UNL1       -0.2945
      4 H         -62.8771  -46.5365  -26.1685 H       1  UNL1        0.1501
      5 C         -61.4221  -45.7293  -24.0022 C.ar    1  UNL1        0.0808
      6 C         -60.4956  -44.6751  -23.9466 C.ar    1  UNL1        0.0080
      7 C         -60.7542  -43.5429  -23.1718 C.ar    1  UNL1        0.0148
      8 C         -61.9388  -43.4491  -22.4290 C.ar    1  UNL1        0.0502
      9 C         -62.8482  -44.5168  -22.4495 C.ar    1  UNL1        0.0443
     10 C         -62.5926  -45.6530  -23.2233 C.ar    1  UNL1        0.1457
     11 F         -63.4748  -46.6829  -23.1801 F       1  UNL1       -0.2040
     12 N         -62.2306  -42.2604  -21.6754 N.pl3   1  UNL1       -0.3040
     13 C         -61.2595  -41.1588  -21.6717 C.3     1  UNL1        0.1123
     14 C         -61.6299  -40.0454  -20.6776 C.3     1  UNL1        0.1136
     15 N         -63.0695  -39.7122  -20.6763 N.pl3   1  UNL1       -0.2890
     16 C         -64.0584  -40.6920  -21.1734 C.3     1  UNL1        0.1230
     17 C         -63.5194  -42.1176  -20.9927 C.3     1  UNL1        0.1131
     18 C         -63.5352  -38.5025  -20.0209 C.ar    1  UNL1        0.1318
     19 C         -64.6365  -38.5092  -19.1420 C.ar    1  UNL1        0.0343
     20 C         -65.0523  -37.3196  -18.5416 C.ar    1  UNL1        0.0083
     21 C         -64.3964  -36.1145  -18.8276 C.ar    1  UNL1        0.0906
     22 C         -63.2946  -36.1474  -19.6938 C.ar    1  UNL1        0.1041
     23 N         -62.9064  -37.3175  -20.2644 N.ar    1  UNL1       -0.2292
     24 C         -64.8050  -34.8331  -18.1467 C.3     1  UNL1        0.4200
     25 F         -65.1954  -35.1112  -16.8502 F       1  UNL1       -0.1658
     26 F         -65.8596  -34.2388  -18.8179 F       1  UNL1       -0.1658
     27 F         -63.7502  -33.9373  -18.1181 F       1  UNL1       -0.1658
     28 C         -64.4206  -40.4170  -22.6457 C.3     1  UNL1        0.1585
     29 O         -65.5492  -39.5928  -22.7257 O.3     1  UNL1       -0.3802
     30 H         -65.7232  -39.4550  -23.6931 H       1  UNL1        0.2105
     31 C         -61.4516  -47.6788  -27.3033 C.3     1  UNL1        0.1535
     32 C         -62.5074  -47.6726  -28.3778 C.2     1  UNL1        0.2443
     33 O         -62.8275  -48.7620  -28.9266 O.2     1  UNL1       -0.2730
     34 N         -63.1870  -46.4556  -28.7328 N.am    1  UNL1       -0.2825
     35 H         -63.1345  -45.6495  -28.0703 H       1  UNL1        0.1549
     36 C         -64.0212  -46.3107  -29.8947 C.ar    1  UNL1        0.0535
     37 C         -64.2785  -45.0517  -30.4635 C.ar    1  UNL1        0.0353
     38 C         -65.1171  -44.9572  -31.5771 C.ar    1  UNL1        0.1002
     39 N         -65.6907  -46.0747  -32.0965 N.ar    1  UNL1       -0.2422
     40 C         -65.4745  -47.3027  -31.5557 C.ar    1  UNL1        0.1002
     41 C         -64.6440  -47.4414  -30.4411 C.ar    1  UNL1        0.0353
     42 C         -60.1884  -46.9300  -27.7700 C.3     1  UNL1        0.0569
     43 C         -60.5381  -45.7593  -28.6453 C.ar    1  UNL1       -0.0017
     44 C         -60.3343  -45.6667  -30.0187 C.ar    1  UNL1        0.0681
     45 N         -60.6457  -44.4268  -30.4604 N.ar    1  UNL1       -0.3523
     46 C         -61.0309  -43.7310  -29.3765 C.ar    1  UNL1        0.0563
     47 C         -61.4018  -42.3878  -29.3236 C.ar    1  UNL1        0.0170
     48 C         -61.7224  -41.8426  -28.0670 C.ar    1  UNL1        0.0015
     49 C         -61.6596  -42.6407  -26.9038 C.ar    1  UNL1        0.0001
     50 C         -61.2829  -43.9935  -26.9871 C.ar    1  UNL1        0.0012
     51 C         -60.9762  -44.5088  -28.2480 C.ar    1  UNL1        0.0131
     52 H         -60.5715  -44.0761  -31.4411 H       1  UNL1        0.1660
@<TRIPOS>BOND
     1     1     2    2
     2     2     3   am
     3     3    31    1
     4    31    42    1
     5    42    43    1
     6    43    44   ar
     7    44    45   ar
     8    45    46   ar
     9    46    47   ar
    10    47    48   ar
    11    48    49   ar
    12    49    50   ar
    13    50    51   ar
    14    31    32    1
    15    32    33    2
    16    32    34   am
    17    34    36    1
    18    36    37   ar
    19    37    38   ar
    20    38    39   ar
    21    39    40   ar
    22    40    41   ar
    23     2     5    1
    24     5     6   ar
    25     6     7   ar
    26     7     8   ar
    27     8    12    1
    28    12    13    1
    29    13    14    1
    30    14    15    1
    31    15    18    1
    32    18    19   ar
    33    19    20   ar
    34    20    21   ar
    35    21    24    1
    36    24    25    1
    37    24    26    1
    38    24    27    1
    39    21    22   ar
    40    22    23   ar
    41    15    16    1
    42    16    28    1
    43    28    29    1
    44    16    17    1
    45     8     9   ar
    46     9    10   ar
    47    10    11    1
    48    51    43   ar
    49    41    36   ar
    50    10     5   ar
    51    51    46   ar
    52    17    12    1
    53    23    18   ar
    54     3     4    1
    55    45    52    1
    56    34    35    1
    57    29    30    1
@<TRIPOS>MOLECULE
*****
 52 57 0 0 0
SMALL
GASTEIGER

@<TRIPOS>ATOM
      1 O         -61.5947  -47.2495  -26.5244 O.2     1  UNL1       -0.2701
      2 C         -62.4425  -47.1160  -25.6002 C.2     1  UNL1        0.2483
      3 N         -63.5006  -48.0787  -25.4552 N.am    1  UNL1       -0.2945
      4 H         -64.1179  -48.0241  -24.6159 H       1  UNL1        0.1501
      5 C         -62.3894  -45.9128  -24.7424 C.ar    1  UNL1        0.0808
      6 C         -62.6371  -44.6551  -25.3165 C.ar    1  UNL1        0.0080
      7 C         -62.6961  -43.5101  -24.5198 C.ar    1  UNL1        0.0148
      8 C         -62.4967  -43.6001  -23.1357 C.ar    1  UNL1        0.0502
      9 C         -62.2088  -44.8479  -22.5633 C.ar    1  UNL1        0.0443
     10 C         -62.1478  -45.9969  -23.3577 C.ar    1  UNL1        0.1457
     11 F         -61.8214  -47.1770  -22.7730 F       1  UNL1       -0.2040
     12 N         -62.6122  -42.4304  -22.3083 N.pl3   1  UNL1       -0.3040
     13 C         -61.5276  -41.4403  -22.3132 C.3     1  UNL1        0.1123
     14 C         -61.7152  -40.3503  -21.2447 C.3     1  UNL1        0.1136
     15 N         -63.1071  -39.8663  -21.1354 N.pl3   1  UNL1       -0.2890
     16 C         -64.2247  -40.7064  -21.6153 C.3     1  UNL1        0.1230
     17 C         -63.8357  -42.1890  -21.5386 C.3     1  UNL1        0.1131
     18 C         -63.3985  -38.6518  -20.3938 C.ar    1  UNL1        0.1318
     19 C         -64.4272  -38.5956  -19.4326 C.ar    1  UNL1        0.0343
     20 C         -64.6752  -37.4033  -18.7506 C.ar    1  UNL1        0.0083
     21 C         -63.9233  -36.2550  -19.0344 C.ar    1  UNL1        0.0906
     22 C         -62.8972  -36.3512  -19.9847 C.ar    1  UNL1        0.1041
     23 N         -62.6725  -37.5231  -20.6341 N.ar    1  UNL1       -0.2292
     24 C         -64.1489  -34.9762  -18.2688 C.3     1  UNL1        0.4200
     25 F         -62.9517  -34.2942  -18.1591 F       1  UNL1       -0.1658
     26 F         -64.6325  -35.2459  -17.0002 F       1  UNL1       -0.1658
     27 F         -65.0681  -34.1723  -18.9206 F       1  UNL1       -0.1658
     28 C         -64.6396  -40.3138  -23.0464 C.3     1  UNL1        0.1585
     29 O         -65.8044  -39.5379  -23.0222 O.3     1  UNL1       -0.3802
     30 H         -66.0113  -39.3196  -23.9680 H       1  UNL1        0.2105
     31 C         -63.9935  -48.8630  -26.5921 C.3     1  UNL1        0.1535
     32 C         -63.7736  -48.0990  -27.8716 C.2     1  UNL1        0.2443
     33 O         -63.2672  -48.6957  -28.8605 O.2     1  UNL1       -0.2730
     34 N         -64.1896  -46.7271  -27.9887 N.am    1  UNL1       -0.2825
     35 H         -64.8704  -46.3561  -27.2885 H       1  UNL1        0.1549
     36 C         -63.8068  -45.8609  -29.0706 C.ar    1  UNL1        0.0535
     37 C         -62.5028  -45.3478  -29.1764 C.ar    1  UNL1        0.0353
     38 C         -62.1843  -44.4883  -30.2309 C.ar    1  UNL1        0.1002
     39 N         -63.1341  -44.1405  -31.1389 N.ar    1  UNL1       -0.2422
     40 C         -64.4077  -44.6066  -31.0506 C.ar    1  UNL1        0.1002
     41 C         -64.7686  -45.4672  -30.0112 C.ar    1  UNL1        0.0353
     42 C         -63.2931  -50.2345  -26.6439 C.3     1  UNL1        0.0569
     43 C         -63.1829  -50.8448  -25.2748 C.ar    1  UNL1       -0.0017
     44 C         -64.1626  -51.5857  -24.6210 C.ar    1  UNL1        0.0681
     45 N         -63.7760  -51.8687  -23.3561 N.ar    1  UNL1       -0.3523
     46 C         -62.5672  -51.3013  -23.2002 C.ar    1  UNL1        0.0563
     47 C         -61.7868  -51.2815  -22.0448 C.ar    1  UNL1        0.0170
     48 C         -60.5671  -50.5818  -22.0864 C.ar    1  UNL1        0.0015
     49 C         -60.1622  -49.9194  -23.2659 C.ar    1  UNL1        0.0001
     50 C         -60.9695  -49.9570  -24.4174 C.ar    1  UNL1        0.0012
     51 C         -62.1716  -50.6640  -24.3485 C.ar    1  UNL1        0.0131
     52 H         -64.3223  -52.3957  -22.6391 H       1  UNL1        0.1660
@<TRIPOS>BOND
     1     1     2    2
     2     2     3   am
     3     3    31    1
     4    31    42    1
     5    42    43    1
     6    43    44   ar
     7    44    45   ar
     8    45    46   ar
     9    46    47   ar
    10    47    48   ar
    11    48    49   ar
    12    49    50   ar
    13    50    51   ar
    14    31    32    1
    15    32    33    2
    16    32    34   am
    17    34    36    1
    18    36    37   ar
    19    37    38   ar
    20    38    39   ar
    21    39    40   ar
    22    40    41   ar
    23     2     5    1
    24     5     6   ar
    25     6     7   ar
    26     7     8   ar
    27     8    12    1
    28    12    13    1
    29    13    14    1
    30    14    15    1
    31    15    18    1
    32    18    19   ar
    33    19    20   ar
    34    20    21   ar
    35    21    24    1
    36    24    25    1
    37    24    26    1
    38    24    27    1
    39    21    22   ar
    40    22    23   ar
    41    15    16    1
    42    16    28    1
    43    28    29    1
    44    16    17    1
    45     8     9   ar
    46     9    10   ar
    47    10    11    1
    48    51    43   ar
    49    41    36   ar
    50    10     5   ar
    51    51    46   ar
    52    17    12    1
    53    23    18   ar
    54     3     4    1
    55    45    52    1
    56    34    35    1
    57    29    30    1
@<TRIPOS>MOLECULE
*****
 52 57 0 0 0
SMALL
GASTEIGER

@<TRIPOS>ATOM
      1 O         -58.8834  -47.8562  -23.2917 O.2     1  UNL1       -0.2701
      2 C         -60.0628  -47.6312  -22.9051 C.2     1  UNL1        0.2483
      3 N         -60.9942  -48.7191  -22.7786 N.am    1  UNL1       -0.2945
      4 H         -61.9240  -48.5362  -22.3419 H       1  UNL1        0.1501
      5 C         -60.4941  -46.2341  -22.6846 C.ar    1  UNL1        0.0808
      6 C         -61.8531  -45.9699  -22.4470 C.ar    1  UNL1        0.0080
      7 C         -62.2810  -44.6784  -22.1340 C.ar    1  UNL1        0.0148
      8 C         -61.3596  -43.6250  -22.0642 C.ar    1  UNL1        0.0502
      9 C         -60.0076  -43.8762  -22.3404 C.ar    1  UNL1        0.0443
     10 C         -59.5748  -45.1679  -22.6554 C.ar    1  UNL1        0.1457
     11 F         -58.2670  -45.3608  -22.9609 F       1  UNL1       -0.2040
     12 N         -61.7916  -42.3067  -21.6878 N.pl3   1  UNL1       -0.3040
     13 C         -62.8792  -41.6679  -22.4400 C.3     1  UNL1        0.1123
     14 C         -63.0956  -40.1995  -22.0373 C.3     1  UNL1        0.1136
     15 N         -63.0226  -39.9720  -20.5791 N.pl3   1  UNL1       -0.2890
     16 C         -62.3101  -40.9347  -19.7127 C.3     1  UNL1        0.1230
     17 C         -61.2125  -41.6476  -20.5140 C.3     1  UNL1        0.1131
     18 C         -63.4872  -38.7167  -20.0149 C.ar    1  UNL1        0.1318
     19 C         -64.5957  -38.6560  -19.1473 C.ar    1  UNL1        0.0343
     20 C         -65.0101  -37.4250  -18.6361 C.ar    1  UNL1        0.0083
     21 C         -64.3454  -36.2463  -19.0009 C.ar    1  UNL1        0.0906
     22 C         -63.2368  -36.3456  -19.8531 C.ar    1  UNL1        0.1041
     23 N         -62.8501  -37.5550  -20.3362 N.ar    1  UNL1       -0.2292
     24 C         -64.7528  -34.9180  -18.4159 C.3     1  UNL1        0.4200
     25 F         -63.6350  -34.1151  -18.2878 F       1  UNL1       -0.1658
     26 F         -65.3299  -35.0902  -17.1696 F       1  UNL1       -0.1658
     27 F         -65.6717  -34.2848  -19.2348 F       1  UNL1       -0.1658
     28 C         -63.2882  -41.9475  -19.0866 C.3     1  UNL1        0.1585
     29 O         -63.5813  -41.5912  -17.7650 O.3     1  UNL1       -0.3802
     30 H         -64.2129  -42.2780  -17.4268 H       1  UNL1        0.2105
     31 C         -60.8629  -49.9457  -23.5716 C.3     1  UNL1        0.1535
     32 C         -61.8011  -50.9981  -23.0412 C.2     1  UNL1        0.2443
     33 O         -61.5852  -51.4906  -21.9005 O.2     1  UNL1       -0.2730
     34 N         -62.9615  -51.3941  -23.7933 N.am    1  UNL1       -0.2825
     35 H         -63.2859  -50.7699  -24.5657 H       1  UNL1        0.1549
     36 C         -63.7660  -52.5445  -23.4831 C.ar    1  UNL1        0.0535
     37 C         -63.2891  -53.5741  -22.6538 C.ar    1  UNL1        0.0353
     38 C         -64.0972  -54.6857  -22.4017 C.ar    1  UNL1        0.1002
     39 N         -65.3300  -54.7758  -22.9671 N.ar    1  UNL1       -0.2422
     40 C         -65.8093  -53.8042  -23.7878 C.ar    1  UNL1        0.1002
     41 C         -65.0334  -52.6768  -24.0671 C.ar    1  UNL1        0.0353
     42 C         -61.1446  -49.6577  -25.0589 C.3     1  UNL1        0.0569
     43 C         -62.0681  -48.4835  -25.2237 C.ar    1  UNL1       -0.0017
     44 C         -63.4296  -48.4587  -24.9372 C.ar    1  UNL1        0.0681
     45 N         -63.9731  -47.2825  -25.3254 N.ar    1  UNL1       -0.3523
     46 C         -62.9704  -46.5695  -25.8673 C.ar    1  UNL1        0.0563
     47 C         -63.0530  -45.3066  -26.4525 C.ar    1  UNL1        0.0170
     48 C         -61.8816  -44.7609  -27.0083 C.ar    1  UNL1        0.0015
     49 C         -60.6691  -45.4838  -26.9733 C.ar    1  UNL1        0.0001
     50 C         -60.6149  -46.7560  -26.3753 C.ar    1  UNL1        0.0012
     51 C         -61.7916  -47.2696  -25.8267 C.ar    1  UNL1        0.0131
     52 H         -64.9755  -47.0012  -25.2459 H       1  UNL1        0.1660
@<TRIPOS>BOND
     1     1     2    2
     2     2     3   am
     3     3    31    1
     4    31    42    1
     5    42    43    1
     6    43    44   ar
     7    44    45   ar
     8    45    46   ar
     9    46    47   ar
    10    47    48   ar
    11    48    49   ar
    12    49    50   ar
    13    50    51   ar
    14    31    32    1
    15    32    33    2
    16    32    34   am
    17    34    36    1
    18    36    37   ar
    19    37    38   ar
    20    38    39   ar
    21    39    40   ar
    22    40    41   ar
    23     2     5    1
    24     5     6   ar
    25     6     7   ar
    26     7     8   ar
    27     8    12    1
    28    12    13    1
    29    13    14    1
    30    14    15    1
    31    15    18    1
    32    18    19   ar
    33    19    20   ar
    34    20    21   ar
    35    21    24    1
    36    24    25    1
    37    24    26    1
    38    24    27    1
    39    21    22   ar
    40    22    23   ar
    41    15    16    1
    42    16    28    1
    43    28    29    1
    44    16    17    1
    45     8     9   ar
    46     9    10   ar
    47    10    11    1
    48    51    43   ar
    49    41    36   ar
    50    10     5   ar
    51    51    46   ar
    52    17    12    1
    53    23    18   ar
    54     3     4    1
    55    45    52    1
    56    34    35    1
    57    29    30    1
@<TRIPOS>MOLECULE
*****
 52 57 0 0 0
SMALL
GASTEIGER

@<TRIPOS>ATOM
      1 O         -58.8157  -46.8699  -24.1197 O.2     1  UNL1       -0.2701
      2 C         -59.9931  -46.7122  -23.6959 C.2     1  UNL1        0.2483
      3 N         -60.9658  -47.7547  -23.8807 N.am    1  UNL1       -0.2945
      4 H         -61.8964  -47.6612  -23.4182 H       1  UNL1        0.1501
      5 C         -60.3773  -45.4130  -23.1036 C.ar    1  UNL1        0.0808
      6 C         -60.0256  -44.2287  -23.7720 C.ar    1  UNL1        0.0080
      7 C         -60.4589  -42.9896  -23.2965 C.ar    1  UNL1        0.0148
      8 C         -61.2423  -42.9110  -22.1373 C.ar    1  UNL1        0.0502
      9 C         -61.5621  -44.0876  -21.4438 C.ar    1  UNL1        0.0443
     10 C         -61.1292  -45.3305  -21.9159 C.ar    1  UNL1        0.1457
     11 F         -61.4205  -46.4403  -21.1917 F       1  UNL1       -0.2040
     12 N         -61.7347  -41.6408  -21.6789 N.pl3   1  UNL1       -0.3040
     13 C         -62.7965  -40.9683  -22.4385 C.3     1  UNL1        0.1123
     14 C         -63.0798  -39.5454  -21.9287 C.3     1  UNL1        0.1136
     15 N         -63.0968  -39.4404  -20.4549 N.pl3   1  UNL1       -0.2890
     16 C         -62.4061  -40.4547  -19.6307 C.3     1  UNL1        0.1230
     17 C         -61.2435  -41.0690  -20.4222 C.3     1  UNL1        0.1131
     18 C         -63.6306  -38.2497  -19.8168 C.ar    1  UNL1        0.1318
     19 C         -64.8039  -38.2855  -19.0376 C.ar    1  UNL1        0.0343
     20 C         -65.2830  -37.1133  -18.4504 C.ar    1  UNL1        0.0083
     21 C         -64.6176  -35.8964  -18.6524 C.ar    1  UNL1        0.0906
     22 C         -63.4445  -35.9004  -19.4198 C.ar    1  UNL1        0.1041
     23 N         -62.9957  -37.0542  -19.9793 N.ar    1  UNL1       -0.2292
     24 C         -65.0975  -34.6341  -17.9825 C.3     1  UNL1        0.4200
     25 F         -64.1556  -33.6382  -18.1604 F       1  UNL1       -0.1658
     26 F         -65.2839  -34.8418  -16.6268 F       1  UNL1       -0.1658
     27 F         -66.3008  -34.2195  -18.5265 F       1  UNL1       -0.1658
     28 C         -63.3871  -41.5413  -19.1500 C.3     1  UNL1        0.1585
     29 O         -63.6247  -41.4124  -17.7766 O.3     1  UNL1       -0.3802
     30 H         -64.2614  -42.1350  -17.5368 H       1  UNL1        0.2105
     31 C         -60.8644  -48.7211  -24.9791 C.3     1  UNL1        0.1535
     32 C         -61.2711  -50.0880  -24.4940 C.2     1  UNL1        0.2443
     33 O         -60.4239  -51.0219  -24.5170 O.2     1  UNL1       -0.2730
     34 N         -62.5850  -50.3152  -23.9545 N.am    1  UNL1       -0.2825
     35 H         -63.1483  -49.4857  -23.6610 H       1  UNL1        0.1549
     36 C         -63.1336  -51.6189  -23.6972 C.ar    1  UNL1        0.0535
     37 C         -64.3165  -52.0551  -24.3179 C.ar    1  UNL1        0.0353
     38 C         -64.8263  -53.3207  -24.0166 C.ar    1  UNL1        0.1002
     39 N         -64.1891  -54.1173  -23.1183 N.ar    1  UNL1       -0.2422
     40 C         -63.0539  -53.7139  -22.4890 C.ar    1  UNL1        0.1002
     41 C         -62.5114  -52.4556  -22.7604 C.ar    1  UNL1        0.0353
     42 C         -61.7379  -48.2778  -26.1685 C.3     1  UNL1        0.0569
     43 C         -61.1745  -47.0543  -26.8352 C.ar    1  UNL1       -0.0017
     44 C         -60.0015  -46.9879  -27.5809 C.ar    1  UNL1        0.0681
     45 N         -59.7302  -45.7076  -27.9225 N.ar    1  UNL1       -0.3523
     46 C         -60.7132  -44.9629  -27.3874 C.ar    1  UNL1        0.0563
     47 C         -60.8394  -43.5749  -27.4304 C.ar    1  UNL1        0.0170
     48 C         -61.9272  -42.9918  -26.7554 C.ar    1  UNL1        0.0015
     49 C         -62.8504  -43.7987  -26.0550 C.ar    1  UNL1        0.0001
     50 C         -62.6988  -45.1970  -26.0294 C.ar    1  UNL1        0.0012
     51 C         -61.6132  -45.7481  -26.7131 C.ar    1  UNL1        0.0131
     52 H         -58.9062  -45.3675  -28.4662 H       1  UNL1        0.1660
@<TRIPOS>BOND
     1     1     2    2
     2     2     3   am
     3     3    31    1
     4    31    42    1
     5    42    43    1
     6    43    44   ar
     7    44    45   ar
     8    45    46   ar
     9    46    47   ar
    10    47    48   ar
    11    48    49   ar
    12    49    50   ar
    13    50    51   ar
    14    31    32    1
    15    32    33    2
    16    32    34   am
    17    34    36    1
    18    36    37   ar
    19    37    38   ar
    20    38    39   ar
    21    39    40   ar
    22    40    41   ar
    23     2     5    1
    24     5     6   ar
    25     6     7   ar
    26     7     8   ar
    27     8    12    1
    28    12    13    1
    29    13    14    1
    30    14    15    1
    31    15    18    1
    32    18    19   ar
    33    19    20   ar
    34    20    21   ar
    35    21    24    1
    36    24    25    1
    37    24    26    1
    38    24    27    1
    39    21    22   ar
    40    22    23   ar
    41    15    16    1
    42    16    28    1
    43    28    29    1
    44    16    17    1
    45     8     9   ar
    46     9    10   ar
    47    10    11    1
    48    51    43   ar
    49    41    36   ar
    50    10     5   ar
    51    51    46   ar
    52    17    12    1
    53    23    18   ar
    54     3     4    1
    55    45    52    1
    56    34    35    1
    57    29    30    1
@<TRIPOS>MOLECULE
*****
 52 57 0 0 0
SMALL
GASTEIGER

@<TRIPOS>ATOM
      1 O         -63.2964  -54.9197  -22.0728 O.2     1  UNL1       -0.2701
      2 C         -64.1701  -54.0857  -22.4361 C.2     1  UNL1        0.2483
      3 N         -65.5555  -54.3231  -22.1339 N.am    1  UNL1       -0.2945
      4 H         -66.2490  -53.5689  -22.3306 H       1  UNL1        0.1501
      5 C         -63.7609  -52.9252  -23.2561 C.ar    1  UNL1        0.0808
      6 C         -64.6147  -52.4778  -24.2777 C.ar    1  UNL1        0.0080
      7 C         -64.3097  -51.3250  -25.0038 C.ar    1  UNL1        0.0148
      8 C         -63.1393  -50.6049  -24.7295 C.ar    1  UNL1        0.0502
      9 C         -62.2634  -51.0704  -23.7378 C.ar    1  UNL1        0.0443
     10 C         -62.5645  -52.2251  -23.0090 C.ar    1  UNL1        0.1457
     11 F         -61.6696  -52.6679  -22.0903 F       1  UNL1       -0.2040
     12 N         -62.8529  -49.3879  -25.4388 N.pl3   1  UNL1       -0.3040
     13 C         -63.8682  -48.8295  -26.3411 C.3     1  UNL1        0.1123
     14 C         -63.3429  -47.6383  -27.1597 C.3     1  UNL1        0.1136
     15 N         -62.5128  -46.7031  -26.3723 N.pl3   1  UNL1       -0.2890
     16 C         -61.8591  -47.1590  -25.1274 C.3     1  UNL1        0.1230
     17 C         -61.5987  -48.6700  -25.1957 C.3     1  UNL1        0.1131
     18 C         -62.1856  -45.3934  -26.9084 C.ar    1  UNL1        0.1318
     19 C         -60.8707  -45.0483  -27.2788 C.ar    1  UNL1        0.0343
     20 C         -60.6033  -43.7741  -27.7821 C.ar    1  UNL1        0.0083
     21 C         -61.6308  -42.8279  -27.8975 C.ar    1  UNL1        0.0906
     22 C         -62.9298  -43.2105  -27.5350 C.ar    1  UNL1        0.1041
     23 N         -63.1666  -44.4572  -27.0500 N.ar    1  UNL1       -0.2292
     24 C         -61.3632  -41.4662  -28.4863 C.3     1  UNL1        0.4200
     25 F         -60.1782  -40.9733  -27.9731 F       1  UNL1       -0.1658
     26 F         -62.3887  -40.5900  -28.1753 F       1  UNL1       -0.1658
     27 F         -61.2613  -41.5415  -29.8647 F       1  UNL1       -0.1658
     28 C         -62.7045  -46.7959  -23.8913 C.3     1  UNL1        0.1585
     29 O         -62.2139  -45.6317  -23.2884 O.3     1  UNL1       -0.3802
     30 H         -62.8013  -45.4556  -22.5080 H       1  UNL1        0.2105
     31 C         -66.0841  -55.6777  -21.9424 C.3     1  UNL1        0.1535
     32 C         -67.1170  -55.6711  -20.8460 C.2     1  UNL1        0.2443
     33 O         -67.3287  -56.7328  -20.1992 O.2     1  UNL1       -0.2730
     34 N         -67.8098  -54.4599  -20.4967 N.am    1  UNL1       -0.2825
     35 H         -67.4080  -53.5509  -20.8189 H       1  UNL1        0.1549
     36 C         -68.9660  -54.4130  -19.6435 C.ar    1  UNL1        0.0535
     37 C         -68.9466  -54.9558  -18.3474 C.ar    1  UNL1        0.0353
     38 C         -70.1029  -54.9104  -17.5642 C.ar    1  UNL1        0.1002
     39 N         -71.2417  -54.3576  -18.0595 N.ar    1  UNL1       -0.2422
     40 C         -71.2945  -53.8421  -19.3159 C.ar    1  UNL1        0.1002
     41 C         -70.1615  -53.8684  -20.1325 C.ar    1  UNL1        0.0353
     42 C         -66.6823  -56.2129  -23.2576 C.3     1  UNL1        0.0569
     43 C         -67.8816  -55.4113  -23.6795 C.ar    1  UNL1       -0.0017
     44 C         -67.9289  -54.0328  -23.8633 C.ar    1  UNL1        0.0681
     45 N         -69.1959  -53.6326  -24.1163 N.ar    1  UNL1       -0.3523
     46 C         -69.9518  -54.7438  -24.0801 C.ar    1  UNL1        0.0563
     47 C         -71.3349  -54.8292  -24.2353 C.ar    1  UNL1        0.0170
     48 C         -71.9343  -56.0956  -24.1091 C.ar    1  UNL1        0.0015
     49 C         -71.1483  -57.2343  -23.8275 C.ar    1  UNL1        0.0001
     50 C         -69.7544  -57.1186  -23.6768 C.ar    1  UNL1        0.0012
     51 C         -69.1866  -55.8504  -23.8132 C.ar    1  UNL1        0.0131
     52 H         -69.5215  -52.6536  -24.2767 H       1  UNL1        0.1660
@<TRIPOS>BOND
     1     1     2    2
     2     2     3   am
     3     3    31    1
     4    31    42    1
     5    42    43    1
     6    43    44   ar
     7    44    45   ar
     8    45    46   ar
     9    46    47   ar
    10    47    48   ar
    11    48    49   ar
    12    49    50   ar
    13    50    51   ar
    14    31    32    1
    15    32    33    2
    16    32    34   am
    17    34    36    1
    18    36    37   ar
    19    37    38   ar
    20    38    39   ar
    21    39    40   ar
    22    40    41   ar
    23     2     5    1
    24     5     6   ar
    25     6     7   ar
    26     7     8   ar
    27     8    12    1
    28    12    13    1
    29    13    14    1
    30    14    15    1
    31    15    18    1
    32    18    19   ar
    33    19    20   ar
    34    20    21   ar
    35    21    24    1
    36    24    25    1
    37    24    26    1
    38    24    27    1
    39    21    22   ar
    40    22    23   ar
    41    15    16    1
    42    16    28    1
    43    28    29    1
    44    16    17    1
    45     8     9   ar
    46     9    10   ar
    47    10    11    1
    48    51    43   ar
    49    41    36   ar
    50    10     5   ar
    51    51    46   ar
    52    17    12    1
    53    23    18   ar
    54     3     4    1
    55    45    52    1
    56    34    35    1
    57    29    30    1
@<TRIPOS>MOLECULE
*****
 52 57 0 0 0
SMALL
GASTEIGER

@<TRIPOS>ATOM
      1 O         -59.8891  -47.2530  -24.5235 O.2     1  UNL1       -0.2701
      2 C         -60.9677  -47.0156  -23.9143 C.2     1  UNL1        0.2483
      3 N         -61.9850  -48.0288  -23.8390 N.am    1  UNL1       -0.2945
      4 H         -62.8155  -47.8625  -23.2298 H       1  UNL1        0.1501
      5 C         -61.2058  -45.6603  -23.3730 C.ar    1  UNL1        0.0808
      6 C         -61.4799  -44.6094  -24.2637 C.ar    1  UNL1        0.0080
      7 C         -61.8098  -43.3403  -23.7842 C.ar    1  UNL1        0.0148
      8 C         -61.8604  -43.0958  -22.4054 C.ar    1  UNL1        0.0502
      9 C         -61.5479  -44.1316  -21.5127 C.ar    1  UNL1        0.0443
     10 C         -61.2158  -45.4038  -21.9885 C.ar    1  UNL1        0.1457
     11 F         -60.8754  -46.3658  -21.0944 F       1  UNL1       -0.2040
     12 N         -62.2539  -41.8047  -21.9112 N.pl3   1  UNL1       -0.3040
     13 C         -63.3976  -41.1204  -22.5279 C.3     1  UNL1        0.1123
     14 C         -63.5735  -39.6810  -22.0160 C.3     1  UNL1        0.1136
     15 N         -63.3783  -39.5467  -20.5575 N.pl3   1  UNL1       -0.2890
     16 C         -62.6002  -40.5619  -19.8164 C.3     1  UNL1        0.1230
     17 C         -61.5761  -41.2211  -20.7503 C.3     1  UNL1        0.1131
     18 C         -63.7889  -38.3304  -19.8778 C.ar    1  UNL1        0.1318
     19 C         -64.9435  -38.2822  -19.0716 C.ar    1  UNL1        0.0343
     20 C         -65.3025  -37.0878  -18.4446 C.ar    1  UNL1        0.0083
     21 C         -64.5351  -35.9303  -18.6327 C.ar    1  UNL1        0.0906
     22 C         -63.3841  -36.0185  -19.4281 C.ar    1  UNL1        0.1041
     23 N         -63.0530  -37.1924  -20.0262 N.ar    1  UNL1       -0.2292
     24 C         -64.8850  -34.6484  -17.9208 C.3     1  UNL1        0.4200
     25 F         -63.8648  -33.7337  -18.1028 F       1  UNL1       -0.1658
     26 F         -65.0530  -34.8732  -16.5654 F       1  UNL1       -0.1658
     27 F         -66.0615  -34.1175  -18.4207 F       1  UNL1       -0.1658
     28 C         -63.5269  -41.6135  -19.1766 C.3     1  UNL1        0.1585
     29 O         -63.6080  -41.4165  -17.7930 O.3     1  UNL1       -0.3802
     30 H         -64.2177  -42.1199  -17.4486 H       1  UNL1        0.2105
     31 C         -62.1062  -49.0798  -24.8546 C.3     1  UNL1        0.1535
     32 C         -62.1244  -48.4613  -26.2280 C.2     1  UNL1        0.2443
     33 O         -61.1518  -48.6669  -27.0040 O.2     1  UNL1       -0.2730
     34 N         -63.2589  -47.6983  -26.6751 N.am    1  UNL1       -0.2825
     35 H         -64.1586  -47.8001  -26.1540 H       1  UNL1        0.1549
     36 C         -63.2620  -46.8812  -27.8580 C.ar    1  UNL1        0.0535
     37 C         -63.9796  -47.2533  -29.0076 C.ar    1  UNL1        0.0353
     38 C         -63.9315  -46.4402  -30.1428 C.ar    1  UNL1        0.1002
     39 N         -63.1837  -45.3051  -30.1385 N.ar    1  UNL1       -0.2422
     40 C         -62.4650  -44.9306  -29.0475 C.ar    1  UNL1        0.1002
     41 C         -62.4843  -45.7155  -27.8921 C.ar    1  UNL1        0.0353
     42 C         -60.9513  -50.0913  -24.7229 C.3     1  UNL1        0.0569
     43 C         -61.2875  -51.1814  -23.7443 C.ar    1  UNL1       -0.0017
     44 C         -60.4173  -51.7638  -22.8278 C.ar    1  UNL1        0.0681
     45 N         -61.0178  -52.7990  -22.1976 N.ar    1  UNL1       -0.3523
     46 C         -62.2546  -52.8849  -22.7175 C.ar    1  UNL1        0.0563
     47 C         -63.2331  -53.8315  -22.4160 C.ar    1  UNL1        0.0170
     48 C         -64.4493  -53.7679  -23.1200 C.ar    1  UNL1        0.0015
     49 C         -64.6559  -52.7755  -24.1030 C.ar    1  UNL1        0.0001
     50 C         -63.6510  -51.8325  -24.3860 C.ar    1  UNL1        0.0012
     51 C         -62.4568  -51.9164  -23.6674 C.ar    1  UNL1        0.0131
     52 H         -60.5927  -53.4221  -21.4755 H       1  UNL1        0.1660
@<TRIPOS>BOND
     1     1     2    2
     2     2     3   am
     3     3    31    1
     4    31    42    1
     5    42    43    1
     6    43    44   ar
     7    44    45   ar
     8    45    46   ar
     9    46    47   ar
    10    47    48   ar
    11    48    49   ar
    12    49    50   ar
    13    50    51   ar
    14    31    32    1
    15    32    33    2
    16    32    34   am
    17    34    36    1
    18    36    37   ar
    19    37    38   ar
    20    38    39   ar
    21    39    40   ar
    22    40    41   ar
    23     2     5    1
    24     5     6   ar
    25     6     7   ar
    26     7     8   ar
    27     8    12    1
    28    12    13    1
    29    13    14    1
    30    14    15    1
    31    15    18    1
    32    18    19   ar
    33    19    20   ar
    34    20    21   ar
    35    21    24    1
    36    24    25    1
    37    24    26    1
    38    24    27    1
    39    21    22   ar
    40    22    23   ar
    41    15    16    1
    42    16    28    1
    43    28    29    1
    44    16    17    1
    45     8     9   ar
    46     9    10   ar
    47    10    11    1
    48    51    43   ar
    49    41    36   ar
    50    10     5   ar
    51    51    46   ar
    52    17    12    1
    53    23    18   ar
    54     3     4    1
    55    45    52    1
    56    34    35    1
    57    29    30    1
