@<TRIPOS>MOLECULE
*****
 45 50 0 0 0
SMALL
GASTEIGER

@<TRIPOS>ATOM
      1 C          59.3965   88.4927    6.4053 C.ar    1  UNL1        0.0702
      2 C          58.3608   89.2551    5.8543 C.ar    1  UNL1        0.0191
      3 C          58.6294   90.1924    4.8558 C.ar    1  UNL1        0.0356
      4 C          59.9521   90.3817    4.4150 C.ar    1  UNL1        0.1318
      5 N          60.9451   89.6446    4.9881 N.ar    1  UNL1       -0.2279
      6 C          60.7065   88.7239    5.9588 C.ar    1  UNL1        0.1149
      7 N          60.2721   91.3358    3.3745 N.pl3   1  UNL1       -0.2932
      8 C          59.8484   92.7432    3.4887 C.3     1  UNL1        0.0923
      9 C          59.9774   93.4903    2.1527 C.3     1  UNL1        0.0252
     10 C          59.4695   92.6038    1.0023 C.3     1  UNL1        0.0472
     11 C          60.2839   91.2859    0.8947 C.3     1  UNL1        0.0252
     12 C          61.0358   90.9224    2.1862 C.3     1  UNL1        0.0923
     13 C          59.4817   93.3830   -0.3266 C.3     1  UNL1        0.2055
     14 O          60.8084   93.7826   -0.6757 O.3     1  UNL1       -0.4732
     15 C          61.9100   92.9234   -0.8259 C.ar    1  UNL1        0.1660
     16 C          62.0278   92.0223   -1.9005 C.ar    1  UNL1        0.0392
     17 C          63.1433   91.1907   -2.0003 C.ar    1  UNL1        0.0035
     18 C          64.1513   91.2453   -1.0368 C.ar    1  UNL1        0.0089
     19 C          64.0552   92.1367    0.0456 C.ar    1  UNL1        0.1059
     20 C          62.9286   92.9808    0.1362 C.ar    1  UNL1        0.1800
     21 F          62.7971   93.8453    1.1756 F       1  UNL1       -0.2008
     22 C          65.1341   92.1994    1.0622 C.2     1  UNL1        0.3403
     23 O          66.2607   91.6920    0.8172 O.2     1  UNL1       -0.2450
     24 O          64.9365   92.8167    2.2966 O.3     1  UNL1       -0.4770
     25 H          64.0896   93.3236    2.5198 H       1  UNL1        0.2954
     26 C          59.0718   86.1233    7.2573 C.2     1  UNL1        0.2839
     27 O          59.0458   85.6402    6.0934 O.2     1  UNL1       -0.2665
     28 N          59.1070   87.5469    7.4492 N.am    1  UNL1       -0.2766
     29 H          58.8230   87.9231    8.3821 H       1  UNL1        0.1553
     30 C          60.5540   83.3001    7.5818 C.3     1  UNL1        0.0345
     31 C          59.6710   83.9946    8.5744 C.ar    1  UNL1        0.0202
     32 C          59.0249   85.2273    8.4284 C.ar    1  UNL1        0.1946
     33 O          58.3361   85.5087    9.5202 O.2     1  UNL1       -0.4492
     34 C          58.5016   84.5219   10.3666 C.ar    1  UNL1        0.1452
     35 C          57.9587   84.4033   11.6411 C.ar    1  UNL1        0.0375
     36 C          58.2697   83.2531   12.3867 C.ar    1  UNL1        0.0031
     37 C          59.1141   82.2435   11.8506 C.ar    1  UNL1        0.0002
     38 C          59.6458   82.4031   10.5483 C.ar    1  UNL1        0.0028
     39 C          59.3159   83.5574    9.8363 C.ar    1  UNL1        0.0337
     40 C          59.4359   81.0327   12.6477 C.ar    1  UNL1        0.0000
     41 C          58.5045   79.9832   12.7629 C.ar    1  UNL1        0.0000
     42 C          58.8099   78.8446   13.5150 C.ar    1  UNL1        0.0000
     43 C          60.0451   78.7398   14.1583 C.ar    1  UNL1        0.0000
     44 C          60.9776   79.7739   14.0515 C.ar    1  UNL1        0.0000
     45 C          60.6774   80.9151   13.3015 C.ar    1  UNL1        0.0000
@<TRIPOS>BOND
     1    30    31    1
     2    31    32   ar
     3    32    26    1
     4    26    27    2
     5    26    28   am
     6    28     1    1
     7     1     2   ar
     8     2     3   ar
     9     3     4   ar
    10     4     7    1
    11     7     8    1
    12     8     9    1
    13     9    10    1
    14    10    13    1
    15    13    14    1
    16    14    15    1
    17    15    16   ar
    18    16    17   ar
    19    17    18   ar
    20    18    19   ar
    21    19    22    1
    22    22    23    2
    23    22    24    1
    24    19    20   ar
    25    20    21    1
    26    10    11    1
    27    11    12    1
    28     4     5   ar
    29     5     6   ar
    30    32    33   ar
    31    33    34   ar
    32    34    35   ar
    33    35    36   ar
    34    36    37   ar
    35    37    40    1
    36    40    41   ar
    37    41    42   ar
    38    42    43   ar
    39    43    44   ar
    40    44    45   ar
    41    37    38   ar
    42    38    39   ar
    43    39    31   ar
    44     6     1   ar
    45    39    34   ar
    46    12     7    1
    47    45    40   ar
    48    20    15   ar
    49    28    29    1
    50    24    25    1
@<TRIPOS>MOLECULE
*****
 45 50 0 0 0
SMALL
GASTEIGER

@<TRIPOS>ATOM
      1 C          61.7531   86.5587   10.0225 C.ar    1  UNL1        0.0702
      2 C          60.9678   86.7601    8.8822 C.ar    1  UNL1        0.0191
      3 C          60.1246   85.7491    8.4190 C.ar    1  UNL1        0.0356
      4 C          60.0789   84.5156    9.0944 C.ar    1  UNL1        0.1318
      5 N          60.8745   84.3372   10.1867 N.ar    1  UNL1       -0.2279
      6 C          61.7001   85.3085   10.6576 C.ar    1  UNL1        0.1149
      7 N          59.2104   83.4448    8.6532 N.pl3   1  UNL1       -0.2932
      8 C          57.8586   83.2908    9.2208 C.3     1  UNL1        0.0923
      9 C          57.2486   81.9219    8.8841 C.3     1  UNL1        0.0252
     10 C          58.3066   80.8177    9.0541 C.3     1  UNL1        0.0472
     11 C          59.5234   81.0436    8.1159 C.3     1  UNL1        0.0252
     12 C          59.6558   82.4941    7.6217 C.3     1  UNL1        0.0923
     13 C          57.6779   79.4283    8.8355 C.3     1  UNL1        0.2055
     14 O          58.1094   78.5057    9.8375 O.3     1  UNL1       -0.4732
     15 C          58.7512   78.8440   11.0408 C.ar    1  UNL1        0.1660
     16 C          58.1121   78.7568   12.2916 C.ar    1  UNL1        0.0392
     17 C          58.7965   79.1067   13.4557 C.ar    1  UNL1        0.0035
     18 C          60.1198   79.5452   13.3902 C.ar    1  UNL1        0.0089
     19 C          60.7784   79.6411   12.1523 C.ar    1  UNL1        0.1059
     20 C          60.0833   79.2779   10.9797 C.ar    1  UNL1        0.1800
     21 F          60.6849   79.3702    9.7655 F       1  UNL1       -0.2008
     22 C          62.1888   80.0975   12.0878 C.2     1  UNL1        0.3403
     23 O          62.8408   80.2804   13.1499 O.2     1  UNL1       -0.2450
     24 O          62.8243   80.3286   10.8685 O.3     1  UNL1       -0.4770
     25 H          62.3893   80.1120    9.9808 H       1  UNL1        0.2954
     26 C          62.5823   88.1852   11.7865 C.2     1  UNL1        0.2839
     27 O          61.5866   87.9832   12.5324 O.2     1  UNL1       -0.2665
     28 N          62.6336   87.6020   10.4744 N.am    1  UNL1       -0.2766
     29 H          63.2935   88.0176    9.7785 H       1  UNL1        0.1553
     30 C          64.2039   87.9519   14.5414 C.3     1  UNL1        0.0345
     31 C          64.3924   88.9574   13.4457 C.ar    1  UNL1        0.0202
     32 C          63.6814   89.0563   12.2443 C.ar    1  UNL1        0.1946
     33 O          64.1368   90.0715   11.5319 O.2     1  UNL1       -0.4492
     34 C          65.1060   90.6366   12.2094 C.ar    1  UNL1        0.1452
     35 C          65.8672   91.7381   11.8343 C.ar    1  UNL1        0.0375
     36 C          66.8658   92.1823   12.7180 C.ar    1  UNL1        0.0031
     37 C          67.0880   91.5229   13.9572 C.ar    1  UNL1        0.0002
     38 C          66.2903   90.4051   14.3012 C.ar    1  UNL1        0.0028
     39 C          65.3078   89.9916   13.4001 C.ar    1  UNL1        0.0337
     40 C          68.1462   92.0010   14.8828 C.ar    1  UNL1        0.0000
     41 C          68.1330   93.3247   15.3623 C.ar    1  UNL1        0.0000
     42 C          69.1312   93.7726   16.2332 C.ar    1  UNL1        0.0000
     43 C          70.1509   92.9070   16.6352 C.ar    1  UNL1        0.0000
     44 C          70.1749   91.5915   16.1667 C.ar    1  UNL1        0.0000
     45 C          69.1799   91.1385   15.2951 C.ar    1  UNL1        0.0000
@<TRIPOS>BOND
     1    30    31    1
     2    31    32   ar
     3    32    26    1
     4    26    27    2
     5    26    28   am
     6    28     1    1
     7     1     2   ar
     8     2     3   ar
     9     3     4   ar
    10     4     7    1
    11     7     8    1
    12     8     9    1
    13     9    10    1
    14    10    13    1
    15    13    14    1
    16    14    15    1
    17    15    16   ar
    18    16    17   ar
    19    17    18   ar
    20    18    19   ar
    21    19    22    1
    22    22    23    2
    23    22    24    1
    24    19    20   ar
    25    20    21    1
    26    10    11    1
    27    11    12    1
    28     4     5   ar
    29     5     6   ar
    30    32    33   ar
    31    33    34   ar
    32    34    35   ar
    33    35    36   ar
    34    36    37   ar
    35    37    40    1
    36    40    41   ar
    37    41    42   ar
    38    42    43   ar
    39    43    44   ar
    40    44    45   ar
    41    37    38   ar
    42    38    39   ar
    43    39    31   ar
    44     6     1   ar
    45    39    34   ar
    46    12     7    1
    47    45    40   ar
    48    20    15   ar
    49    28    29    1
    50    24    25    1
@<TRIPOS>MOLECULE
*****
 45 50 0 0 0
SMALL
GASTEIGER

@<TRIPOS>ATOM
      1 C          59.9239   88.5361    6.5858 C.ar    1  UNL1        0.0702
      2 C          58.7818   89.1017    6.0084 C.ar    1  UNL1        0.0191
      3 C          58.8983   89.9842    4.9335 C.ar    1  UNL1        0.0356
      4 C          60.1733   90.3186    4.4412 C.ar    1  UNL1        0.1318
      5 N          61.2700   89.7740    5.0399 N.ar    1  UNL1       -0.2279
      6 C          61.1803   88.9097    6.0849 C.ar    1  UNL1        0.1149
      7 N          60.3377   91.2216    3.3218 N.pl3   1  UNL1       -0.2932
      8 C          59.6549   92.5280    3.3030 C.3     1  UNL1        0.0923
      9 C          59.6786   93.1666    1.9062 C.3     1  UNL1        0.0252
     10 C          59.3776   92.1031    0.8358 C.3     1  UNL1        0.0472
     11 C          60.4270   90.9586    0.8570 C.3     1  UNL1        0.0252
     12 C          61.1978   90.8578    2.1842 C.3     1  UNL1        0.0923
     13 C          59.2804   92.7517   -0.5583 C.3     1  UNL1        0.2055
     14 O          60.5234   93.3466   -0.9360 O.3     1  UNL1       -0.4732
     15 C          61.7653   92.6908   -0.9810 C.ar    1  UNL1        0.1660
     16 C          62.1038   91.7768   -1.9962 C.ar    1  UNL1        0.0392
     17 C          63.3515   91.1529   -1.9917 C.ar    1  UNL1        0.0035
     18 C          64.2741   91.4297   -0.9819 C.ar    1  UNL1        0.0089
     19 C          63.9580   92.3383    0.0428 C.ar    1  UNL1        0.1059
     20 C          62.6978   92.9721    0.0279 C.ar    1  UNL1        0.1800
     21 F          62.3544   93.8460    1.0093 F       1  UNL1       -0.2008
     22 C          64.9456   92.6381    1.1088 C.2     1  UNL1        0.3403
     23 O          66.1775   92.6320    0.8459 O.2     1  UNL1       -0.2450
     24 O          64.5444   92.9354    2.4105 O.3     1  UNL1       -0.4770
     25 H          63.5716   93.0486    2.6654 H       1  UNL1        0.2954
     26 C          59.3940   86.2687    7.5972 C.2     1  UNL1        0.2839
     27 O          58.8971   85.8345    6.5233 O.2     1  UNL1       -0.2665
     28 N          59.7888   87.6459    7.7070 N.am    1  UNL1       -0.2766
     29 H          59.9030   88.0484    8.6649 H       1  UNL1        0.1553
     30 C          62.1080   84.9939    8.7295 C.3     1  UNL1        0.0345
     31 C          60.7168   84.8137    9.2581 C.ar    1  UNL1        0.0202
     32 C          59.5340   85.3717    8.7601 C.ar    1  UNL1        0.1946
     33 O          58.5067   84.9826    9.4941 O.2     1  UNL1       -0.4492
     34 C          58.9619   84.2006   10.4421 C.ar    1  UNL1        0.1452
     35 C          58.2282   83.5691   11.4403 C.ar    1  UNL1        0.0375
     36 C          58.9226   82.7697   12.3645 C.ar    1  UNL1        0.0031
     37 C          60.3325   82.6136   12.2783 C.ar    1  UNL1        0.0002
     38 C          61.0419   83.2736   11.2461 C.ar    1  UNL1        0.0028
     39 C          60.3203   84.0591   10.3457 C.ar    1  UNL1        0.0337
     40 C          61.0555   81.7666   13.2606 C.ar    1  UNL1        0.0000
     41 C          62.0579   82.3185   14.0808 C.ar    1  UNL1        0.0000
     42 C          62.7377   81.5183   15.0043 C.ar    1  UNL1        0.0000
     43 C          62.4254   80.1620   15.1204 C.ar    1  UNL1        0.0000
     44 C          61.4329   79.6026   14.3127 C.ar    1  UNL1        0.0000
     45 C          60.7505   80.3978   13.3869 C.ar    1  UNL1        0.0000
@<TRIPOS>BOND
     1    30    31    1
     2    31    32   ar
     3    32    26    1
     4    26    27    2
     5    26    28   am
     6    28     1    1
     7     1     2   ar
     8     2     3   ar
     9     3     4   ar
    10     4     7    1
    11     7     8    1
    12     8     9    1
    13     9    10    1
    14    10    13    1
    15    13    14    1
    16    14    15    1
    17    15    16   ar
    18    16    17   ar
    19    17    18   ar
    20    18    19   ar
    21    19    22    1
    22    22    23    2
    23    22    24    1
    24    19    20   ar
    25    20    21    1
    26    10    11    1
    27    11    12    1
    28     4     5   ar
    29     5     6   ar
    30    32    33   ar
    31    33    34   ar
    32    34    35   ar
    33    35    36   ar
    34    36    37   ar
    35    37    40    1
    36    40    41   ar
    37    41    42   ar
    38    42    43   ar
    39    43    44   ar
    40    44    45   ar
    41    37    38   ar
    42    38    39   ar
    43    39    31   ar
    44     6     1   ar
    45    39    34   ar
    46    12     7    1
    47    45    40   ar
    48    20    15   ar
    49    28    29    1
    50    24    25    1
@<TRIPOS>MOLECULE
*****
 45 50 0 0 0
SMALL
GASTEIGER

@<TRIPOS>ATOM
      1 C          59.7992   89.5279    5.9355 C.ar    1  UNL1        0.0702
      2 C          58.5737   90.1487    5.6701 C.ar    1  UNL1        0.0191
      3 C          58.3807   90.8471    4.4773 C.ar    1  UNL1        0.0356
      4 C          59.4315   90.9404    3.5463 C.ar    1  UNL1        0.1318
      5 N          60.6233   90.3490    3.8426 N.ar    1  UNL1       -0.2279
      6 C          60.8327   89.6609    4.9956 C.ar    1  UNL1        0.1149
      7 N          59.2696   91.6463    2.2929 N.pl3   1  UNL1       -0.2932
      8 C          58.5561   91.0210    1.1645 C.3     1  UNL1        0.0923
      9 C          58.7945   91.7750   -0.1523 C.3     1  UNL1        0.0252
     10 C          60.2779   92.1648   -0.2749 C.3     1  UNL1        0.0472
     11 C          60.7244   93.0866    0.8925 C.3     1  UNL1        0.0252
     12 C          59.8052   93.0066    2.1231 C.3     1  UNL1        0.0923
     13 C          60.5544   92.8160   -1.6434 C.3     1  UNL1        0.2055
     14 O          61.9325   92.6952   -2.0009 O.3     1  UNL1       -0.4732
     15 C          63.0210   92.8202   -1.1212 C.ar    1  UNL1        0.1660
     16 C          64.0482   93.7624   -1.3149 C.ar    1  UNL1        0.0392
     17 C          65.1069   93.8428   -0.4101 C.ar    1  UNL1        0.0035
     18 C          65.1564   92.9909    0.6942 C.ar    1  UNL1        0.0089
     19 C          64.1422   92.0416    0.9079 C.ar    1  UNL1        0.1059
     20 C          63.0701   91.9710   -0.0062 C.ar    1  UNL1        0.1800
     21 F          62.0796   91.0571    0.1627 F       1  UNL1       -0.2008
     22 C          64.1927   91.1449    2.0890 C.2     1  UNL1        0.3403
     23 O          65.0554   90.2290    2.1479 O.2     1  UNL1       -0.2450
     24 O          63.3037   91.2913    3.1530 O.3     1  UNL1       -0.4770
     25 H          62.6502   92.0618    3.2112 H       1  UNL1        0.2954
     26 C          59.7301   87.4299    7.3634 C.2     1  UNL1        0.2839
     27 O          59.0747   86.7869    6.4999 O.2     1  UNL1       -0.2665
     28 N          59.9900   88.8310    7.1788 N.am    1  UNL1       -0.2766
     29 H          60.2529   89.3957    8.0182 H       1  UNL1        0.1553
     30 C          61.4881   84.7553    7.5331 C.3     1  UNL1        0.0345
     31 C          60.9662   85.5862    8.6664 C.ar    1  UNL1        0.0202
     32 C          60.1980   86.7533    8.5880 C.ar    1  UNL1        0.1946
     33 O          59.9311   87.2012    9.8019 O.2     1  UNL1       -0.4492
     34 C          60.4859   86.3845   10.6638 C.ar    1  UNL1        0.1452
     35 C          60.4586   86.4755   12.0510 C.ar    1  UNL1        0.0375
     36 C          61.1270   85.4849   12.7908 C.ar    1  UNL1        0.0031
     37 C          61.8093   84.4233   12.1373 C.ar    1  UNL1        0.0002
     38 C          61.8124   84.3673   10.7227 C.ar    1  UNL1        0.0028
     39 C          61.1382   85.3674   10.0200 C.ar    1  UNL1        0.0337
     40 C          62.5123   83.3825   12.9294 C.ar    1  UNL1        0.0000
     41 C          63.8564   83.0629   12.6585 C.ar    1  UNL1        0.0000
     42 C          64.5156   82.0816   13.4054 C.ar    1  UNL1        0.0000
     43 C          63.8434   81.4104   14.4292 C.ar    1  UNL1        0.0000
     44 C          62.5100   81.7184   14.7079 C.ar    1  UNL1        0.0000
     45 C          61.8456   82.6981   13.9637 C.ar    1  UNL1        0.0000
@<TRIPOS>BOND
     1    30    31    1
     2    31    32   ar
     3    32    26    1
     4    26    27    2
     5    26    28   am
     6    28     1    1
     7     1     2   ar
     8     2     3   ar
     9     3     4   ar
    10     4     7    1
    11     7     8    1
    12     8     9    1
    13     9    10    1
    14    10    13    1
    15    13    14    1
    16    14    15    1
    17    15    16   ar
    18    16    17   ar
    19    17    18   ar
    20    18    19   ar
    21    19    22    1
    22    22    23    2
    23    22    24    1
    24    19    20   ar
    25    20    21    1
    26    10    11    1
    27    11    12    1
    28     4     5   ar
    29     5     6   ar
    30    32    33   ar
    31    33    34   ar
    32    34    35   ar
    33    35    36   ar
    34    36    37   ar
    35    37    40    1
    36    40    41   ar
    37    41    42   ar
    38    42    43   ar
    39    43    44   ar
    40    44    45   ar
    41    37    38   ar
    42    38    39   ar
    43    39    31   ar
    44     6     1   ar
    45    39    34   ar
    46    12     7    1
    47    45    40   ar
    48    20    15   ar
    49    28    29    1
    50    24    25    1
@<TRIPOS>MOLECULE
*****
 45 50 0 0 0
SMALL
GASTEIGER

@<TRIPOS>ATOM
      1 C          59.2180   89.7632    5.7594 C.ar    1  UNL1        0.0702
      2 C          58.0019   90.2271    5.2461 C.ar    1  UNL1        0.0191
      3 C          57.9532   90.8401    3.9933 C.ar    1  UNL1        0.0356
      4 C          59.1377   91.0066    3.2523 C.ar    1  UNL1        0.1318
      5 N          60.3123   90.5696    3.7881 N.ar    1  UNL1       -0.2279
      6 C          60.3829   89.9667    5.0040 C.ar    1  UNL1        0.1149
      7 N          59.1294   91.6277    1.9447 N.pl3   1  UNL1       -0.2932
      8 C          58.5730   90.9177    0.7786 C.3     1  UNL1        0.0923
      9 C          58.9694   91.5905   -0.5442 C.3     1  UNL1        0.0252
     10 C          60.4518   92.0004   -0.5031 C.3     1  UNL1        0.0472
     11 C          60.7351   93.0035    0.6482 C.3     1  UNL1        0.0252
     12 C          59.6672   92.9844    1.7549 C.3     1  UNL1        0.0923
     13 C          60.8937   92.5680   -1.8654 C.3     1  UNL1        0.2055
     14 O          62.3157   92.5303   -2.0010 O.3     1  UNL1       -0.4732
     15 C          63.2428   92.7124   -0.9610 C.ar    1  UNL1        0.1660
     16 C          64.2331   93.7117   -0.9944 C.ar    1  UNL1        0.0392
     17 C          65.1295   93.8476    0.0658 C.ar    1  UNL1        0.0035
     18 C          65.0518   92.9950    1.1679 C.ar    1  UNL1        0.0089
     19 C          64.0717   91.9892    1.2231 C.ar    1  UNL1        0.1059
     20 C          63.1630   91.8624    0.1515 C.ar    1  UNL1        0.1800
     21 F          62.2112   90.8935    0.1661 F       1  UNL1       -0.2008
     22 C          63.9854   91.0915    2.4014 C.2     1  UNL1        0.3403
     23 O          63.1434   91.3230    3.3092 O.2     1  UNL1       -0.2450
     24 O          64.8175   89.9806    2.5330 O.3     1  UNL1       -0.4770
     25 H          65.4484   89.6859    1.7987 H       1  UNL1        0.2954
     26 C          59.8788   87.8896    7.3399 C.2     1  UNL1        0.2839
     27 O          60.2096   87.1233    6.3954 O.2     1  UNL1       -0.2665
     28 N          59.2554   89.1538    7.0614 N.am    1  UNL1       -0.2766
     29 H          58.7244   89.6191    7.8322 H       1  UNL1        0.1553
     30 C          61.9863   89.1236    9.4155 C.3     1  UNL1        0.0345
     31 C          61.0124   88.0079    9.6478 C.ar    1  UNL1        0.0202
     32 C          60.0942   87.4714    8.7382 C.ar    1  UNL1        0.1946
     33 O          59.4065   86.4992    9.3105 O.2     1  UNL1       -0.4492
     34 C          59.8317   86.3771   10.5442 C.ar    1  UNL1        0.1452
     35 C          59.3843   85.4781   11.5059 C.ar    1  UNL1        0.0375
     36 C          59.9820   85.5199   12.7774 C.ar    1  UNL1        0.0031
     37 C          61.0126   86.4543   13.0677 C.ar    1  UNL1        0.0002
     38 C          61.4394   87.3520   12.0596 C.ar    1  UNL1        0.0028
     39 C          60.8241   87.2824   10.8087 C.ar    1  UNL1        0.0337
     40 C          61.6366   86.4893   14.4147 C.ar    1  UNL1        0.0000
     41 C          61.3240   85.5073   15.3740 C.ar    1  UNL1        0.0000
     42 C          61.9124   85.5432   16.6420 C.ar    1  UNL1        0.0000
     43 C          62.8177   86.5561   16.9664 C.ar    1  UNL1        0.0000
     44 C          63.1362   87.5358   16.0234 C.ar    1  UNL1        0.0000
     45 C          62.5502   87.5053   14.7543 C.ar    1  UNL1        0.0000
@<TRIPOS>BOND
     1    30    31    1
     2    31    32   ar
     3    32    26    1
     4    26    27    2
     5    26    28   am
     6    28     1    1
     7     1     2   ar
     8     2     3   ar
     9     3     4   ar
    10     4     7    1
    11     7     8    1
    12     8     9    1
    13     9    10    1
    14    10    13    1
    15    13    14    1
    16    14    15    1
    17    15    16   ar
    18    16    17   ar
    19    17    18   ar
    20    18    19   ar
    21    19    22    1
    22    22    23    2
    23    22    24    1
    24    19    20   ar
    25    20    21    1
    26    10    11    1
    27    11    12    1
    28     4     5   ar
    29     5     6   ar
    30    32    33   ar
    31    33    34   ar
    32    34    35   ar
    33    35    36   ar
    34    36    37   ar
    35    37    40    1
    36    40    41   ar
    37    41    42   ar
    38    42    43   ar
    39    43    44   ar
    40    44    45   ar
    41    37    38   ar
    42    38    39   ar
    43    39    31   ar
    44     6     1   ar
    45    39    34   ar
    46    12     7    1
    47    45    40   ar
    48    20    15   ar
    49    28    29    1
    50    24    25    1
