@<TRIPOS>MOLECULE
*****
 50 55 0 0 0
SMALL
GASTEIGER

@<TRIPOS>ATOM
      1 O          14.7322   82.0200   24.6384 O.2     1  UNL1       -0.2701
      2 C          13.5231   82.3569   24.5098 C.2     1  UNL1        0.2483
      3 N          13.1962   83.6526   23.9836 N.am    1  UNL1       -0.2945
      4 H          12.2315   83.8153   23.6153 H       1  UNL1        0.1501
      5 C          12.4595   81.3933   24.8734 C.ar    1  UNL1        0.0808
      6 C          11.1824   81.8667   25.2152 C.ar    1  UNL1        0.0080
      7 C          10.1637   80.9770   25.5648 C.ar    1  UNL1        0.0148
      8 C          10.3953   79.5905   25.5694 C.ar    1  UNL1        0.0502
      9 C          11.6699   79.1166   25.2140 C.ar    1  UNL1        0.0443
     10 C          12.6917   80.0047   24.8640 C.ar    1  UNL1        0.1457
     11 F          13.8865   79.4982   24.4685 F       1  UNL1       -0.2040
     12 N           9.3446   78.6681   25.9352 N.pl3   1  UNL1       -0.3040
     13 C           8.9836   77.5617   25.0375 C.3     1  UNL1        0.1123
     14 C           8.5014   76.3471   25.8383 C.3     1  UNL1        0.1136
     15 N           7.4807   76.7154   26.8339 N.pl3   1  UNL1       -0.2897
     16 C           7.2349   78.1332   27.1341 C.3     1  UNL1        0.1136
     17 C           8.5517   78.9155   27.1496 C.3     1  UNL1        0.1123
     18 C           6.6255   75.7040   27.4134 C.ar    1  UNL1        0.1323
     19 C           6.6830   74.3667   26.9909 C.ar    1  UNL1        0.0343
     20 C           5.8407   73.4206   27.5744 C.ar    1  UNL1        0.0088
     21 C           4.9361   73.7946   28.5829 C.ar    1  UNL1        0.0955
     22 C           4.9119   75.1475   28.9836 C.ar    1  UNL1        0.1206
     23 BR          3.7334   75.7931   30.3500 Br      1  UNL1       -0.0280
     24 N           5.7455   76.0452   28.3946 N.ar    1  UNL1       -0.2240
     25 C           4.0206   72.7723   29.2198 C.3     1  UNL1        0.4204
     26 F           4.3372   71.5097   28.7525 F       1  UNL1       -0.1658
     27 F           4.1748   72.8021   30.5939 F       1  UNL1       -0.1658
     28 F           2.6906   73.0220   28.9275 F       1  UNL1       -0.1658
     29 C          14.2200   84.6718   23.7362 C.3     1  UNL1        0.1535
     30 C          14.6938   84.5737   22.3115 C.2     1  UNL1        0.2443
     31 O          15.5367   83.6888   21.9984 O.2     1  UNL1       -0.2730
     32 N          14.2255   85.5127   21.3299 N.am    1  UNL1       -0.2825
     33 H          13.7851   86.3975   21.6697 H       1  UNL1        0.1549
     34 C          14.4278   85.3638   19.9142 C.ar    1  UNL1        0.0535
     35 C          15.0118   84.2062   19.3721 C.ar    1  UNL1        0.0353
     36 C          15.1650   84.0957   17.9877 C.ar    1  UNL1        0.1002
     37 N          14.7385   85.0954   17.1715 N.ar    1  UNL1       -0.2422
     38 C          14.1535   86.2178   17.6668 C.ar    1  UNL1        0.1002
     39 C          13.9801   86.3680   19.0448 C.ar    1  UNL1        0.0353
     40 C          13.6670   86.0794   24.0184 C.3     1  UNL1        0.0569
     41 C          14.5900   86.8559   24.9122 C.ar    1  UNL1       -0.0017
     42 C          14.4370   87.0680   26.2790 C.ar    1  UNL1        0.0681
     43 N          15.4998   87.7425   26.7739 N.ar    1  UNL1       -0.3523
     44 C          16.3256   87.9497   25.7335 C.ar    1  UNL1        0.0563
     45 C          17.5642   88.5896   25.7519 C.ar    1  UNL1        0.0170
     46 C          18.2760   88.6793   24.5414 C.ar    1  UNL1        0.0015
     47 C          17.7413   88.1310   23.3543 C.ar    1  UNL1        0.0001
     48 C          16.4897   87.4889   23.3660 C.ar    1  UNL1        0.0012
     49 C          15.8062   87.4195   24.5802 C.ar    1  UNL1        0.0131
     50 H          15.6512   88.0284   27.7667 H       1  UNL1        0.1660
@<TRIPOS>BOND
     1     1     2    2
     2     2     3   am
     3     3    29    1
     4    29    40    1
     5    40    41    1
     6    41    42   ar
     7    42    43   ar
     8    43    44   ar
     9    44    45   ar
    10    45    46   ar
    11    46    47   ar
    12    47    48   ar
    13    48    49   ar
    14    29    30    1
    15    30    31    2
    16    30    32   am
    17    32    34    1
    18    34    35   ar
    19    35    36   ar
    20    36    37   ar
    21    37    38   ar
    22    38    39   ar
    23     2     5    1
    24     5     6   ar
    25     6     7   ar
    26     7     8   ar
    27     8    12    1
    28    12    13    1
    29    13    14    1
    30    14    15    1
    31    15    18    1
    32    18    19   ar
    33    19    20   ar
    34    20    21   ar
    35    21    25    1
    36    25    26    1
    37    25    27    1
    38    25    28    1
    39    21    22   ar
    40    22    23    1
    41    22    24   ar
    42    15    16    1
    43    16    17    1
    44     8     9   ar
    45     9    10   ar
    46    10    11    1
    47    49    41   ar
    48    39    34   ar
    49    10     5   ar
    50    49    44   ar
    51    17    12    1
    52    24    18   ar
    53     3     4    1
    54    43    50    1
    55    32    33    1
@<TRIPOS>MOLECULE
*****
 50 55 0 0 0
SMALL
GASTEIGER

@<TRIPOS>ATOM
      1 O          10.5124   74.6116   25.7435 O.2     1  UNL1       -0.2701
      2 C           9.8412   75.6290   25.4177 C.2     1  UNL1        0.2483
      3 N           8.4262   75.5106   25.2021 N.am    1  UNL1       -0.2945
      4 H           7.8422   76.3774   25.2188 H       1  UNL1        0.1501
      5 C          10.5219   76.9382   25.2965 C.ar    1  UNL1        0.0808
      6 C          10.0548   78.0339   26.0401 C.ar    1  UNL1        0.0080
      7 C          10.6787   79.2798   25.9401 C.ar    1  UNL1        0.0148
      8 C          11.7932   79.4564   25.1019 C.ar    1  UNL1        0.0502
      9 C          12.2688   78.3558   24.3682 C.ar    1  UNL1        0.0443
     10 C          11.6460   77.1076   24.4660 C.ar    1  UNL1        0.1457
     11 F          12.1781   76.0604   23.7871 F       1  UNL1       -0.2040
     12 N          12.4377   80.7453   24.9928 N.pl3   1  UNL1       -0.3040
     13 C          13.8756   80.8808   25.2660 C.3     1  UNL1        0.1123
     14 C          14.4903   81.9902   24.4055 C.3     1  UNL1        0.1136
     15 N          13.7104   83.2373   24.4776 N.pl3   1  UNL1       -0.2897
     16 C          12.3771   83.2272   25.0964 C.3     1  UNL1        0.1136
     17 C          11.6250   81.9437   24.7319 C.3     1  UNL1        0.1123
     18 C          14.3002   84.4935   24.0724 C.ar    1  UNL1        0.1323
     19 C          14.8366   84.6697   22.7873 C.ar    1  UNL1        0.0343
     20 C          15.3976   85.8969   22.4347 C.ar    1  UNL1        0.0088
     21 C          15.4288   86.9589   23.3546 C.ar    1  UNL1        0.0955
     22 C          14.8751   86.7440   24.6347 C.ar    1  UNL1        0.1206
     23 BR         14.8456   88.1057   25.9829 Br      1  UNL1       -0.0280
     24 N          14.3363   85.5359   24.9475 N.ar    1  UNL1       -0.2240
     25 C          16.0355   88.2925   22.9772 C.3     1  UNL1        0.4204
     26 F          17.0908   88.5794   23.8239 F       1  UNL1       -0.1658
     27 F          16.4967   88.2415   21.6744 F       1  UNL1       -0.1658
     28 F          15.1129   89.3206   23.0703 F       1  UNL1       -0.1658
     29 C           7.7483   74.2113   25.1888 C.3     1  UNL1        0.1535
     30 C           6.5393   74.2652   26.0830 C.2     1  UNL1        0.2443
     31 O           5.4389   74.6654   25.6134 O.2     1  UNL1       -0.2730
     32 N           6.6526   73.9104   27.4706 N.am    1  UNL1       -0.2825
     33 H           7.6084   73.8838   27.8927 H       1  UNL1        0.1549
     34 C           5.5278   73.7021   28.3417 C.ar    1  UNL1        0.0535
     35 C           4.7719   72.5182   28.2969 C.ar    1  UNL1        0.0353
     36 C           3.7028   72.3499   29.1807 C.ar    1  UNL1        0.1002
     37 N           3.4064   73.3192   30.0863 N.ar    1  UNL1       -0.2422
     38 C           4.1318   74.4659   30.1645 C.ar    1  UNL1        0.1002
     39 C           5.2096   74.6738   29.3004 C.ar    1  UNL1        0.0353
     40 C           7.3360   73.8263   23.7576 C.3     1  UNL1        0.0569
     41 C           8.4080   74.1839   22.7693 C.ar    1  UNL1       -0.0017
     42 C           8.4289   75.2975   21.9351 C.ar    1  UNL1        0.0681
     43 N           9.5863   75.3423   21.2366 N.ar    1  UNL1       -0.3523
     44 C          10.2990   74.2722   21.6294 C.ar    1  UNL1        0.0563
     45 C          11.5732   73.9018   21.2013 C.ar    1  UNL1        0.0170
     46 C          12.1450   72.7452   21.7627 C.ar    1  UNL1        0.0015
     47 C          11.4399   71.9954   22.7303 C.ar    1  UNL1        0.0001
     48 C          10.1561   72.3942   23.1449 C.ar    1  UNL1        0.0012
     49 C           9.6142   73.5426   22.5672 C.ar    1  UNL1        0.0131
     50 H           9.8709   76.0710   20.5449 H       1  UNL1        0.1660
@<TRIPOS>BOND
     1     1     2    2
     2     2     3   am
     3     3    29    1
     4    29    40    1
     5    40    41    1
     6    41    42   ar
     7    42    43   ar
     8    43    44   ar
     9    44    45   ar
    10    45    46   ar
    11    46    47   ar
    12    47    48   ar
    13    48    49   ar
    14    29    30    1
    15    30    31    2
    16    30    32   am
    17    32    34    1
    18    34    35   ar
    19    35    36   ar
    20    36    37   ar
    21    37    38   ar
    22    38    39   ar
    23     2     5    1
    24     5     6   ar
    25     6     7   ar
    26     7     8   ar
    27     8    12    1
    28    12    13    1
    29    13    14    1
    30    14    15    1
    31    15    18    1
    32    18    19   ar
    33    19    20   ar
    34    20    21   ar
    35    21    25    1
    36    25    26    1
    37    25    27    1
    38    25    28    1
    39    21    22   ar
    40    22    23    1
    41    22    24   ar
    42    15    16    1
    43    16    17    1
    44     8     9   ar
    45     9    10   ar
    46    10    11    1
    47    49    41   ar
    48    39    34   ar
    49    10     5   ar
    50    49    44   ar
    51    17    12    1
    52    24    18   ar
    53     3     4    1
    54    43    50    1
    55    32    33    1
@<TRIPOS>MOLECULE
*****
 50 55 0 0 0
SMALL
GASTEIGER

@<TRIPOS>ATOM
      1 O          10.5195   77.9491   25.4588 O.2     1  UNL1       -0.2701
      2 C           9.3757   77.6854   25.9215 C.2     1  UNL1        0.2483
      3 N           9.1359   77.7925   27.3335 N.am    1  UNL1       -0.2945
      4 H           8.1486   77.8564   27.6709 H       1  UNL1        0.1501
      5 C           8.2887   77.3017   24.9925 C.ar    1  UNL1        0.0808
      6 C           8.5090   77.3578   23.6068 C.ar    1  UNL1        0.0080
      7 C           7.4975   77.0038   22.7105 C.ar    1  UNL1        0.0148
      8 C           6.2444   76.5734   23.1798 C.ar    1  UNL1        0.0502
      9 C           6.0290   76.5044   24.5671 C.ar    1  UNL1        0.0443
     10 C           7.0393   76.8585   25.4666 C.ar    1  UNL1        0.1457
     11 F           6.8060   76.7166   26.7955 F       1  UNL1       -0.2040
     12 N           5.1947   76.2110   22.2549 N.pl3   1  UNL1       -0.3040
     13 C           5.4107   75.1412   21.2704 C.3     1  UNL1        0.1123
     14 C           4.0999   74.4058   20.9704 C.3     1  UNL1        0.1136
     15 N           3.0039   75.3399   20.6622 N.pl3   1  UNL1       -0.2897
     16 C           3.1795   76.7772   20.9159 C.3     1  UNL1        0.1136
     17 C           3.9550   77.0024   22.2174 C.3     1  UNL1        0.1123
     18 C           1.8143   74.8743   19.9854 C.ar    1  UNL1        0.1323
     19 C           1.1061   75.6999   19.0982 C.ar    1  UNL1        0.0343
     20 C          -0.0377   75.2139   18.4653 C.ar    1  UNL1        0.0088
     21 C          -0.4861   73.9041   18.7070 C.ar    1  UNL1        0.0955
     22 C           0.2559   73.1036   19.6015 C.ar    1  UNL1        0.1206
     23 BR         -0.2385   71.2993   20.0173 Br      1  UNL1       -0.0280
     24 N           1.3660   73.6072   20.2027 N.ar    1  UNL1       -0.2240
     25 C          -1.7257   73.3715   18.0225 C.3     1  UNL1        0.4204
     26 F          -2.8513   73.7857   18.7112 F       1  UNL1       -0.1658
     27 F          -1.7827   73.8494   16.7259 F       1  UNL1       -0.1658
     28 F          -1.7311   71.9878   17.9749 F       1  UNL1       -0.1658
     29 C          10.2186   78.0440   28.2888 C.3     1  UNL1        0.1535
     30 C          10.0557   79.4162   28.8843 C.2     1  UNL1        0.2443
     31 O           9.8896   80.4070   28.1212 O.2     1  UNL1       -0.2730
     32 N          10.1386   79.5989   30.3070 N.am    1  UNL1       -0.2825
     33 H          10.5735   78.8362   30.8741 H       1  UNL1        0.1549
     34 C           9.7661   80.8109   30.9850 C.ar    1  UNL1        0.0535
     35 C           9.0895   80.7868   32.2165 C.ar    1  UNL1        0.0353
     36 C           8.7705   81.9903   32.8507 C.ar    1  UNL1        0.1002
     37 N           9.1255   83.1747   32.2861 N.ar    1  UNL1       -0.2422
     38 C           9.7967   83.2274   31.1054 C.ar    1  UNL1        0.1002
     39 C          10.1361   82.0475   30.4389 C.ar    1  UNL1        0.0353
     40 C          10.2247   76.9786   29.3985 C.3     1  UNL1        0.0569
     41 C           8.9727   76.1510   29.3631 C.ar    1  UNL1       -0.0017
     42 C           8.8262   74.8928   28.7868 C.ar    1  UNL1        0.0681
     43 N           7.5830   74.4111   29.0148 N.ar    1  UNL1       -0.3523
     44 C           6.9474   75.3501   29.7371 C.ar    1  UNL1        0.0563
     45 C           5.6443   75.2986   30.2304 C.ar    1  UNL1        0.0170
     46 C           5.1834   76.3930   30.9853 C.ar    1  UNL1        0.0015
     47 C           6.0265   77.4998   31.2298 C.ar    1  UNL1        0.0001
     48 C           7.3379   77.5234   30.7210 C.ar    1  UNL1        0.0012
     49 C           7.7646   76.4258   29.9731 C.ar    1  UNL1        0.0131
     50 H           7.2034   73.4893   28.7041 H       1  UNL1        0.1660
@<TRIPOS>BOND
     1     1     2    2
     2     2     3   am
     3     3    29    1
     4    29    40    1
     5    40    41    1
     6    41    42   ar
     7    42    43   ar
     8    43    44   ar
     9    44    45   ar
    10    45    46   ar
    11    46    47   ar
    12    47    48   ar
    13    48    49   ar
    14    29    30    1
    15    30    31    2
    16    30    32   am
    17    32    34    1
    18    34    35   ar
    19    35    36   ar
    20    36    37   ar
    21    37    38   ar
    22    38    39   ar
    23     2     5    1
    24     5     6   ar
    25     6     7   ar
    26     7     8   ar
    27     8    12    1
    28    12    13    1
    29    13    14    1
    30    14    15    1
    31    15    18    1
    32    18    19   ar
    33    19    20   ar
    34    20    21   ar
    35    21    25    1
    36    25    26    1
    37    25    27    1
    38    25    28    1
    39    21    22   ar
    40    22    23    1
    41    22    24   ar
    42    15    16    1
    43    16    17    1
    44     8     9   ar
    45     9    10   ar
    46    10    11    1
    47    49    41   ar
    48    39    34   ar
    49    10     5   ar
    50    49    44   ar
    51    17    12    1
    52    24    18   ar
    53     3     4    1
    54    43    50    1
    55    32    33    1
@<TRIPOS>MOLECULE
*****
 50 55 0 0 0
SMALL
GASTEIGER

@<TRIPOS>ATOM
      1 O          10.5670   76.8711   25.9299 O.2     1  UNL1       -0.2701
      2 C           9.3682   77.1631   26.1932 C.2     1  UNL1        0.2483
      3 N           9.0491   77.8162   27.4319 N.am    1  UNL1       -0.2945
      4 H           8.1291   78.3048   27.5186 H       1  UNL1        0.1501
      5 C           8.3127   76.8566   25.2012 C.ar    1  UNL1        0.0808
      6 C           6.9962   76.6343   25.6361 C.ar    1  UNL1        0.0080
      7 C           5.9840   76.3404   24.7192 C.ar    1  UNL1        0.0148
      8 C           6.2627   76.2734   23.3431 C.ar    1  UNL1        0.0502
      9 C           7.5780   76.5094   22.9073 C.ar    1  UNL1        0.0443
     10 C           8.5933   76.8034   23.8227 C.ar    1  UNL1        0.1457
     11 F           9.8336   77.0848   23.3501 F       1  UNL1       -0.2040
     12 N           5.2185   75.9648   22.3928 N.pl3   1  UNL1       -0.3040
     13 C           5.4136   74.9028   21.3957 C.3     1  UNL1        0.1123
     14 C           4.0823   74.2218   21.0592 C.3     1  UNL1        0.1136
     15 N           3.0282   75.2011   20.7453 N.pl3   1  UNL1       -0.2897
     16 C           3.2524   76.6267   21.0252 C.3     1  UNL1        0.1136
     17 C           4.0101   76.8028   22.3446 C.3     1  UNL1        0.1123
     18 C           1.8355   74.7909   20.0387 C.ar    1  UNL1        0.1323
     19 C           1.1654   75.6623   19.1659 C.ar    1  UNL1        0.0343
     20 C           0.0172   75.2292   18.5032 C.ar    1  UNL1        0.0088
     21 C          -0.4734   73.9271   18.7008 C.ar    1  UNL1        0.0955
     22 C           0.2310   73.0796   19.5822 C.ar    1  UNL1        0.1206
     23 BR         -0.3229   71.2800   19.9390 Br      1  UNL1       -0.0280
     24 N           1.3466   73.5323   20.2132 N.ar    1  UNL1       -0.2240
     25 C          -1.7180   73.4518   17.9840 C.3     1  UNL1        0.4204
     26 F          -1.7638   72.0695   17.9989 F       1  UNL1       -0.1658
     27 F          -2.8402   73.9522   18.6190 F       1  UNL1       -0.1658
     28 F          -1.7428   73.8723   16.6652 F       1  UNL1       -0.1658
     29 C          10.0488   78.0163   28.4849 C.3     1  UNL1        0.1535
     30 C           9.9304   79.4128   29.0324 C.2     1  UNL1        0.2443
     31 O           9.7543   80.3768   28.2380 O.2     1  UNL1       -0.2730
     32 N          10.0665   79.6478   30.4433 N.am    1  UNL1       -0.2825
     33 H          10.5082   78.8993   31.0239 H       1  UNL1        0.1549
     34 C           9.7389   80.8912   31.0866 C.ar    1  UNL1        0.0535
     35 C           9.0728   80.9265   32.3236 C.ar    1  UNL1        0.0353
     36 C           8.7979   82.1584   32.9229 C.ar    1  UNL1        0.1002
     37 N           9.1855   83.3129   32.3194 N.ar    1  UNL1       -0.2422
     38 C           9.8475   83.3081   31.1324 C.ar    1  UNL1        0.1002
     39 C          10.1432   82.0981   30.4998 C.ar    1  UNL1        0.0353
     40 C           9.8673   76.9848   29.6117 C.3     1  UNL1        0.0569
     41 C           8.4137   76.7581   29.9110 C.ar    1  UNL1       -0.0017
     42 C           7.5873   77.5752   30.6765 C.ar    1  UNL1        0.0681
     43 N           6.3188   77.1060   30.6658 N.ar    1  UNL1       -0.3523
     44 C           6.3359   76.0059   29.8933 C.ar    1  UNL1        0.0563
     45 C           5.2569   75.1858   29.5664 C.ar    1  UNL1        0.0170
     46 C           5.4980   74.0885   28.7192 C.ar    1  UNL1        0.0015
     47 C           6.7965   73.8404   28.2212 C.ar    1  UNL1        0.0001
     48 C           7.8663   74.6863   28.5664 C.ar    1  UNL1        0.0012
     49 C           7.5967   75.7633   29.4112 C.ar    1  UNL1        0.0131
     50 H           5.4933   77.5256   31.1486 H       1  UNL1        0.1660
@<TRIPOS>BOND
     1     1     2    2
     2     2     3   am
     3     3    29    1
     4    29    40    1
     5    40    41    1
     6    41    42   ar
     7    42    43   ar
     8    43    44   ar
     9    44    45   ar
    10    45    46   ar
    11    46    47   ar
    12    47    48   ar
    13    48    49   ar
    14    29    30    1
    15    30    31    2
    16    30    32   am
    17    32    34    1
    18    34    35   ar
    19    35    36   ar
    20    36    37   ar
    21    37    38   ar
    22    38    39   ar
    23     2     5    1
    24     5     6   ar
    25     6     7   ar
    26     7     8   ar
    27     8    12    1
    28    12    13    1
    29    13    14    1
    30    14    15    1
    31    15    18    1
    32    18    19   ar
    33    19    20   ar
    34    20    21   ar
    35    21    25    1
    36    25    26    1
    37    25    27    1
    38    25    28    1
    39    21    22   ar
    40    22    23    1
    41    22    24   ar
    42    15    16    1
    43    16    17    1
    44     8     9   ar
    45     9    10   ar
    46    10    11    1
    47    49    41   ar
    48    39    34   ar
    49    10     5   ar
    50    49    44   ar
    51    17    12    1
    52    24    18   ar
    53     3     4    1
    54    43    50    1
    55    32    33    1
@<TRIPOS>MOLECULE
*****
 50 55 0 0 0
SMALL
GASTEIGER

@<TRIPOS>ATOM
      1 O          14.5693   82.6509   24.0743 O.2     1  UNL1       -0.2701
      2 C          13.4350   83.0928   24.4055 C.2     1  UNL1        0.2483
      3 N          13.1673   84.5016   24.3247 N.am    1  UNL1       -0.2945
      4 H          12.1728   84.8234   24.3190 H       1  UNL1        0.1501
      5 C          12.3858   82.1431   24.8406 C.ar    1  UNL1        0.0808
      6 C          11.7030   81.3773   23.8818 C.ar    1  UNL1        0.0080
      7 C          10.7071   80.4770   24.2678 C.ar    1  UNL1        0.0148
      8 C          10.3783   80.3126   25.6246 C.ar    1  UNL1        0.0502
      9 C          11.0715   81.0694   26.5849 C.ar    1  UNL1        0.0443
     10 C          12.0686   81.9717   26.2015 C.ar    1  UNL1        0.1457
     11 F          12.7529   82.6341   27.1678 F       1  UNL1       -0.2040
     12 N           9.3451   79.3854   26.0264 N.pl3   1  UNL1       -0.3040
     13 C           8.7094   78.5078   25.0334 C.3     1  UNL1        0.1123
     14 C           8.2927   77.1778   25.6710 C.3     1  UNL1        0.1136
     15 N           7.5346   77.3796   26.9173 N.pl3   1  UNL1       -0.2897
     16 C           7.4851   78.7144   27.5311 C.3     1  UNL1        0.1136
     17 C           8.8427   79.4129   27.4089 C.3     1  UNL1        0.1123
     18 C           6.7275   76.3118   27.4638 C.ar    1  UNL1        0.1323
     19 C           6.9209   74.9764   27.0771 C.ar    1  UNL1        0.0343
     20 C           6.1211   73.9749   27.6268 C.ar    1  UNL1        0.0088
     21 C           5.1244   74.2912   28.5658 C.ar    1  UNL1        0.0955
     22 C           4.9643   75.6445   28.9325 C.ar    1  UNL1        0.1206
     23 BR          3.6494   76.2153   30.2045 Br      1  UNL1       -0.0280
     24 N           5.7597   76.5970   28.3779 N.ar    1  UNL1       -0.2240
     25 C           4.2545   73.2086   29.1659 C.3     1  UNL1        0.4204
     26 F           4.7209   71.9670   28.7740 F       1  UNL1       -0.1658
     27 F           4.2905   73.2947   30.5458 F       1  UNL1       -0.1658
     28 F           2.9364   73.3251   28.7587 F       1  UNL1       -0.1658
     29 C          14.2192   85.4763   24.0221 C.3     1  UNL1        0.1535
     30 C          14.5371   85.4335   22.5520 C.2     1  UNL1        0.2443
     31 O          15.5307   84.7667   22.1523 O.2     1  UNL1       -0.2730
     32 N          13.7434   86.1864   21.6206 N.am    1  UNL1       -0.2825
     33 H          13.1403   86.9519   21.9983 H       1  UNL1        0.1549
     34 C          13.8135   86.0288   20.1932 C.ar    1  UNL1        0.0535
     35 C          13.9333   87.1359   19.3359 C.ar    1  UNL1        0.0353
     36 C          14.0237   86.9322   17.9565 C.ar    1  UNL1        0.1002
     37 N          14.0101   85.6708   17.4503 N.ar    1  UNL1       -0.2422
     38 C          13.9140   84.5812   18.2570 C.ar    1  UNL1        0.1002
     39 C          13.8228   84.7403   19.6418 C.ar    1  UNL1        0.0353
     40 C          13.7832   86.8935   24.4321 C.3     1  UNL1        0.0569
     41 C          14.8494   87.5775   25.2377 C.ar    1  UNL1       -0.0017
     42 C          16.0729   88.0446   24.7672 C.ar    1  UNL1        0.0681
     43 N          16.7468   88.6791   25.7535 N.ar    1  UNL1       -0.3523
     44 C          15.9555   88.6242   26.8390 C.ar    1  UNL1        0.0563
     45 C          16.2123   89.1605   28.1001 C.ar    1  UNL1        0.0170
     46 C          15.2293   89.0025   29.0943 C.ar    1  UNL1        0.0015
     47 C          14.0244   88.3228   28.8080 C.ar    1  UNL1        0.0001
     48 C          13.7915   87.7937   27.5255 C.ar    1  UNL1        0.0012
     49 C          14.7865   87.9626   26.5623 C.ar    1  UNL1        0.0131
     50 H          17.6847   89.1320   25.6782 H       1  UNL1        0.1660
@<TRIPOS>BOND
     1     1     2    2
     2     2     3   am
     3     3    29    1
     4    29    40    1
     5    40    41    1
     6    41    42   ar
     7    42    43   ar
     8    43    44   ar
     9    44    45   ar
    10    45    46   ar
    11    46    47   ar
    12    47    48   ar
    13    48    49   ar
    14    29    30    1
    15    30    31    2
    16    30    32   am
    17    32    34    1
    18    34    35   ar
    19    35    36   ar
    20    36    37   ar
    21    37    38   ar
    22    38    39   ar
    23     2     5    1
    24     5     6   ar
    25     6     7   ar
    26     7     8   ar
    27     8    12    1
    28    12    13    1
    29    13    14    1
    30    14    15    1
    31    15    18    1
    32    18    19   ar
    33    19    20   ar
    34    20    21   ar
    35    21    25    1
    36    25    26    1
    37    25    27    1
    38    25    28    1
    39    21    22   ar
    40    22    23    1
    41    22    24   ar
    42    15    16    1
    43    16    17    1
    44     8     9   ar
    45     9    10   ar
    46    10    11    1
    47    49    41   ar
    48    39    34   ar
    49    10     5   ar
    50    49    44   ar
    51    17    12    1
    52    24    18   ar
    53     3     4    1
    54    43    50    1
    55    32    33    1
@<TRIPOS>MOLECULE
*****
 50 55 0 0 0
SMALL
GASTEIGER

@<TRIPOS>ATOM
      1 O           8.3320   75.0899   25.8641 O.2     1  UNL1       -0.2701
      2 C           8.2788   75.9072   24.9044 C.2     1  UNL1        0.2483
      3 N           7.3478   75.6889   23.8328 N.am    1  UNL1       -0.2945
      4 H           7.1061   76.4909   23.2074 H       1  UNL1        0.1501
      5 C           9.1569   77.0992   24.9178 C.ar    1  UNL1        0.0808
      6 C           8.6407   78.3358   25.3373 C.ar    1  UNL1        0.0080
      7 C           9.4491   79.4751   25.3555 C.ar    1  UNL1        0.0148
      8 C          10.7975   79.4017   24.9654 C.ar    1  UNL1        0.0502
      9 C          11.3172   78.1607   24.5587 C.ar    1  UNL1        0.0443
     10 C          10.5105   77.0187   24.5389 C.ar    1  UNL1        0.1457
     11 F          11.0720   75.8316   24.1985 F       1  UNL1       -0.2040
     12 N          11.6347   80.5796   24.9788 N.pl3   1  UNL1       -0.3040
     13 C          13.0970   80.4491   25.0495 C.3     1  UNL1        0.1123
     14 C          13.7822   81.6005   24.3053 C.3     1  UNL1        0.1136
     15 N          13.2420   82.9111   24.7043 N.pl3   1  UNL1       -0.2897
     16 C          12.0129   82.9778   25.5077 C.3     1  UNL1        0.1136
     17 C          11.0132   81.9112   25.0504 C.3     1  UNL1        0.1123
     18 C          13.9839   84.1218   24.4321 C.ar    1  UNL1        0.1323
     19 C          14.6532   84.3119   23.2131 C.ar    1  UNL1        0.0343
     20 C          15.3588   85.4938   22.9888 C.ar    1  UNL1        0.0088
     21 C          15.4037   86.4967   23.9723 C.ar    1  UNL1        0.0955
     22 C          14.7139   86.2701   25.1824 C.ar    1  UNL1        0.1206
     23 BR         14.6868   87.5540   26.6051 Br      1  UNL1       -0.0280
     24 N          14.0360   85.1071   25.3702 N.ar    1  UNL1       -0.2240
     25 C          16.1669   87.7810   23.7341 C.3     1  UNL1        0.4204
     26 F          17.2336   87.8575   24.6111 F       1  UNL1       -0.1658
     27 F          16.6416   87.8058   22.4353 F       1  UNL1       -0.1658
     28 F          15.3679   88.8955   23.9246 F       1  UNL1       -0.1658
     29 C           6.5596   74.4578   23.7269 C.3     1  UNL1        0.1535
     30 C           5.3472   74.7083   22.8717 C.2     1  UNL1        0.2443
     31 O           4.4254   75.4519   23.3064 O.2     1  UNL1       -0.2730
     32 N           5.2218   74.0654   21.5929 N.am    1  UNL1       -0.2825
     33 H           5.8308   73.2384   21.3989 H       1  UNL1        0.1549
     34 C           4.2329   74.4165   20.6100 C.ar    1  UNL1        0.0535
     35 C           2.8601   74.2370   20.8508 C.ar    1  UNL1        0.0353
     36 C           1.9344   74.6166   19.8755 C.ar    1  UNL1        0.1002
     37 N           2.3596   75.1687   18.7085 N.ar    1  UNL1       -0.2422
     38 C           3.6798   75.3711   18.4564 C.ar    1  UNL1        0.1002
     39 C           4.6383   75.0069   19.4052 C.ar    1  UNL1        0.0353
     40 C           7.4054   73.3187   23.1320 C.3     1  UNL1        0.0569
     41 C           8.5746   73.8574   22.3596 C.ar    1  UNL1       -0.0017
     42 C           8.5989   75.0201   21.5954 C.ar    1  UNL1        0.0681
     43 N           9.8415   75.2385   21.1078 N.ar    1  UNL1       -0.3523
     44 C          10.6028   74.2291   21.5649 C.ar    1  UNL1        0.0563
     45 C          11.9649   74.0304   21.3435 C.ar    1  UNL1        0.0170
     46 C          12.5709   72.9085   21.9384 C.ar    1  UNL1        0.0015
     47 C          11.8113   72.0225   22.7344 C.ar    1  UNL1        0.0001
     48 C          10.4385   72.2492   22.9423 C.ar    1  UNL1        0.0012
     49 C           9.8654   73.3674   22.3361 C.ar    1  UNL1        0.0131
     50 H          10.1466   76.0389   20.5105 H       1  UNL1        0.1660
@<TRIPOS>BOND
     1     1     2    2
     2     2     3   am
     3     3    29    1
     4    29    40    1
     5    40    41    1
     6    41    42   ar
     7    42    43   ar
     8    43    44   ar
     9    44    45   ar
    10    45    46   ar
    11    46    47   ar
    12    47    48   ar
    13    48    49   ar
    14    29    30    1
    15    30    31    2
    16    30    32   am
    17    32    34    1
    18    34    35   ar
    19    35    36   ar
    20    36    37   ar
    21    37    38   ar
    22    38    39   ar
    23     2     5    1
    24     5     6   ar
    25     6     7   ar
    26     7     8   ar
    27     8    12    1
    28    12    13    1
    29    13    14    1
    30    14    15    1
    31    15    18    1
    32    18    19   ar
    33    19    20   ar
    34    20    21   ar
    35    21    25    1
    36    25    26    1
    37    25    27    1
    38    25    28    1
    39    21    22   ar
    40    22    23    1
    41    22    24   ar
    42    15    16    1
    43    16    17    1
    44     8     9   ar
    45     9    10   ar
    46    10    11    1
    47    49    41   ar
    48    39    34   ar
    49    10     5   ar
    50    49    44   ar
    51    17    12    1
    52    24    18   ar
    53     3     4    1
    54    43    50    1
    55    32    33    1
@<TRIPOS>MOLECULE
*****
 50 55 0 0 0
SMALL
GASTEIGER

@<TRIPOS>ATOM
      1 O           9.1294   75.2163   26.8569 O.2     1  UNL1       -0.2701
      2 C           8.9560   75.9017   25.8119 C.2     1  UNL1        0.2483
      3 N           7.9836   75.4862   24.8400 N.am    1  UNL1       -0.2945
      4 H           7.6433   76.1848   24.1409 H       1  UNL1        0.1501
      5 C           9.7371   77.1451   25.6225 C.ar    1  UNL1        0.0808
      6 C          11.0501   77.2206   26.1146 C.ar    1  UNL1        0.0080
      7 C          11.8056   78.3842   25.9507 C.ar    1  UNL1        0.0148
      8 C          11.2691   79.4968   25.2797 C.ar    1  UNL1        0.0502
      9 C           9.9597   79.4157   24.7754 C.ar    1  UNL1        0.0443
     10 C           9.2009   78.2525   24.9383 C.ar    1  UNL1        0.1457
     11 F           7.9652   78.1986   24.3807 F       1  UNL1       -0.2040
     12 N          12.0468   80.7035   25.1129 N.pl3   1  UNL1       -0.3040
     13 C          13.5084   80.6704   25.2640 C.3     1  UNL1        0.1123
     14 C          14.1728   81.7072   24.3514 C.3     1  UNL1        0.1136
     15 N          13.5510   83.0354   24.4849 N.pl3   1  UNL1       -0.2897
     16 C          12.2819   83.1751   25.2135 C.3     1  UNL1        0.1136
     17 C          11.3588   81.9893   24.9174 C.3     1  UNL1        0.1123
     18 C          14.2458   84.2179   24.0276 C.ar    1  UNL1        0.1323
     19 C          14.8679   84.2612   22.7701 C.ar    1  UNL1        0.0343
     20 C          15.5290   85.4206   22.3655 C.ar    1  UNL1        0.0088
     21 C          15.5762   86.5463   23.2055 C.ar    1  UNL1        0.0955
     22 C          14.9345   86.4651   24.4598 C.ar    1  UNL1        0.1206
     23 BR         14.9157   87.9258   25.7003 Br      1  UNL1       -0.0280
     24 N          14.2992   85.3203   24.8247 N.ar    1  UNL1       -0.2240
     25 C          16.2913   87.8069   22.7714 C.3     1  UNL1        0.4204
     26 F          17.3324   88.0739   23.6417 F       1  UNL1       -0.1658
     27 F          16.7957   87.6391   21.4946 F       1  UNL1       -0.1658
     28 F          15.4427   88.9007   22.7617 F       1  UNL1       -0.1658
     29 C           7.2896   74.1988   24.9364 C.3     1  UNL1        0.1535
     30 C           6.2404   74.2720   26.0125 C.2     1  UNL1        0.2443
     31 O           5.1389   74.8356   25.7663 O.2     1  UNL1       -0.2730
     32 N           6.5131   73.7475   27.3220 N.am    1  UNL1       -0.2825
     33 H           7.5104   73.5734   27.5817 H       1  UNL1        0.1549
     34 C           5.5118   73.5556   28.3358 C.ar    1  UNL1        0.0535
     35 C           5.3042   74.5025   29.3534 C.ar    1  UNL1        0.0353
     36 C           4.3020   74.2852   30.3024 C.ar    1  UNL1        0.1002
     37 N           3.5247   73.1723   30.2320 N.ar    1  UNL1       -0.2422
     38 C           3.6908   72.2493   29.2482 C.ar    1  UNL1        0.1002
     39 C           4.6805   72.4287   28.2787 C.ar    1  UNL1        0.0353
     40 C           6.6470   73.8240   23.5899 C.3     1  UNL1        0.0569
     41 C           6.3484   75.0469   22.7720 C.ar    1  UNL1       -0.0017
     42 C           5.0980   75.6221   22.5663 C.ar    1  UNL1        0.0681
     43 N           5.2149   76.7598   21.8441 N.ar    1  UNL1       -0.3523
     44 C           6.5282   76.9120   21.6005 C.ar    1  UNL1        0.0563
     45 C           7.1439   77.9520   20.9053 C.ar    1  UNL1        0.0170
     46 C           8.5455   77.9227   20.7843 C.ar    1  UNL1        0.0015
     47 C           9.2916   76.8686   21.3569 C.ar    1  UNL1        0.0001
     48 C           8.6434   75.8333   22.0548 C.ar    1  UNL1        0.0012
     49 C           7.2529   75.8878   22.1543 C.ar    1  UNL1        0.0131
     50 H           4.4406   77.3962   21.5510 H       1  UNL1        0.1660
@<TRIPOS>BOND
     1     1     2    2
     2     2     3   am
     3     3    29    1
     4    29    40    1
     5    40    41    1
     6    41    42   ar
     7    42    43   ar
     8    43    44   ar
     9    44    45   ar
    10    45    46   ar
    11    46    47   ar
    12    47    48   ar
    13    48    49   ar
    14    29    30    1
    15    30    31    2
    16    30    32   am
    17    32    34    1
    18    34    35   ar
    19    35    36   ar
    20    36    37   ar
    21    37    38   ar
    22    38    39   ar
    23     2     5    1
    24     5     6   ar
    25     6     7   ar
    26     7     8   ar
    27     8    12    1
    28    12    13    1
    29    13    14    1
    30    14    15    1
    31    15    18    1
    32    18    19   ar
    33    19    20   ar
    34    20    21   ar
    35    21    25    1
    36    25    26    1
    37    25    27    1
    38    25    28    1
    39    21    22   ar
    40    22    23    1
    41    22    24   ar
    42    15    16    1
    43    16    17    1
    44     8     9   ar
    45     9    10   ar
    46    10    11    1
    47    49    41   ar
    48    39    34   ar
    49    10     5   ar
    50    49    44   ar
    51    17    12    1
    52    24    18   ar
    53     3     4    1
    54    43    50    1
    55    32    33    1
