@<TRIPOS>MOLECULE
*****
 52 57 0 0 0
SMALL
GASTEIGER

@<TRIPOS>ATOM
      1 N          60.8172   87.1676   12.4558 N.am    1  UNL1       -0.2945
      2 C          61.1546   86.4765   11.2384 C.2     1  UNL1        0.2483
      3 O          61.7217   85.3511   11.2845 O.2     1  UNL1       -0.2701
      4 H          60.4328   88.1366   12.3895 H       1  UNL1        0.1501
      5 C          60.8787   87.0882    9.9211 C.ar    1  UNL1        0.0808
      6 C          61.6413   88.1888    9.4973 C.ar    1  UNL1        0.0080
      7 C          61.3921   88.7915    8.2619 C.ar    1  UNL1        0.0148
      8 C          60.3833   88.2965    7.4208 C.ar    1  UNL1        0.0502
      9 C          59.6307   87.1874    7.8352 C.ar    1  UNL1        0.0443
     10 C          59.8755   86.5828    9.0723 C.ar    1  UNL1        0.1457
     11 F          59.1619   85.4799    9.4130 F       1  UNL1       -0.2040
     12 N          60.1194   88.9151    6.1474 N.pl3   1  UNL1       -0.3040
     13 C          61.0585   88.7561    5.0318 C.3     1  UNL1        0.1123
     14 C          61.1651   90.0612    4.2383 C.3     1  UNL1        0.1136
     15 N          59.8284   90.6043    3.9564 N.pl3   1  UNL1       -0.2897
     16 C          58.8917   90.7464    5.0790 C.3     1  UNL1        0.1136
     17 C          58.7800   89.4282    5.8420 C.3     1  UNL1        0.1123
     18 C          59.5330   91.2465    2.6994 C.ar    1  UNL1        0.1318
     19 C          60.1868   92.4272    2.3106 C.ar    1  UNL1        0.0343
     20 C          59.8709   93.0195    1.0869 C.ar    1  UNL1        0.0083
     21 C          58.8895   92.4532    0.2597 C.ar    1  UNL1        0.0906
     22 C          58.2721   91.2638    0.6765 C.ar    1  UNL1        0.1041
     23 N          58.5981   90.7037    1.8712 N.ar    1  UNL1       -0.2292
     24 C          58.5746   93.0550   -1.0861 C.3     1  UNL1        0.4200
     25 F          59.6225   93.8464   -1.5241 F       1  UNL1       -0.1658
     26 F          57.4381   93.8419   -1.0153 F       1  UNL1       -0.1658
     27 F          58.3638   92.0400   -2.0003 F       1  UNL1       -0.1658
     28 C          61.1080   86.6612   13.8066 C.3     1  UNL1        0.1535
     29 C          62.0697   87.5613   14.5468 C.2     1  UNL1        0.2443
     30 O          62.4369   87.2714   15.7186 O.2     1  UNL1       -0.2730
     31 N          62.4956   88.7941   13.9448 N.am    1  UNL1       -0.2825
     32 H          61.9122   89.1850   13.1705 H       1  UNL1        0.1549
     33 C          63.6143   89.5703   14.4065 C.ar    1  UNL1        0.0535
     34 C          63.5325   90.2314   15.6397 C.ar    1  UNL1        0.0353
     35 C          64.6078   91.0057   16.0822 C.ar    1  UNL1        0.1002
     36 N          65.7210   91.1301   15.3123 N.ar    1  UNL1       -0.2422
     37 C          65.8223   90.5173   14.1034 C.ar    1  UNL1        0.1002
     38 C          64.7704   89.7326   13.6238 C.ar    1  UNL1        0.0353
     39 C          59.8139   86.4351   14.6162 C.3     1  UNL1        0.0569
     40 C          59.5756   82.3596   12.4688 C.ar    1  UNL1        0.0074
     41 C          58.3881   82.2223   11.7049 C.ar    1  UNL1       -0.0004
     42 C          57.4181   83.2408   11.6970 C.ar    1  UNL1        0.0167
     43 C          57.6664   84.3842   12.4527 C.ar    1  UNL1        0.0563
     44 N          56.8876   85.4750   12.5591 N.ar    1  UNL1       -0.3523
     45 C          57.5519   86.3310   13.3685 C.ar    1  UNL1        0.0681
     46 C          58.7559   85.7697   13.7841 C.ar    1  UNL1       -0.0017
     47 C          58.8169   84.5282   13.1829 C.ar    1  UNL1        0.0129
     48 C          59.8008   83.5407   13.2095 C.ar    1  UNL1       -0.0007
     49 H          55.9660   85.6403   12.0968 H       1  UNL1        0.1660
     50 C          60.6236   81.2857   12.4330 C.3     1  UNL1        0.1687
     51 C          62.4691   80.9742   13.7734 C.3     1  UNL1        0.1746
     52 O          61.0607   81.0321   13.7506 O.3     1  UNL1       -0.3463
@<TRIPOS>BOND
     1    51    52    1
     2    52    50    1
     3    50    40    1
     4    40    41   ar
     5    41    42   ar
     6    42    43   ar
     7    43    44   ar
     8    44    45   ar
     9    45    46   ar
    10    46    39    1
    11    39    28    1
    12    28     1    1
    13     1     2   am
    14     2     3    2
    15     2     5    1
    16     5     6   ar
    17     6     7   ar
    18     7     8   ar
    19     8    12    1
    20    12    13    1
    21    13    14    1
    22    14    15    1
    23    15    18    1
    24    18    19   ar
    25    19    20   ar
    26    20    21   ar
    27    21    24    1
    28    24    25    1
    29    24    26    1
    30    24    27    1
    31    21    22   ar
    32    22    23   ar
    33    15    16    1
    34    16    17    1
    35     8     9   ar
    36     9    10   ar
    37    10    11    1
    38    28    29    1
    39    29    30    2
    40    29    31   am
    41    31    33    1
    42    33    34   ar
    43    34    35   ar
    44    35    36   ar
    45    36    37   ar
    46    37    38   ar
    47    46    47   ar
    48    47    48   ar
    49    48    40   ar
    50    47    43   ar
    51    10     5   ar
    52    38    33   ar
    53    17    12    1
    54    23    18   ar
    55    44    49    1
    56     1     4    1
    57    31    32    1
@<TRIPOS>MOLECULE
*****
 52 57 0 0 0
SMALL
GASTEIGER

@<TRIPOS>ATOM
      1 N          60.5277   85.2486   11.8556 N.am    1  UNL1       -0.2945
      2 C          59.3873   85.9200   11.2878 C.2     1  UNL1        0.2483
      3 O          58.2814   85.9138   11.8938 O.2     1  UNL1       -0.2701
      4 H          61.4047   85.1905   11.2911 H       1  UNL1        0.1501
      5 C          59.4826   86.5912    9.9740 C.ar    1  UNL1        0.0808
      6 C          60.1779   87.8069    9.8684 C.ar    1  UNL1        0.0080
      7 C          60.2720   88.4662    8.6403 C.ar    1  UNL1        0.0148
      8 C          59.6831   87.9154    7.4914 C.ar    1  UNL1        0.0502
      9 C          59.0015   86.6932    7.5915 C.ar    1  UNL1        0.0443
     10 C          58.9030   86.0313    8.8194 C.ar    1  UNL1        0.1457
     11 F          58.2815   84.8258    8.8638 F       1  UNL1       -0.2040
     12 N          59.7740   88.5914    6.2232 N.pl3   1  UNL1       -0.3040
     13 C          60.9326   88.3830    5.3479 C.3     1  UNL1        0.1123
     14 C          61.3243   89.6963    4.6650 C.3     1  UNL1        0.1136
     15 N          60.1377   90.3627    4.1091 N.pl3   1  UNL1       -0.2897
     16 C          58.9786   90.5539    4.9909 C.3     1  UNL1        0.1136
     17 C          58.5879   89.2290    5.6424 C.3     1  UNL1        0.1123
     18 C          60.1961   91.0646    2.8507 C.ar    1  UNL1        0.1318
     19 C          59.7837   92.4027    2.7405 C.ar    1  UNL1        0.0343
     20 C          59.8536   93.0463    1.5041 C.ar    1  UNL1        0.0083
     21 C          60.3105   92.3550    0.3720 C.ar    1  UNL1        0.0906
     22 C          60.7295   91.0247    0.5277 C.ar    1  UNL1        0.1041
     23 N          60.6550   90.4197    1.7425 N.ar    1  UNL1       -0.2292
     24 C          60.4377   93.0529   -0.9581 C.3     1  UNL1        0.4200
     25 F          60.5299   92.1307   -1.9863 F       1  UNL1       -0.1658
     26 F          61.5707   93.8475   -0.9863 F       1  UNL1       -0.1658
     27 F          59.3251   93.8470   -1.1636 F       1  UNL1       -0.1658
     28 C          60.5075   84.5070   13.1264 C.3     1  UNL1        0.1535
     29 C          59.9103   83.1290   12.9610 C.2     1  UNL1        0.2443
     30 O          58.6578   82.9769   12.9486 O.2     1  UNL1       -0.2730
     31 N          60.7739   81.9823   12.9063 N.am    1  UNL1       -0.2825
     32 H          61.7436   82.0845   13.2828 H       1  UNL1        0.1549
     33 C          60.3560   80.6813   12.4589 C.ar    1  UNL1        0.0535
     34 C          59.0461   80.2526   12.7137 C.ar    1  UNL1        0.0353
     35 C          58.6420   78.9804   12.3016 C.ar    1  UNL1        0.1002
     36 N          59.5205   78.1568   11.6713 N.ar    1  UNL1       -0.2422
     37 C          60.8026   78.5365   11.4275 C.ar    1  UNL1        0.1002
     38 C          61.2474   79.8009   11.8219 C.ar    1  UNL1        0.0353
     39 C          61.9115   84.4379   13.7629 C.3     1  UNL1        0.0569
     40 C          63.4929   88.7677   13.5884 C.ar    1  UNL1        0.0074
     41 C          63.5798   89.3612   14.8740 C.ar    1  UNL1       -0.0004
     42 C          63.1621   88.6585   16.0186 C.ar    1  UNL1        0.0167
     43 C          62.6723   87.3658   15.8480 C.ar    1  UNL1        0.0563
     44 N          62.2506   86.5217   16.8058 N.ar    1  UNL1       -0.3523
     45 C          61.9025   85.3796   16.1707 C.ar    1  UNL1        0.0681
     46 C          62.0972   85.5091   14.7986 C.ar    1  UNL1       -0.0017
     47 C          62.5974   86.7823   14.6105 C.ar    1  UNL1        0.0129
     48 C          63.0068   87.4485   13.4561 C.ar    1  UNL1       -0.0007
     49 H          62.2159   86.7003   17.8341 H       1  UNL1        0.1660
     50 C          63.9841   89.5105   12.3802 C.3     1  UNL1        0.1687
     51 C          63.4202   89.8383   10.1725 C.3     1  UNL1        0.1746
     52 O          62.9119   89.6693   11.4765 O.3     1  UNL1       -0.3463
@<TRIPOS>BOND
     1    51    52    1
     2    52    50    1
     3    50    40    1
     4    40    41   ar
     5    41    42   ar
     6    42    43   ar
     7    43    44   ar
     8    44    45   ar
     9    45    46   ar
    10    46    39    1
    11    39    28    1
    12    28     1    1
    13     1     2   am
    14     2     3    2
    15     2     5    1
    16     5     6   ar
    17     6     7   ar
    18     7     8   ar
    19     8    12    1
    20    12    13    1
    21    13    14    1
    22    14    15    1
    23    15    18    1
    24    18    19   ar
    25    19    20   ar
    26    20    21   ar
    27    21    24    1
    28    24    25    1
    29    24    26    1
    30    24    27    1
    31    21    22   ar
    32    22    23   ar
    33    15    16    1
    34    16    17    1
    35     8     9   ar
    36     9    10   ar
    37    10    11    1
    38    28    29    1
    39    29    30    2
    40    29    31   am
    41    31    33    1
    42    33    34   ar
    43    34    35   ar
    44    35    36   ar
    45    36    37   ar
    46    37    38   ar
    47    46    47   ar
    48    47    48   ar
    49    48    40   ar
    50    47    43   ar
    51    10     5   ar
    52    38    33   ar
    53    17    12    1
    54    23    18   ar
    55    44    49    1
    56     1     4    1
    57    31    32    1
@<TRIPOS>MOLECULE
*****
 52 57 0 0 0
SMALL
GASTEIGER

@<TRIPOS>ATOM
      1 N          59.8985   86.3493   12.5407 N.am    1  UNL1       -0.2945
      2 C          59.3374   85.7485   11.3583 C.2     1  UNL1        0.2483
      3 O          58.7869   84.6158   11.4230 O.2     1  UNL1       -0.2701
      4 H          60.4287   87.2438   12.4424 H       1  UNL1        0.1501
      5 C          59.4307   86.4281   10.0487 C.ar    1  UNL1        0.0808
      6 C          60.0759   87.6724    9.9608 C.ar    1  UNL1        0.0080
      7 C          60.1668   88.3398    8.7368 C.ar    1  UNL1        0.0148
      8 C          59.6250   87.7689    7.5746 C.ar    1  UNL1        0.0502
      9 C          58.9939   86.5187    7.6572 C.ar    1  UNL1        0.0443
     10 C          58.8987   85.8486    8.8810 C.ar    1  UNL1        0.1457
     11 F          58.3279   84.6177    8.9092 F       1  UNL1       -0.2040
     12 N          59.7128   88.4530    6.3105 N.pl3   1  UNL1       -0.3040
     13 C          60.8402   88.2059    5.4050 C.3     1  UNL1        0.1123
     14 C          61.2689   89.5086    4.7241 C.3     1  UNL1        0.1136
     15 N          60.0976   90.2284    4.2036 N.pl3   1  UNL1       -0.2897
     16 C          58.9691   90.4583    5.1154 C.3     1  UNL1        0.1136
     17 C          58.5402   89.1442    5.7647 C.3     1  UNL1        0.1123
     18 C          60.1542   90.9395    2.9503 C.ar    1  UNL1        0.1318
     19 C          61.3803   91.2314    2.3305 C.ar    1  UNL1        0.0343
     20 C          61.3928   91.9239    1.1188 C.ar    1  UNL1        0.0083
     21 C          60.1900   92.3472    0.5338 C.ar    1  UNL1        0.0906
     22 C          58.9857   92.0205    1.1759 C.ar    1  UNL1        0.1041
     23 N          58.9982   91.3428    2.3540 N.ar    1  UNL1       -0.2292
     24 C          60.1870   93.0519   -0.7988 C.3     1  UNL1        0.4200
     25 F          60.1786   92.1349   -1.8358 F       1  UNL1       -0.1658
     26 F          61.3119   93.8471   -0.9333 F       1  UNL1       -0.1658
     27 F          59.0597   93.8465   -0.8908 F       1  UNL1       -0.1658
     28 C          59.9031   85.7191   13.8705 C.3     1  UNL1        0.1535
     29 C          60.9925   84.6793   13.9935 C.2     1  UNL1        0.2443
     30 O          61.0444   83.9308   15.0079 O.2     1  UNL1       -0.2730
     31 N          62.0205   84.6056   12.9928 N.am    1  UNL1       -0.2825
     32 H          62.1707   85.4434   12.3862 H       1  UNL1        0.1549
     33 C          62.9175   83.4920   12.8418 C.ar    1  UNL1        0.0535
     34 C          63.5170   82.9308   13.9776 C.ar    1  UNL1        0.0353
     35 C          64.4072   81.8637   13.8341 C.ar    1  UNL1        0.1002
     36 N          64.7024   81.3835   12.5974 N.ar    1  UNL1       -0.2422
     37 C          64.1522   81.9193   11.4759 C.ar    1  UNL1        0.1002
     38 C          63.2562   82.9868   11.5746 C.ar    1  UNL1        0.0353
     39 C          60.0021   86.7719   14.9944 C.3     1  UNL1        0.0569
     40 C          63.2965   89.0856   12.7424 C.ar    1  UNL1        0.0074
     41 C          64.5446   89.0361   13.4148 C.ar    1  UNL1       -0.0004
     42 C          64.6679   88.3775   14.6515 C.ar    1  UNL1        0.0167
     43 C          63.5322   87.7724   15.1846 C.ar    1  UNL1        0.0563
     44 N          63.4427   87.0755   16.3309 N.ar    1  UNL1       -0.3523
     45 C          62.1600   86.6550   16.4135 C.ar    1  UNL1        0.0681
     46 C          61.4321   87.1000   15.3138 C.ar    1  UNL1       -0.0017
     47 C          62.3266   87.8060   14.5342 C.ar    1  UNL1        0.0129
     48 C          62.1704   88.4459   13.3053 C.ar    1  UNL1       -0.0007
     49 H          64.2097   86.8794   17.0119 H       1  UNL1        0.1660
     50 C          63.1882   89.7520   11.4019 C.3     1  UNL1        0.1687
     51 C          64.7803   90.9463   10.2451 C.3     1  UNL1        0.1746
     52 O          64.4394   89.6764   10.7535 O.3     1  UNL1       -0.3463
@<TRIPOS>BOND
     1    51    52    1
     2    52    50    1
     3    50    40    1
     4    40    41   ar
     5    41    42   ar
     6    42    43   ar
     7    43    44   ar
     8    44    45   ar
     9    45    46   ar
    10    46    39    1
    11    39    28    1
    12    28     1    1
    13     1     2   am
    14     2     3    2
    15     2     5    1
    16     5     6   ar
    17     6     7   ar
    18     7     8   ar
    19     8    12    1
    20    12    13    1
    21    13    14    1
    22    14    15    1
    23    15    18    1
    24    18    19   ar
    25    19    20   ar
    26    20    21   ar
    27    21    24    1
    28    24    25    1
    29    24    26    1
    30    24    27    1
    31    21    22   ar
    32    22    23   ar
    33    15    16    1
    34    16    17    1
    35     8     9   ar
    36     9    10   ar
    37    10    11    1
    38    28    29    1
    39    29    30    2
    40    29    31   am
    41    31    33    1
    42    33    34   ar
    43    34    35   ar
    44    35    36   ar
    45    36    37   ar
    46    37    38   ar
    47    46    47   ar
    48    47    48   ar
    49    48    40   ar
    50    47    43   ar
    51    10     5   ar
    52    38    33   ar
    53    17    12    1
    54    23    18   ar
    55    44    49    1
    56     1     4    1
    57    31    32    1
@<TRIPOS>MOLECULE
*****
 52 57 0 0 0
SMALL
GASTEIGER

@<TRIPOS>ATOM
      1 N          60.0984   84.8828   11.6704 N.am    1  UNL1       -0.2945
      2 C          59.5911   86.2148   11.4653 C.2     1  UNL1        0.2483
      3 O          59.0708   86.8494   12.4228 O.2     1  UNL1       -0.2701
      4 H          60.4397   84.3457   10.8421 H       1  UNL1        0.1501
      5 C          59.6364   86.8428   10.1277 C.ar    1  UNL1        0.0808
      6 C          60.2295   88.1071    9.9781 C.ar    1  UNL1        0.0080
      7 C          60.2742   88.7263    8.7266 C.ar    1  UNL1        0.0148
      8 C          59.7377   88.0868    7.5981 C.ar    1  UNL1        0.0502
      9 C          59.1588   86.8170    7.7425 C.ar    1  UNL1        0.0443
     10 C          59.1099   86.1949    8.9940 C.ar    1  UNL1        0.1457
     11 F          58.5898   84.9446    9.0821 F       1  UNL1       -0.2040
     12 N          59.7780   88.7210    6.3059 N.pl3   1  UNL1       -0.3040
     13 C          60.9271   88.5270    5.4149 C.3     1  UNL1        0.1123
     14 C          61.2539   89.8296    4.6796 C.3     1  UNL1        0.1136
     15 N          60.0317   90.4298    4.1253 N.pl3   1  UNL1       -0.2897
     16 C          58.8828   90.6068    5.0233 C.3     1  UNL1        0.1136
     17 C          58.5570   89.2915    5.7277 C.3     1  UNL1        0.1123
     18 C          60.0387   91.0888    2.8427 C.ar    1  UNL1        0.1318
     19 C          61.2411   91.4527    2.2146 C.ar    1  UNL1        0.0343
     20 C          61.2055   92.0914    0.9741 C.ar    1  UNL1        0.0083
     21 C          59.9762   92.3900    0.3677 C.ar    1  UNL1        0.0906
     22 C          58.7981   91.9941    1.0196 C.ar    1  UNL1        0.1041
     23 N          58.8578   91.3708    2.2259 N.ar    1  UNL1       -0.2292
     24 C          59.9247   93.0344   -0.9942 C.3     1  UNL1        0.4200
     25 F          61.0481   93.8145   -1.2077 F       1  UNL1       -0.1658
     26 F          58.8075   93.8433   -1.1098 F       1  UNL1       -0.1658
     27 F          59.8698   92.0490   -1.9619 F       1  UNL1       -0.1658
     28 C          60.0408   84.1598   12.9509 C.3     1  UNL1        0.1535
     29 C          59.5462   82.7434   12.7723 C.2     1  UNL1        0.2443
     30 O          58.4423   82.3886   13.2698 O.2     1  UNL1       -0.2730
     31 N          60.3787   81.7784   12.1093 N.am    1  UNL1       -0.2825
     32 H          61.4018   81.9818   12.0426 H       1  UNL1        0.1549
     33 C          59.9084   80.5099   11.6223 C.ar    1  UNL1        0.0535
     34 C          58.5332   80.3074   11.4427 C.ar    1  UNL1        0.0353
     35 C          58.0694   79.0691   10.9919 C.ar    1  UNL1        0.1002
     36 N          58.9469   78.0611   10.7447 N.ar    1  UNL1       -0.2422
     37 C          60.2842   78.2207   10.9281 C.ar    1  UNL1        0.1002
     38 C          60.7903   79.4433   11.3765 C.ar    1  UNL1        0.0353
     39 C          61.4005   84.1922   13.6799 C.3     1  UNL1        0.0569
     40 C          62.9745   83.8979    9.3539 C.ar    1  UNL1        0.0074
     41 C          63.8586   82.8028    9.1761 C.ar    1  UNL1       -0.0004
     42 C          64.2056   81.9772   10.2607 C.ar    1  UNL1        0.0167
     43 C          63.6477   82.2647   11.5042 C.ar    1  UNL1        0.0563
     44 N          63.8265   81.5892   12.6528 N.ar    1  UNL1       -0.3523
     45 C          63.0627   82.2146   13.5771 C.ar    1  UNL1        0.0681
     46 C          62.4043   83.3007   13.0075 C.ar    1  UNL1       -0.0017
     47 C          62.7834   83.3133   11.6799 C.ar    1  UNL1        0.0129
     48 C          62.4149   84.1485   10.6260 C.ar    1  UNL1       -0.0007
     49 H          64.4182   80.7416   12.8012 H       1  UNL1        0.1660
     50 C          62.5764   84.7438    8.1797 C.3     1  UNL1        0.1687
     51 C          60.8870   83.4979    7.2347 C.3     1  UNL1        0.1746
     52 O          62.2327   83.8971    7.1043 O.3     1  UNL1       -0.3463
@<TRIPOS>BOND
     1    51    52    1
     2    52    50    1
     3    50    40    1
     4    40    41   ar
     5    41    42   ar
     6    42    43   ar
     7    43    44   ar
     8    44    45   ar
     9    45    46   ar
    10    46    39    1
    11    39    28    1
    12    28     1    1
    13     1     2   am
    14     2     3    2
    15     2     5    1
    16     5     6   ar
    17     6     7   ar
    18     7     8   ar
    19     8    12    1
    20    12    13    1
    21    13    14    1
    22    14    15    1
    23    15    18    1
    24    18    19   ar
    25    19    20   ar
    26    20    21   ar
    27    21    24    1
    28    24    25    1
    29    24    26    1
    30    24    27    1
    31    21    22   ar
    32    22    23   ar
    33    15    16    1
    34    16    17    1
    35     8     9   ar
    36     9    10   ar
    37    10    11    1
    38    28    29    1
    39    29    30    2
    40    29    31   am
    41    31    33    1
    42    33    34   ar
    43    34    35   ar
    44    35    36   ar
    45    36    37   ar
    46    37    38   ar
    47    46    47   ar
    48    47    48   ar
    49    48    40   ar
    50    47    43   ar
    51    10     5   ar
    52    38    33   ar
    53    17    12    1
    54    23    18   ar
    55    44    49    1
    56     1     4    1
    57    31    32    1
