@<TRIPOS>MOLECULE
*****
 39 43 0 0 0
SMALL
GASTEIGER

@<TRIPOS>ATOM
      1 N          48.4076   14.7430  -25.5947 N.3     1  UNL1       -0.2679
      2 N          49.2291   19.0956  -27.8367 N.3     1  UNL1       -0.3188
      3 C          49.7845   18.7660  -26.5200 C.3     1  UNL1        0.0749
      4 C          50.7788   17.5885  -26.5963 C.3     1  UNL1        0.0218
      5 C          50.0529   16.2471  -26.6883 C.3     1  UNL1        0.0238
      6 C          49.1898   16.0028  -25.4359 C.3     1  UNL1        0.0979
      7 C          48.3338   17.2118  -25.0783 C.ar    1  UNL1        0.0707
      8 N          47.3030   17.0589  -24.2006 N.ar    1  UNL1       -0.2471
      9 C          46.5373   18.0999  -23.7842 C.ar    1  UNL1        0.0985
     10 C          46.8050   19.3877  -24.2411 C.ar    1  UNL1        0.0204
     11 C          47.8669   19.5919  -25.1201 C.ar    1  UNL1       -0.0002
     12 C          48.6575   18.5112  -25.5407 C.ar    1  UNL1        0.0067
     13 H          50.0124   19.3057  -28.4970 H       1  UNL1        0.1191
     14 H          48.6976   18.2807  -28.2187 H       1  UNL1        0.1191
     15 C          49.0317   13.5429  -24.9803 C.3     1  UNL1        0.0725
     16 C          48.7949   13.5563  -23.4644 C.3     1  UNL1        0.0188
     17 C          47.2954   13.4864  -23.1368 C.3     1  UNL1        0.0185
     18 C          46.7642   12.0423  -23.0241 C.3     1  UNL1        0.0686
     19 N          46.2016   11.6806  -21.7060 N.3     1  UNL1       -0.2985
     20 H          45.9200   12.5597  -21.2124 H       1  UNL1        0.1232
     21 C          47.0816   10.8823  -20.8254 C.3     1  UNL1        0.0568
     22 C          47.9249    9.9139  -21.6868 C.3     1  UNL1        0.0328
     23 C          49.2347    9.4792  -20.9987 C.3     1  UNL1        0.0699
     24 N          49.1279    9.5459  -19.5370 N.3     1  UNL1       -0.2974
     25 C          48.9303   10.9297  -19.0676 C.3     1  UNL1        0.0699
     26 C          48.0140   11.7737  -19.9845 C.3     1  UNL1        0.0328
     27 H          48.3187    8.9562  -19.2288 H       1  UNL1        0.1232
     28 C          47.9235   14.5141  -26.9777 C.3     1  UNL1        0.0886
     29 C          46.3882   14.3047  -26.9977 C.3     1  UNL1        0.0748
     30 C          45.7998   14.3839  -28.4157 C.3     1  UNL1        0.0432
     31 C          46.0705   13.1325  -29.2054 C.ar    1  UNL1       -0.0234
     32 C          45.9688   13.1635  -30.6053 C.ar    1  UNL1       -0.0045
     33 C          46.1631   11.9996  -31.3527 C.ar    1  UNL1       -0.0003
     34 C          46.4506   10.7947  -30.7089 C.ar    1  UNL1       -0.0003
     35 C          46.5409   10.7493  -29.3155 C.ar    1  UNL1       -0.0032
     36 C          46.3362   11.9098  -28.5522 C.ar    1  UNL1       -0.0103
     37 C          46.5056   11.8438  -27.0524 C.3     1  UNL1        0.0953
     38 N          45.9824   13.0362  -26.3657 N.3     1  UNL1       -0.2934
     39 H          46.3219   13.0241  -25.3754 H       1  UNL1        0.1236
@<TRIPOS>BOND
     1     2     3    1
     2     3     4    1
     3     4     5    1
     4     5     6    1
     5     6     1    1
     6     1    15    1
     7    15    16    1
     8    16    17    1
     9    17    18    1
    10    18    19    1
    11    19    21    1
    12    21    22    1
    13    22    23    1
    14    23    24    1
    15    24    25    1
    16    25    26    1
    17     1    28    1
    18    28    29    1
    19    29    30    1
    20    30    31    1
    21    31    32   ar
    22    32    33   ar
    23    33    34   ar
    24    34    35   ar
    25    35    36   ar
    26    36    37    1
    27    37    38    1
    28     6     7    1
    29     7     8   ar
    30     8     9   ar
    31     9    10   ar
    32    10    11   ar
    33    11    12   ar
    34    12     3    1
    35    26    21    1
    36    38    29    1
    37    12     7   ar
    38    36    31   ar
    39     2    13    1
    40     2    14    1
    41    19    20    1
    42    24    27    1
    43    38    39    1
@<TRIPOS>MOLECULE
*****
 39 43 0 0 0
SMALL
GASTEIGER

@<TRIPOS>ATOM
      1 N          48.2110   14.5001  -24.1151 N.3     1  UNL1       -0.2679
      2 N          51.2468   12.3468  -20.8296 N.3     1  UNL1       -0.3188
      3 C          51.6097   13.5632  -21.5641 C.3     1  UNL1        0.0749
      4 C          50.6919   14.7484  -21.1985 C.3     1  UNL1        0.0218
      5 C          49.3433   14.6532  -21.9105 C.3     1  UNL1        0.0238
      6 C          49.5249   14.7036  -23.4394 C.3     1  UNL1        0.0979
      7 C          50.6141   13.7544  -23.9243 C.ar    1  UNL1        0.0707
      8 N          50.6887   13.4521  -25.2507 N.ar    1  UNL1       -0.2471
      9 C          51.6685   12.6669  -25.7672 C.ar    1  UNL1        0.0985
     10 C          52.6594   12.1522  -24.9352 C.ar    1  UNL1        0.0204
     11 C          52.6349   12.4584  -23.5760 C.ar    1  UNL1       -0.0002
     12 C          51.6220   13.2760  -23.0512 C.ar    1  UNL1        0.0067
     13 H          51.2763   12.5439  -19.8029 H       1  UNL1        0.1191
     14 H          50.2728   12.0556  -21.0723 H       1  UNL1        0.1191
     15 C          47.7906   15.6138  -25.0038 C.3     1  UNL1        0.0725
     16 C          48.0839   15.2478  -26.4647 C.3     1  UNL1        0.0188
     17 C          46.9950   15.7922  -27.4021 C.3     1  UNL1        0.0185
     18 C          46.1343   14.6836  -28.0429 C.3     1  UNL1        0.0686
     19 N          46.3067   13.3371  -27.4581 N.3     1  UNL1       -0.2985
     20 H          47.2684   13.2727  -27.0500 H       1  UNL1        0.1232
     21 C          46.0855   12.2005  -28.3781 C.3     1  UNL1        0.0568
     22 C          45.9846   12.7281  -29.8281 C.3     1  UNL1        0.0328
     23 C          46.3384   11.6614  -30.8841 C.3     1  UNL1        0.0699
     24 N          46.0945   10.3030  -30.3863 N.3     1  UNL1       -0.2974
     25 C          46.9740    9.9732  -29.2496 C.3     1  UNL1        0.0699
     26 C          47.2141   11.1572  -28.2837 C.3     1  UNL1        0.0328
     27 H          45.0942   10.2270  -30.0845 H       1  UNL1        0.1232
     28 C          47.1384   14.0365  -23.2017 C.3     1  UNL1        0.0886
     29 C          46.4307   12.7819  -23.7731 C.3     1  UNL1        0.0748
     30 C          47.4061   11.8205  -24.4716 C.3     1  UNL1        0.0432
     31 C          48.2131   11.0246  -23.4826 C.ar    1  UNL1       -0.0234
     32 C          49.4007   10.4036  -23.9007 C.ar    1  UNL1       -0.0045
     33 C          50.1358    9.6159  -23.0118 C.ar    1  UNL1       -0.0003
     34 C          49.6866    9.4338  -21.7026 C.ar    1  UNL1       -0.0003
     35 C          48.4991   10.0360  -21.2795 C.ar    1  UNL1       -0.0032
     36 C          47.7452   10.8207  -22.1667 C.ar    1  UNL1       -0.0103
     37 C          46.5007   11.5128  -21.6618 C.3     1  UNL1        0.0953
     38 N          45.6650   12.0490  -22.7487 N.3     1  UNL1       -0.2934
     39 H          44.9508   12.6911  -22.3317 H       1  UNL1        0.1236
@<TRIPOS>BOND
     1     2     3    1
     2     3     4    1
     3     4     5    1
     4     5     6    1
     5     6     1    1
     6     1    15    1
     7    15    16    1
     8    16    17    1
     9    17    18    1
    10    18    19    1
    11    19    21    1
    12    21    22    1
    13    22    23    1
    14    23    24    1
    15    24    25    1
    16    25    26    1
    17     1    28    1
    18    28    29    1
    19    29    30    1
    20    30    31    1
    21    31    32   ar
    22    32    33   ar
    23    33    34   ar
    24    34    35   ar
    25    35    36   ar
    26    36    37    1
    27    37    38    1
    28     6     7    1
    29     7     8   ar
    30     8     9   ar
    31     9    10   ar
    32    10    11   ar
    33    11    12   ar
    34    12     3    1
    35    26    21    1
    36    38    29    1
    37    12     7   ar
    38    36    31   ar
    39     2    13    1
    40     2    14    1
    41    19    20    1
    42    24    27    1
    43    38    39    1
@<TRIPOS>MOLECULE
*****
 39 43 0 0 0
SMALL
GASTEIGER

@<TRIPOS>ATOM
      1 N          48.8014   14.7905  -25.5314 N.3     1  UNL1       -0.2679
      2 N          49.2759   19.1709  -27.8192 N.3     1  UNL1       -0.3188
      3 C          49.8180   18.9138  -26.4810 C.3     1  UNL1        0.0749
      4 C          50.9217   17.8360  -26.5075 C.3     1  UNL1        0.0218
      5 C          50.3301   16.4301  -26.5993 C.3     1  UNL1        0.0238
      6 C          49.4547   16.1214  -25.3699 C.3     1  UNL1        0.0979
      7 C          48.4766   17.2478  -25.0585 C.ar    1  UNL1        0.0707
      8 N          47.4377   17.0089  -24.2100 N.ar    1  UNL1       -0.2471
      9 C          46.5635   17.9774  -23.8344 C.ar    1  UNL1        0.0985
     10 C          46.7218   19.2786  -24.3042 C.ar    1  UNL1        0.0204
     11 C          47.7869   19.5715  -25.1538 C.ar    1  UNL1       -0.0002
     12 C          48.6897   18.5658  -25.5323 C.ar    1  UNL1        0.0067
     13 H          50.0562   19.4460  -28.4588 H       1  UNL1        0.1191
     14 H          48.8367   18.3038  -28.2036 H       1  UNL1        0.1191
     15 C          49.6184   13.6378  -25.0721 C.3     1  UNL1        0.0725
     16 C          49.6543   13.6087  -23.5384 C.3     1  UNL1        0.0188
     17 C          51.0629   13.2760  -23.0229 C.3     1  UNL1        0.0185
     18 C          51.9776   12.6646  -24.1045 C.3     1  UNL1        0.0686
     19 N          52.1062   11.1928  -24.0602 N.3     1  UNL1       -0.2985
     20 H          52.9752   10.9510  -23.5290 H       1  UNL1        0.1232
     21 C          52.1234   10.5065  -25.3701 C.3     1  UNL1        0.0568
     22 C          50.7187    9.9312  -25.6648 C.3     1  UNL1        0.0328
     23 C          50.4529    9.7302  -27.1704 C.3     1  UNL1        0.0699
     24 N          51.6984    9.5302  -27.9195 N.3     1  UNL1       -0.2974
     25 C          52.5594   10.7264  -27.8744 C.3     1  UNL1        0.0699
     26 C          52.5450   11.4532  -26.5090 C.3     1  UNL1        0.0328
     27 H          52.2139    8.7159  -27.5090 H       1  UNL1        0.1232
     28 C          48.1908   14.5863  -26.8675 C.3     1  UNL1        0.0886
     29 C          46.6613   14.3683  -26.7479 C.3     1  UNL1        0.0748
     30 C          45.9507   14.4098  -28.1106 C.3     1  UNL1        0.0432
     31 C          46.1606   13.1409  -28.8908 C.ar    1  UNL1       -0.0234
     32 C          45.9367   13.1371  -30.2767 C.ar    1  UNL1       -0.0045
     33 C          46.0736   11.9564  -31.0103 C.ar    1  UNL1       -0.0003
     34 C          46.4251   10.7691  -30.3655 C.ar    1  UNL1       -0.0003
     35 C          46.6372   10.7583  -28.9847 C.ar    1  UNL1       -0.0032
     36 C          46.4914   11.9360  -28.2343 C.ar    1  UNL1       -0.0103
     37 C          46.7917   11.9075  -26.7540 C.3     1  UNL1        0.0953
     38 N          46.3217   13.1136  -26.0528 N.3     1  UNL1       -0.2934
     39 H          46.7465   13.1274  -25.0960 H       1  UNL1        0.1236
@<TRIPOS>BOND
     1     2     3    1
     2     3     4    1
     3     4     5    1
     4     5     6    1
     5     6     1    1
     6     1    15    1
     7    15    16    1
     8    16    17    1
     9    17    18    1
    10    18    19    1
    11    19    21    1
    12    21    22    1
    13    22    23    1
    14    23    24    1
    15    24    25    1
    16    25    26    1
    17     1    28    1
    18    28    29    1
    19    29    30    1
    20    30    31    1
    21    31    32   ar
    22    32    33   ar
    23    33    34   ar
    24    34    35   ar
    25    35    36   ar
    26    36    37    1
    27    37    38    1
    28     6     7    1
    29     7     8   ar
    30     8     9   ar
    31     9    10   ar
    32    10    11   ar
    33    11    12   ar
    34    12     3    1
    35    26    21    1
    36    38    29    1
    37    12     7   ar
    38    36    31   ar
    39     2    13    1
    40     2    14    1
    41    19    20    1
    42    24    27    1
    43    38    39    1
@<TRIPOS>MOLECULE
*****
 39 43 0 0 0
SMALL
GASTEIGER

@<TRIPOS>ATOM
      1 N          49.5643   14.7990  -24.8912 N.3     1  UNL1       -0.2679
      2 N          48.8308   18.7849  -27.7586 N.3     1  UNL1       -0.3188
      3 C          49.4654   18.8649  -26.4389 C.3     1  UNL1        0.0749
      4 C          50.8056   18.1012  -26.4005 C.3     1  UNL1        0.0218
      5 C          50.5884   16.5946  -26.2670 C.3     1  UNL1        0.0238
      6 C          49.8625   16.2591  -24.9503 C.3     1  UNL1        0.0979
      7 C          48.6411   17.1413  -24.7219 C.ar    1  UNL1        0.0707
      8 N          47.7264   16.7775  -23.7799 N.ar    1  UNL1       -0.2471
      9 C          46.6478   17.5434  -23.4746 C.ar    1  UNL1        0.0985
     10 C          46.4538   18.7618  -24.1201 C.ar    1  UNL1        0.0204
     11 C          47.3800   19.1837  -25.0720 C.ar    1  UNL1       -0.0002
     12 C          48.4956   18.3888  -25.3773 C.ar    1  UNL1        0.0067
     13 H          49.4934   19.1494  -28.4810 H       1  UNL1        0.1191
     14 H          48.6140   17.7901  -27.9953 H       1  UNL1        0.1191
     15 C          50.7144   13.9458  -24.4956 C.3     1  UNL1        0.0725
     16 C          51.0219   12.9421  -25.6147 C.3     1  UNL1        0.0188
     17 C          51.9426   11.8185  -25.1142 C.3     1  UNL1        0.0185
     18 C          51.1736   10.6312  -24.4984 C.3     1  UNL1        0.0686
     19 N          50.7616   10.8116  -23.0904 N.3     1  UNL1       -0.2985
     20 H          51.3459   10.1840  -22.4901 H       1  UNL1        0.1232
     21 C          49.3305   10.5763  -22.8012 C.3     1  UNL1        0.0568
     22 C          49.1893    9.3291  -21.8982 C.3     1  UNL1        0.0328
     23 C          47.8850    9.3245  -21.0755 C.3     1  UNL1        0.0699
     24 N          46.8282   10.1044  -21.7292 N.3     1  UNL1       -0.2974
     25 C          47.1803   11.5336  -21.8163 C.3     1  UNL1        0.0699
     26 C          48.6762   11.7896  -22.1149 C.3     1  UNL1        0.0328
     27 H          46.6746    9.7255  -22.6938 H       1  UNL1        0.1232
     28 C          48.8346   14.2928  -26.0790 C.3     1  UNL1        0.0886
     29 C          47.3381   14.0610  -25.7502 C.3     1  UNL1        0.0748
     30 C          46.4169   14.3712  -26.9413 C.3     1  UNL1        0.0432
     31 C          46.4509   13.2791  -27.9752 C.ar    1  UNL1       -0.0234
     32 C          46.0042   13.5477  -29.2787 C.ar    1  UNL1       -0.0045
     33 C          45.9771   12.5332  -30.2383 C.ar    1  UNL1       -0.0003
     34 C          46.3858   11.2414  -29.9022 C.ar    1  UNL1       -0.0003
     35 C          46.8195   10.9594  -28.6045 C.ar    1  UNL1       -0.0032
     36 C          46.8405   11.9677  -27.6277 C.ar    1  UNL1       -0.0103
     37 C          47.3768   11.6486  -26.2518 C.3     1  UNL1        0.0953
     38 N          47.0712   12.6956  -25.2631 N.3     1  UNL1       -0.2934
     39 H          47.6465   12.5202  -24.4060 H       1  UNL1        0.1236
@<TRIPOS>BOND
     1     2     3    1
     2     3     4    1
     3     4     5    1
     4     5     6    1
     5     6     1    1
     6     1    15    1
     7    15    16    1
     8    16    17    1
     9    17    18    1
    10    18    19    1
    11    19    21    1
    12    21    22    1
    13    22    23    1
    14    23    24    1
    15    24    25    1
    16    25    26    1
    17     1    28    1
    18    28    29    1
    19    29    30    1
    20    30    31    1
    21    31    32   ar
    22    32    33   ar
    23    33    34   ar
    24    34    35   ar
    25    35    36   ar
    26    36    37    1
    27    37    38    1
    28     6     7    1
    29     7     8   ar
    30     8     9   ar
    31     9    10   ar
    32    10    11   ar
    33    11    12   ar
    34    12     3    1
    35    26    21    1
    36    38    29    1
    37    12     7   ar
    38    36    31   ar
    39     2    13    1
    40     2    14    1
    41    19    20    1
    42    24    27    1
    43    38    39    1
@<TRIPOS>MOLECULE
*****
 39 43 0 0 0
SMALL
GASTEIGER

@<TRIPOS>ATOM
      1 N          47.9136   13.2810  -23.7714 N.3     1  UNL1       -0.2679
      2 N          48.8024   16.3566  -27.5658 N.3     1  UNL1       -0.3188
      3 C          49.4919   16.4701  -26.2765 C.3     1  UNL1        0.0749
      4 C          50.3666   15.2332  -25.9839 C.3     1  UNL1        0.0218
      5 C          49.5255   14.0552  -25.4942 C.3     1  UNL1        0.0238
      6 C          48.8121   14.4014  -24.1736 C.3     1  UNL1        0.0979
      7 C          48.1125   15.7541  -24.2312 C.ar    1  UNL1        0.0707
      8 N          47.1931   16.0670  -23.2756 N.ar    1  UNL1       -0.2471
      9 C          46.5764   17.2754  -23.2230 C.ar    1  UNL1        0.0985
     10 C          46.8900   18.2586  -24.1578 C.ar    1  UNL1        0.0204
     11 C          47.8444   17.9885  -25.1367 C.ar    1  UNL1       -0.0002
     12 C          48.4818   16.7389  -25.1803 C.ar    1  UNL1        0.0067
     13 H          49.5097   16.2077  -28.3216 H       1  UNL1        0.1191
     14 H          48.1603   15.5319  -27.5606 H       1  UNL1        0.1191
     15 C          48.2284   12.6756  -22.4518 C.3     1  UNL1        0.0725
     16 C          49.5794   11.9518  -22.5246 C.3     1  UNL1        0.0188
     17 C          49.4221   10.4527  -22.2269 C.3     1  UNL1        0.0185
     18 C          50.1449    9.5507  -23.2487 C.3     1  UNL1        0.0686
     19 N          51.5328    9.9478  -23.5664 N.3     1  UNL1       -0.2985
     20 H          51.7078   10.8970  -23.1613 H       1  UNL1        0.1232
     21 C          51.8909    9.9515  -25.0012 C.3     1  UNL1        0.0568
     22 C          50.7192    9.3656  -25.8226 C.3     1  UNL1        0.0328
     23 C          50.7146    9.8399  -27.2899 C.3     1  UNL1        0.0699
     24 N          52.0606   10.2022  -27.7474 N.3     1  UNL1       -0.2974
     25 C          52.5937   11.3614  -27.0083 C.3     1  UNL1        0.0699
     26 C          52.2211   11.3680  -25.5070 C.3     1  UNL1        0.0328
     27 H          52.6973    9.3814  -27.6116 H       1  UNL1        0.1232
     28 C          47.6958   12.2796  -24.8435 C.3     1  UNL1        0.0886
     29 C          46.1825   12.0545  -25.0895 C.3     1  UNL1        0.0748
     30 C          45.3727   13.3595  -25.0220 C.3     1  UNL1        0.0432
     31 C          45.5424   14.1892  -26.2652 C.ar    1  UNL1       -0.0234
     32 C          45.2168   15.5544  -26.2344 C.ar    1  UNL1       -0.0045
     33 C          45.3159   16.3297  -27.3920 C.ar    1  UNL1       -0.0003
     34 C          45.7308   15.7469  -28.5908 C.ar    1  UNL1       -0.0003
     35 C          46.0443   14.3862  -28.6363 C.ar    1  UNL1       -0.0032
     36 C          45.9377   13.5937  -27.4823 C.ar    1  UNL1       -0.0103
     37 C          46.3469   12.1407  -27.5468 C.3     1  UNL1        0.0953
     38 N          45.9129   11.3726  -26.3683 N.3     1  UNL1       -0.2934
     39 H          46.4070   10.4495  -26.3740 H       1  UNL1        0.1236
@<TRIPOS>BOND
     1     2     3    1
     2     3     4    1
     3     4     5    1
     4     5     6    1
     5     6     1    1
     6     1    15    1
     7    15    16    1
     8    16    17    1
     9    17    18    1
    10    18    19    1
    11    19    21    1
    12    21    22    1
    13    22    23    1
    14    23    24    1
    15    24    25    1
    16    25    26    1
    17     1    28    1
    18    28    29    1
    19    29    30    1
    20    30    31    1
    21    31    32   ar
    22    32    33   ar
    23    33    34   ar
    24    34    35   ar
    25    35    36   ar
    26    36    37    1
    27    37    38    1
    28     6     7    1
    29     7     8   ar
    30     8     9   ar
    31     9    10   ar
    32    10    11   ar
    33    11    12   ar
    34    12     3    1
    35    26    21    1
    36    38    29    1
    37    12     7   ar
    38    36    31   ar
    39     2    13    1
    40     2    14    1
    41    19    20    1
    42    24    27    1
    43    38    39    1
@<TRIPOS>MOLECULE
*****
 39 43 0 0 0
SMALL
GASTEIGER

@<TRIPOS>ATOM
      1 N          48.1029   13.4180  -23.7536 N.3     1  UNL1       -0.2679
      2 N          48.6724   16.5041  -27.6005 N.3     1  UNL1       -0.3188
      3 C          49.3915   16.6764  -26.3341 C.3     1  UNL1        0.0749
      4 C          50.3542   15.5027  -26.0577 C.3     1  UNL1        0.0218
      5 C          49.6076   14.2775  -25.5320 C.3     1  UNL1        0.0238
      6 C          48.9131   14.5905  -24.1931 C.3     1  UNL1        0.0979
      7 C          48.1247   15.8937  -24.2410 C.ar    1  UNL1        0.0707
      8 N          47.2159   16.1561  -23.2604 N.ar    1  UNL1       -0.2471
      9 C          46.5228   17.3220  -23.1994 C.ar    1  UNL1        0.0985
     10 C          46.7427   18.3134  -24.1520 C.ar    1  UNL1        0.0204
     11 C          47.6828   18.0959  -25.1574 C.ar    1  UNL1       -0.0002
     12 C          48.3995   16.8903  -25.2097 C.ar    1  UNL1        0.0067
     13 H          49.3649   16.3936  -28.3764 H       1  UNL1        0.1191
     14 H          48.0865   15.6391  -27.5682 H       1  UNL1        0.1191
     15 C          48.5353   12.8110  -22.4684 C.3     1  UNL1        0.0725
     16 C          47.3332   12.6943  -21.5220 C.3     1  UNL1        0.0188
     17 C          47.0828   11.2322  -21.1215 C.3     1  UNL1        0.0185
     18 C          48.2457   10.6141  -20.3178 C.3     1  UNL1        0.0686
     19 N          48.2424   10.9197  -18.8716 N.3     1  UNL1       -0.2985
     20 H          47.6065   11.7344  -18.7055 H       1  UNL1        0.1232
     21 C          49.5636   11.1957  -18.2670 C.3     1  UNL1        0.0568
     22 C          50.4940   11.8189  -19.3332 C.3     1  UNL1        0.0328
     23 C          51.6324   12.6611  -18.7224 C.3     1  UNL1        0.0699
     24 N          51.9659   12.2187  -17.3639 N.3     1  UNL1       -0.2974
     25 C          50.8416   12.4246  -16.4324 C.3     1  UNL1        0.0699
     26 C          49.4551   12.1419  -17.0571 C.3     1  UNL1        0.0328
     27 H          52.2130   11.2010  -17.3898 H       1  UNL1        0.1232
     28 C          47.8674   12.4223  -24.8272 C.3     1  UNL1        0.0886
     29 C          46.3529   12.1417  -24.9974 C.3     1  UNL1        0.0748
     30 C          45.5060   13.4238  -24.9506 C.3     1  UNL1        0.0432
     31 C          45.5969   14.2027  -26.2343 C.ar    1  UNL1       -0.0234
     32 C          45.2301   15.5577  -26.2477 C.ar    1  UNL1       -0.0045
     33 C          45.2559   16.2839  -27.4406 C.ar    1  UNL1       -0.0003
     34 C          45.6381   15.6614  -28.6302 C.ar    1  UNL1       -0.0003
     35 C          45.9922   14.3100  -28.6312 C.ar    1  UNL1       -0.0032
     36 C          45.9592   13.5661  -27.4408 C.ar    1  UNL1       -0.0103
     37 C          46.4109   12.1246  -27.4609 C.3     1  UNL1        0.0953
     38 N          46.0514   11.3966  -26.2330 N.3     1  UNL1       -0.2934
     39 H          46.5736   10.4891  -26.2207 H       1  UNL1        0.1236
@<TRIPOS>BOND
     1     2     3    1
     2     3     4    1
     3     4     5    1
     4     5     6    1
     5     6     1    1
     6     1    15    1
     7    15    16    1
     8    16    17    1
     9    17    18    1
    10    18    19    1
    11    19    21    1
    12    21    22    1
    13    22    23    1
    14    23    24    1
    15    24    25    1
    16    25    26    1
    17     1    28    1
    18    28    29    1
    19    29    30    1
    20    30    31    1
    21    31    32   ar
    22    32    33   ar
    23    33    34   ar
    24    34    35   ar
    25    35    36   ar
    26    36    37    1
    27    37    38    1
    28     6     7    1
    29     7     8   ar
    30     8     9   ar
    31     9    10   ar
    32    10    11   ar
    33    11    12   ar
    34    12     3    1
    35    26    21    1
    36    38    29    1
    37    12     7   ar
    38    36    31   ar
    39     2    13    1
    40     2    14    1
    41    19    20    1
    42    24    27    1
    43    38    39    1
@<TRIPOS>MOLECULE
*****
 39 43 0 0 0
SMALL
GASTEIGER

@<TRIPOS>ATOM
      1 N          47.7874   13.1531  -23.9140 N.3     1  UNL1       -0.2679
      2 N          51.7456   10.1587  -23.7976 N.3     1  UNL1       -0.3188
      3 C          50.4283    9.7119  -24.2620 C.3     1  UNL1        0.0749
      4 C          49.9864   10.4599  -25.5371 C.3     1  UNL1        0.0218
      5 C          49.4605   11.8576  -25.2131 C.3     1  UNL1        0.0238
      6 C          48.2181   11.7801  -24.3058 C.3     1  UNL1        0.0979
      7 C          48.4241   10.8437  -23.1213 C.ar    1  UNL1        0.0707
      8 N          47.5553   10.8982  -22.0732 N.ar    1  UNL1       -0.2471
      9 C          47.6352   10.0537  -21.0131 C.ar    1  UNL1        0.0985
     10 C          48.6219    9.0718  -20.9779 C.ar    1  UNL1        0.0204
     11 C          49.5151    8.9649  -22.0422 C.ar    1  UNL1       -0.0002
     12 C          49.4217    9.8379  -23.1371 C.ar    1  UNL1        0.0067
     13 H          52.4418   10.0343  -24.5681 H       1  UNL1        0.1191
     14 H          51.7167   11.1745  -23.5526 H       1  UNL1        0.1191
     15 C          46.3169   13.3642  -23.9062 C.3     1  UNL1        0.0725
     16 C          45.7363   13.0058  -25.2805 C.3     1  UNL1        0.0188
     17 C          45.5875   14.2550  -26.1625 C.3     1  UNL1        0.0185
     18 C          46.6472   14.3395  -27.2808 C.3     1  UNL1        0.0686
     19 N          46.1256   14.1774  -28.6543 N.3     1  UNL1       -0.2985
     20 H          45.2179   14.6934  -28.7281 H       1  UNL1        0.1232
     21 C          45.9383   12.7842  -29.1136 C.3     1  UNL1        0.0568
     22 C          45.9488   12.7493  -30.6594 C.3     1  UNL1        0.0328
     23 C          46.3459   11.3724  -31.2290 C.3     1  UNL1        0.0699
     24 N          46.0347   10.2872  -30.2920 N.3     1  UNL1       -0.2974
     25 C          46.8268   10.3933  -29.0529 C.3     1  UNL1        0.0699
     26 C          47.0312   11.8474  -28.5667 C.3     1  UNL1        0.0328
     27 H          45.0147   10.3250  -30.0561 H       1  UNL1        0.1232
     28 C          48.5349   14.2308  -24.6064 C.3     1  UNL1        0.0886
     29 C          49.0918   15.2582  -23.5887 C.3     1  UNL1        0.0748
     30 C          50.3199   16.0127  -24.1234 C.3     1  UNL1        0.0432
     31 C          49.9364   17.0730  -25.1192 C.ar    1  UNL1       -0.0234
     32 C          50.9090   17.5842  -25.9929 C.ar    1  UNL1       -0.0045
     33 C          50.5860   18.6069  -26.8877 C.ar    1  UNL1       -0.0003
     34 C          49.2935   19.1339  -26.9106 C.ar    1  UNL1       -0.0003
     35 C          48.3211   18.6422  -26.0363 C.ar    1  UNL1       -0.0032
     36 C          48.6363   17.6223  -25.1242 C.ar    1  UNL1       -0.0103
     37 C          47.5472   17.0654  -24.2375 C.3     1  UNL1        0.0953
     38 N          48.0719   16.2266  -23.1474 N.3     1  UNL1       -0.2934
     39 H          47.2723   15.7072  -22.7146 H       1  UNL1        0.1236
@<TRIPOS>BOND
     1     2     3    1
     2     3     4    1
     3     4     5    1
     4     5     6    1
     5     6     1    1
     6     1    15    1
     7    15    16    1
     8    16    17    1
     9    17    18    1
    10    18    19    1
    11    19    21    1
    12    21    22    1
    13    22    23    1
    14    23    24    1
    15    24    25    1
    16    25    26    1
    17     1    28    1
    18    28    29    1
    19    29    30    1
    20    30    31    1
    21    31    32   ar
    22    32    33   ar
    23    33    34   ar
    24    34    35   ar
    25    35    36   ar
    26    36    37    1
    27    37    38    1
    28     6     7    1
    29     7     8   ar
    30     8     9   ar
    31     9    10   ar
    32    10    11   ar
    33    11    12   ar
    34    12     3    1
    35    26    21    1
    36    38    29    1
    37    12     7   ar
    38    36    31   ar
    39     2    13    1
    40     2    14    1
    41    19    20    1
    42    24    27    1
    43    38    39    1
@<TRIPOS>MOLECULE
*****
 39 43 0 0 0
SMALL
GASTEIGER

@<TRIPOS>ATOM
      1 N          47.3312   13.9025  -23.9988 N.3     1  UNL1       -0.2679
      2 N          51.6846   12.7298  -21.9205 N.3     1  UNL1       -0.3188
      3 C          51.5833   13.4898  -23.1705 C.3     1  UNL1        0.0749
      4 C          50.8987   14.8560  -22.9564 C.3     1  UNL1        0.0218
      5 C          49.3809   14.7124  -22.8549 C.3     1  UNL1        0.0238
      6 C          48.7956   14.1359  -24.1580 C.3     1  UNL1        0.0979
      7 C          49.5599   12.9099  -24.6430 C.ar    1  UNL1        0.0707
      8 N          48.9974   12.1092  -25.5910 N.ar    1  UNL1       -0.2471
      9 C          49.6425   11.0375  -26.1188 C.ar    1  UNL1        0.0985
     10 C          50.9373   10.7322  -25.7074 C.ar    1  UNL1        0.0204
     11 C          51.5593   11.5410  -24.7582 C.ar    1  UNL1       -0.0002
     12 C          50.8876   12.6507  -24.2223 C.ar    1  UNL1        0.0067
     13 H          52.1981   13.3018  -21.2113 H       1  UNL1        0.1191
     14 H          50.7313   12.5294  -21.5414 H       1  UNL1        0.1191
     15 C          46.4657   14.9014  -24.6772 C.3     1  UNL1        0.0725
     16 C          45.6050   14.2033  -25.7382 C.3     1  UNL1        0.0188
     17 C          46.3117   14.1866  -27.1024 C.3     1  UNL1        0.0185
     18 C          46.7018   15.5930  -27.6025 C.3     1  UNL1        0.0686
     19 N          48.1532   15.8234  -27.7614 N.3     1  UNL1       -0.2985
     20 H          48.6438   14.9002  -27.7098 H       1  UNL1        0.1232
     21 C          48.7674   16.7613  -26.7970 C.3     1  UNL1        0.0568
     22 C          50.2902   16.5012  -26.7292 C.3     1  UNL1        0.0328
     23 C          51.0911   17.7287  -26.2499 C.3     1  UNL1        0.0699
     24 N          50.2766   18.6142  -25.4103 N.3     1  UNL1       -0.2974
     25 C          49.1558   19.2029  -26.1664 C.3     1  UNL1        0.0699
     26 C          48.5093   18.2302  -27.1804 C.3     1  UNL1        0.0328
     27 H          49.8992   18.0634  -24.6031 H       1  UNL1        0.1232
     28 C          46.9229   13.6196  -22.6014 C.3     1  UNL1        0.0886
     29 C          46.0814   12.3206  -22.5243 C.3     1  UNL1        0.0748
     30 C          46.8133   11.1068  -23.1196 C.3     1  UNL1        0.0432
     31 C          47.8736   10.5810  -22.1911 C.ar    1  UNL1       -0.0234
     32 C          48.8895    9.7561  -22.6991 C.ar    1  UNL1       -0.0045
     33 C          49.8519    9.2140  -21.8442 C.ar    1  UNL1       -0.0003
     34 C          49.8022    9.4827  -20.4752 C.ar    1  UNL1       -0.0003
     35 C          48.7879   10.2913  -19.9566 C.ar    1  UNL1       -0.0032
     36 C          47.8079   10.8328  -20.8038 C.ar    1  UNL1       -0.0103
     37 C          46.7627   11.7569  -20.2241 C.3     1  UNL1        0.0953
     38 N          45.6468   12.0092  -21.1506 N.3     1  UNL1       -0.2934
     39 H          45.0836   12.8106  -20.7806 H       1  UNL1        0.1236
@<TRIPOS>BOND
     1     2     3    1
     2     3     4    1
     3     4     5    1
     4     5     6    1
     5     6     1    1
     6     1    15    1
     7    15    16    1
     8    16    17    1
     9    17    18    1
    10    18    19    1
    11    19    21    1
    12    21    22    1
    13    22    23    1
    14    23    24    1
    15    24    25    1
    16    25    26    1
    17     1    28    1
    18    28    29    1
    19    29    30    1
    20    30    31    1
    21    31    32   ar
    22    32    33   ar
    23    33    34   ar
    24    34    35   ar
    25    35    36   ar
    26    36    37    1
    27    37    38    1
    28     6     7    1
    29     7     8   ar
    30     8     9   ar
    31     9    10   ar
    32    10    11   ar
    33    11    12   ar
    34    12     3    1
    35    26    21    1
    36    38    29    1
    37    12     7   ar
    38    36    31   ar
    39     2    13    1
    40     2    14    1
    41    19    20    1
    42    24    27    1
    43    38    39    1
@<TRIPOS>MOLECULE
*****
 39 43 0 0 0
SMALL
GASTEIGER

@<TRIPOS>ATOM
      1 N          49.6768   14.5342  -23.0649 N.3     1  UNL1       -0.2679
      2 N          48.3764   16.1775  -27.5655 N.3     1  UNL1       -0.3188
      3 C          49.1180   17.0017  -26.6055 C.3     1  UNL1        0.0749
      4 C          50.5125   16.4145  -26.3036 C.3     1  UNL1        0.0218
      5 C          50.4283   15.2468  -25.3216 C.3     1  UNL1        0.0238
      6 C          49.8518   15.7071  -23.9693 C.3     1  UNL1        0.0979
      7 C          48.5895   16.5450  -24.1335 C.ar    1  UNL1        0.0707
      8 N          47.7944   16.7665  -23.0496 N.ar    1  UNL1       -0.2471
      9 C          46.6900   17.5545  -23.1023 C.ar    1  UNL1        0.0985
     10 C          46.3431   18.1884  -24.2926 C.ar    1  UNL1        0.0204
     11 C          47.1442   18.0091  -25.4187 C.ar    1  UNL1       -0.0002
     12 C          48.2876   17.1979  -25.3540 C.ar    1  UNL1        0.0067
     13 H          48.9408   16.0774  -28.4402 H       1  UNL1        0.1191
     14 H          48.2190   15.2211  -27.1744 H       1  UNL1        0.1191
     15 C          50.3487   14.6614  -21.7459 C.3     1  UNL1        0.0725
     16 C          51.7000   13.9356  -21.7825 C.3     1  UNL1        0.0188
     17 C          52.4287   14.0521  -20.4348 C.3     1  UNL1        0.0185
     18 C          51.8664   13.1038  -19.3555 C.3     1  UNL1        0.0686
     19 N          51.1085   11.9442  -19.8709 N.3     1  UNL1       -0.2985
     20 H          50.7781   12.1667  -20.8389 H       1  UNL1        0.1232
     21 C          49.9606   11.5057  -19.0480 C.3     1  UNL1        0.0568
     22 C          50.1644   11.9813  -17.5908 C.3     1  UNL1        0.0328
     23 C          48.8422   12.1103  -16.8079 C.3     1  UNL1        0.0699
     24 N          47.8057   11.2203  -17.3426 N.3     1  UNL1       -0.2974
     25 C          47.4315   11.5862  -18.7212 C.3     1  UNL1        0.0699
     26 C          48.6254   12.0497  -19.5886 C.3     1  UNL1        0.0328
     27 H          48.1644   10.2361  -17.3302 H       1  UNL1        0.1232
     28 C          49.9205   13.2304  -23.7283 C.3     1  UNL1        0.0886
     29 C          48.7362   12.2598  -23.4900 C.3     1  UNL1        0.0748
     30 C          47.3841   12.9870  -23.4082 C.3     1  UNL1        0.0432
     31 C          46.8876   13.4012  -24.7664 C.ar    1  UNL1       -0.0234
     32 C          45.9021   14.3959  -24.8679 C.ar    1  UNL1       -0.0045
     33 C          45.3892   14.7562  -26.1161 C.ar    1  UNL1       -0.0003
     34 C          45.8483   14.1204  -27.2710 C.ar    1  UNL1       -0.0003
     35 C          46.8190   13.1197  -27.1807 C.ar    1  UNL1       -0.0032
     36 C          47.3341   12.7403  -25.9309 C.ar    1  UNL1       -0.0103
     37 C          48.4301   11.7022  -25.8708 C.3     1  UNL1        0.0953
     38 N          48.6632   11.1964  -24.5081 N.3     1  UNL1       -0.2934
     39 H          49.5606   10.6571  -24.5037 H       1  UNL1        0.1236
@<TRIPOS>BOND
     1     2     3    1
     2     3     4    1
     3     4     5    1
     4     5     6    1
     5     6     1    1
     6     1    15    1
     7    15    16    1
     8    16    17    1
     9    17    18    1
    10    18    19    1
    11    19    21    1
    12    21    22    1
    13    22    23    1
    14    23    24    1
    15    24    25    1
    16    25    26    1
    17     1    28    1
    18    28    29    1
    19    29    30    1
    20    30    31    1
    21    31    32   ar
    22    32    33   ar
    23    33    34   ar
    24    34    35   ar
    25    35    36   ar
    26    36    37    1
    27    37    38    1
    28     6     7    1
    29     7     8   ar
    30     8     9   ar
    31     9    10   ar
    32    10    11   ar
    33    11    12   ar
    34    12     3    1
    35    26    21    1
    36    38    29    1
    37    12     7   ar
    38    36    31   ar
    39     2    13    1
    40     2    14    1
    41    19    20    1
    42    24    27    1
    43    38    39    1
