@<TRIPOS>MOLECULE
*****
 48 53 0 0 0
SMALL
GASTEIGER

@<TRIPOS>ATOM
      1 C          61.9849   87.3153   10.2986 C.ar    1  UNL1        0.0702
      2 C          61.4625   87.3277    9.0002 C.ar    1  UNL1        0.0191
      3 C          60.6542   86.2805    8.5560 C.ar    1  UNL1        0.0356
      4 C          60.3775   85.2037    9.4158 C.ar    1  UNL1        0.1318
      5 N          60.9238   85.1991   10.6643 N.ar    1  UNL1       -0.2279
      6 C          61.7106   86.2098   11.1193 C.ar    1  UNL1        0.1149
      7 N          59.5477   84.0996    8.9939 N.pl3   1  UNL1       -0.2932
      8 C          58.0848   84.2538    8.9807 C.3     1  UNL1        0.0923
      9 C          57.4126   82.9081    9.2626 C.3     1  UNL1        0.0252
     10 C          57.8147   81.8232    8.2305 C.3     1  UNL1        0.0472
     11 C          59.1913   82.0970    7.5743 C.3     1  UNL1        0.0252
     12 C          60.1514   82.8476    8.5054 C.3     1  UNL1        0.0923
     13 C          57.7792   80.4194    8.8697 C.3     1  UNL1        0.2054
     14 O          58.2002   80.4626   10.2346 O.3     1  UNL1       -0.4752
     15 C          59.5286   80.3973   10.6937 C.ar    1  UNL1        0.1449
     16 C          60.4746   79.5306   10.1084 C.ar    1  UNL1        0.0435
     17 C          61.8006   79.4926   10.5683 C.ar    1  UNL1        0.0785
     18 C          62.1797   80.3342   11.6240 C.ar    1  UNL1        0.0068
     19 C          61.2538   81.1976   12.2090 C.ar    1  UNL1        0.0097
     20 C          59.9260   81.2426   11.7537 C.ar    1  UNL1        0.1093
     21 C          62.7827   78.5754    9.9468 C.2     1  UNL1        0.3381
     22 O          63.5632   78.9896    9.0472 O.2     1  UNL1       -0.2451
     23 O          62.8547   77.2445   10.3504 O.3     1  UNL1       -0.4771
     24 H          63.5234   76.6091    9.9316 H       1  UNL1        0.2954
     25 C          58.9564   82.1541   12.4110 C.2     1  UNL1        0.3410
     26 O          58.0752   81.6904   13.1824 O.2     1  UNL1       -0.2450
     27 O          58.9986   83.5311   12.1978 O.3     1  UNL1       -0.4770
     28 H          59.6284   83.9540   11.5275 H       1  UNL1        0.2954
     29 C          62.5545   89.2295   11.8661 C.2     1  UNL1        0.2839
     30 O          61.4080   89.2263   12.3898 O.2     1  UNL1       -0.2665
     31 N          62.8352   88.3900   10.7343 N.am    1  UNL1       -0.2766
     32 H          63.6631   88.6268   10.1417 H       1  UNL1        0.1553
     33 C          64.3913   88.7454   14.4478 C.3     1  UNL1        0.0345
     34 C          64.4059   89.9194   13.5158 C.ar    1  UNL1        0.0202
     35 C          63.6013   90.1274   12.3898 C.ar    1  UNL1        0.1946
     36 O          63.9086   91.2797   11.8212 O.2     1  UNL1       -0.4492
     37 C          64.8706   91.8303   12.5208 C.ar    1  UNL1        0.1452
     38 C          65.4990   93.0469   12.2800 C.ar    1  UNL1        0.0375
     39 C          66.5165   93.4503   13.1618 C.ar    1  UNL1        0.0031
     40 C          66.8892   92.6362   14.2655 C.ar    1  UNL1        0.0002
     41 C          66.2235   91.4045   14.4751 C.ar    1  UNL1        0.0028
     42 C          65.2180   91.0356   13.5801 C.ar    1  UNL1        0.0337
     43 C          67.9659   93.0727   15.1903 C.ar    1  UNL1        0.0000
     44 C          68.7314   92.1246   15.8957 C.ar    1  UNL1        0.0000
     45 C          69.7446   92.5385   16.7660 C.ar    1  UNL1        0.0000
     46 C          70.0059   93.8991   16.9411 C.ar    1  UNL1        0.0000
     47 C          69.2540   94.8493   16.2469 C.ar    1  UNL1        0.0000
     48 C          68.2389   94.4413   15.3759 C.ar    1  UNL1        0.0000
@<TRIPOS>BOND
     1    33    34    1
     2    34    35   ar
     3    35    29    1
     4    29    30    2
     5    29    31   am
     6    31     1    1
     7     1     2   ar
     8     2     3   ar
     9     3     4   ar
    10     4     7    1
    11     7     8    1
    12     8     9    1
    13     9    10    1
    14    10    13    1
    15    13    14    1
    16    14    15    1
    17    15    16   ar
    18    16    17   ar
    19    17    21    1
    20    21    22    2
    21    21    23    1
    22    17    18   ar
    23    18    19   ar
    24    19    20   ar
    25    20    25    1
    26    25    26    2
    27    25    27    1
    28    10    11    1
    29    11    12    1
    30     4     5   ar
    31     5     6   ar
    32    35    36   ar
    33    36    37   ar
    34    37    38   ar
    35    38    39   ar
    36    39    40   ar
    37    40    43    1
    38    43    44   ar
    39    44    45   ar
    40    45    46   ar
    41    46    47   ar
    42    47    48   ar
    43    40    41   ar
    44    41    42   ar
    45    42    34   ar
    46     6     1   ar
    47    42    37   ar
    48    12     7    1
    49    48    43   ar
    50    20    15   ar
    51    31    32    1
    52    23    24    1
    53    27    28    1
@<TRIPOS>MOLECULE
*****
 48 53 0 0 0
SMALL
GASTEIGER

@<TRIPOS>ATOM
      1 C          61.2442   89.3159    9.2743 C.ar    1  UNL1        0.0702
      2 C          61.7824   88.0710    9.6201 C.ar    1  UNL1        0.0191
      3 C          61.7748   87.6449   10.9490 C.ar    1  UNL1        0.0356
      4 C          61.2355   88.4793   11.9430 C.ar    1  UNL1        0.1318
      5 N          60.7465   89.7002   11.5857 N.ar    1  UNL1       -0.2279
      6 C          60.7402   90.1342   10.2977 C.ar    1  UNL1        0.1149
      7 N          61.2108   88.0766   13.3297 N.pl3   1  UNL1       -0.2932
      8 C          61.7455   88.9816   14.3588 C.3     1  UNL1        0.0923
      9 C          62.3228   88.1713   15.5217 C.3     1  UNL1        0.0252
     10 C          61.2666   87.2392   16.1693 C.3     1  UNL1        0.0472
     11 C          60.1260   86.8525   15.1945 C.3     1  UNL1        0.0252
     12 C          60.5884   86.8035   13.7331 C.3     1  UNL1        0.0923
     13 C          61.9357   85.9808   16.7603 C.3     1  UNL1        0.2054
     14 O          63.1127   85.6302   16.0296 O.3     1  UNL1       -0.4752
     15 C          63.2279   84.5807   15.0996 C.ar    1  UNL1        0.1449
     16 C          62.1637   83.6897   14.8501 C.ar    1  UNL1        0.0435
     17 C          62.2913   82.6594   13.9049 C.ar    1  UNL1        0.0785
     18 C          63.4977   82.5246   13.2029 C.ar    1  UNL1        0.0068
     19 C          64.5562   83.4014   13.4389 C.ar    1  UNL1        0.0097
     20 C          64.4360   84.4354   14.3816 C.ar    1  UNL1        0.1093
     21 C          61.1670   81.7289   13.6553 C.2     1  UNL1        0.3381
     22 O          61.2437   80.5231   14.0158 O.2     1  UNL1       -0.2451
     23 O          60.0117   82.1769   13.0195 O.3     1  UNL1       -0.4771
     24 H          59.2369   81.5483   12.8445 H       1  UNL1        0.2954
     25 C          65.5873   85.3388   14.6291 C.2     1  UNL1        0.3410
     26 O          65.3921   86.5569   14.8840 O.2     1  UNL1       -0.2450
     27 O          66.8986   84.8672   14.5910 O.3     1  UNL1       -0.4770
     28 H          67.1232   83.9205   14.3115 H       1  UNL1        0.2954
     29 C          60.1104   90.0314    7.1185 C.2     1  UNL1        0.2839
     30 O          58.9735   89.6629    7.5191 O.2     1  UNL1       -0.2665
     31 N          61.2802   89.7514    7.9043 N.am    1  UNL1       -0.2766
     32 H          62.2102   89.7847    7.4282 H       1  UNL1        0.1553
     33 C          57.7443   91.1979    5.2980 C.3     1  UNL1        0.0345
     34 C          59.2174   91.2281    5.0218 C.ar    1  UNL1        0.0202
     35 C          60.2475   90.7167    5.8192 C.ar    1  UNL1        0.1946
     36 O          61.4161   90.9345    5.2426 O.2     1  UNL1       -0.4492
     37 C          61.1971   91.5602    4.1120 C.ar    1  UNL1        0.1452
     38 C          62.1430   91.9855    3.1859 C.ar    1  UNL1        0.0375
     39 C          61.6868   92.6449    2.0315 C.ar    1  UNL1        0.0031
     40 C          60.2993   92.8687    1.8206 C.ar    1  UNL1        0.0002
     41 C          59.3690   92.4191    2.7884 C.ar    1  UNL1        0.0028
     42 C          59.8571   91.7678    3.9223 C.ar    1  UNL1        0.0337
     43 C          59.8291   93.5667    0.5972 C.ar    1  UNL1        0.0000
     44 C          60.7523   94.0704   -0.3390 C.ar    1  UNL1        0.0000
     45 C          60.3067   94.7274   -1.4901 C.ar    1  UNL1        0.0000
     46 C          58.9387   94.8879   -1.7204 C.ar    1  UNL1        0.0000
     47 C          58.0129   94.3924   -0.7998 C.ar    1  UNL1        0.0000
     48 C          58.4527   93.7353    0.3536 C.ar    1  UNL1        0.0000
@<TRIPOS>BOND
     1    33    34    1
     2    34    35   ar
     3    35    29    1
     4    29    30    2
     5    29    31   am
     6    31     1    1
     7     1     2   ar
     8     2     3   ar
     9     3     4   ar
    10     4     7    1
    11     7     8    1
    12     8     9    1
    13     9    10    1
    14    10    13    1
    15    13    14    1
    16    14    15    1
    17    15    16   ar
    18    16    17   ar
    19    17    21    1
    20    21    22    2
    21    21    23    1
    22    17    18   ar
    23    18    19   ar
    24    19    20   ar
    25    20    25    1
    26    25    26    2
    27    25    27    1
    28    10    11    1
    29    11    12    1
    30     4     5   ar
    31     5     6   ar
    32    35    36   ar
    33    36    37   ar
    34    37    38   ar
    35    38    39   ar
    36    39    40   ar
    37    40    43    1
    38    43    44   ar
    39    44    45   ar
    40    45    46   ar
    41    46    47   ar
    42    47    48   ar
    43    40    41   ar
    44    41    42   ar
    45    42    34   ar
    46     6     1   ar
    47    42    37   ar
    48    12     7    1
    49    48    43   ar
    50    20    15   ar
    51    31    32    1
    52    23    24    1
    53    27    28    1
@<TRIPOS>MOLECULE
*****
 48 53 0 0 0
SMALL
GASTEIGER

@<TRIPOS>ATOM
      1 C          61.7170   89.6327    9.1514 C.ar    1  UNL1        0.0702
      2 C          61.5317   88.2946    9.5173 C.ar    1  UNL1        0.0191
      3 C          61.6703   87.9028   10.8495 C.ar    1  UNL1        0.0356
      4 C          62.0112   88.8579   11.8226 C.ar    1  UNL1        0.1318
      5 N          62.2177   90.1484   11.4364 N.ar    1  UNL1       -0.2279
      6 C          62.0846   90.5531   10.1457 C.ar    1  UNL1        0.1149
      7 N          62.1664   88.4930   13.2112 N.pl3   1  UNL1       -0.2932
      8 C          63.5052   88.1814   13.7354 C.3     1  UNL1        0.0923
      9 C          63.4010   87.1512   14.8622 C.3     1  UNL1        0.0252
     10 C          62.5053   87.6442   16.0277 C.3     1  UNL1        0.0472
     11 C          61.4589   88.6955   15.5800 C.3     1  UNL1        0.0252
     12 C          61.0114   88.5024   14.1259 C.3     1  UNL1        0.0923
     13 C          61.8226   86.4548   16.7346 C.3     1  UNL1        0.2054
     14 O          60.9041   85.7935   15.8622 O.3     1  UNL1       -0.4752
     15 C          61.2161   84.7566   14.9636 C.ar    1  UNL1        0.1449
     16 C          62.1859   83.7786   15.2664 C.ar    1  UNL1        0.0435
     17 C          62.4707   82.7409   14.3646 C.ar    1  UNL1        0.0785
     18 C          61.7735   82.6843   13.1492 C.ar    1  UNL1        0.0068
     19 C          60.8102   83.6441   12.8398 C.ar    1  UNL1        0.0097
     20 C          60.5186   84.6843   13.7371 C.ar    1  UNL1        0.1093
     21 C          63.4937   81.7226   14.6938 C.2     1  UNL1        0.3381
     22 O          64.1117   81.1179   13.7760 O.2     1  UNL1       -0.2451
     23 O          63.7845   81.4223   16.0223 O.3     1  UNL1       -0.4771
     24 H          64.4830   80.7275   16.2580 H       1  UNL1        0.2954
     25 C          59.5055   85.7055   13.3710 C.2     1  UNL1        0.3410
     26 O          59.3083   85.9953   12.1611 O.2     1  UNL1       -0.2450
     27 O          58.7518   86.3588   14.3448 O.3     1  UNL1       -0.4770
     28 H          58.9212   86.2297   15.3344 H       1  UNL1        0.2954
     29 C          60.3388   90.1755    7.0895 C.2     1  UNL1        0.2839
     30 O          59.2763   89.7355    7.6055 O.2     1  UNL1       -0.2665
     31 N          61.5937   90.0171    7.7712 N.am    1  UNL1       -0.2766
     32 H          62.4711   90.1043    7.2098 H       1  UNL1        0.1553
     33 C          57.7296   90.9458    5.3948 C.3     1  UNL1        0.0345
     34 C          59.1655   91.1580    5.0199 C.ar    1  UNL1        0.0202
     35 C          60.3021   90.8193    5.7627 C.ar    1  UNL1        0.1946
     36 O          61.3931   91.1652    5.1025 O.2     1  UNL1       -0.4492
     37 C          61.0226   91.7102    3.9695 C.ar    1  UNL1        0.1452
     38 C          61.8438   92.2180    2.9691 C.ar    1  UNL1        0.0375
     39 C          61.2328   92.7642    1.8272 C.ar    1  UNL1        0.0031
     40 C          59.8174   92.7948    1.7024 C.ar    1  UNL1        0.0002
     41 C          59.0175   92.2666    2.7443 C.ar    1  UNL1        0.0028
     42 C          59.6578   91.7319    3.8634 C.ar    1  UNL1        0.0337
     43 C          59.1831   93.3746    0.4915 C.ar    1  UNL1        0.0000
     44 C          57.8990   92.9609    0.0884 C.ar    1  UNL1        0.0000
     45 C          57.3040   93.5086   -1.0523 C.ar    1  UNL1        0.0000
     46 C          57.9809   94.4734   -1.8014 C.ar    1  UNL1        0.0000
     47 C          59.2548   94.8925   -1.4118 C.ar    1  UNL1        0.0000
     48 C          59.8551   94.3477   -0.2724 C.ar    1  UNL1        0.0000
@<TRIPOS>BOND
     1    33    34    1
     2    34    35   ar
     3    35    29    1
     4    29    30    2
     5    29    31   am
     6    31     1    1
     7     1     2   ar
     8     2     3   ar
     9     3     4   ar
    10     4     7    1
    11     7     8    1
    12     8     9    1
    13     9    10    1
    14    10    13    1
    15    13    14    1
    16    14    15    1
    17    15    16   ar
    18    16    17   ar
    19    17    21    1
    20    21    22    2
    21    21    23    1
    22    17    18   ar
    23    18    19   ar
    24    19    20   ar
    25    20    25    1
    26    25    26    2
    27    25    27    1
    28    10    11    1
    29    11    12    1
    30     4     5   ar
    31     5     6   ar
    32    35    36   ar
    33    36    37   ar
    34    37    38   ar
    35    38    39   ar
    36    39    40   ar
    37    40    43    1
    38    43    44   ar
    39    44    45   ar
    40    45    46   ar
    41    46    47   ar
    42    47    48   ar
    43    40    41   ar
    44    41    42   ar
    45    42    34   ar
    46     6     1   ar
    47    42    37   ar
    48    12     7    1
    49    48    43   ar
    50    20    15   ar
    51    31    32    1
    52    23    24    1
    53    27    28    1
@<TRIPOS>MOLECULE
*****
 48 53 0 0 0
SMALL
GASTEIGER

@<TRIPOS>ATOM
      1 C          62.0023   87.5805   10.2891 C.ar    1  UNL1        0.0702
      2 C          62.2775   86.9825    9.0540 C.ar    1  UNL1        0.0191
      3 C          61.4843   85.9336    8.5868 C.ar    1  UNL1        0.0356
      4 C          60.4136   85.4700    9.3704 C.ar    1  UNL1        0.1318
      5 N          60.1855   86.0474   10.5836 N.ar    1  UNL1       -0.2279
      6 C          60.9425   87.0723   11.0569 C.ar    1  UNL1        0.1149
      7 N          59.5706   84.3857    8.9242 N.pl3   1  UNL1       -0.2932
      8 C          58.1108   84.4923    9.0714 C.3     1  UNL1        0.0923
      9 C          57.5017   83.1043    9.2822 C.3     1  UNL1        0.0252
     10 C          57.8214   82.1388    8.1119 C.3     1  UNL1        0.0472
     11 C          59.1175   82.5202    7.3535 C.3     1  UNL1        0.0252
     12 C          60.1499   83.2076    8.2554 C.3     1  UNL1        0.0923
     13 C          57.8831   80.6791    8.6076 C.3     1  UNL1        0.2054
     14 O          59.1071   80.4194    9.2980 O.3     1  UNL1       -0.4752
     15 C          59.3735   80.7102   10.6486 C.ar    1  UNL1        0.1449
     16 C          60.0905   81.8622   11.0325 C.ar    1  UNL1        0.0435
     17 C          60.3309   82.1451   12.3866 C.ar    1  UNL1        0.0785
     18 C          59.8449   81.2640   13.3632 C.ar    1  UNL1        0.0068
     19 C          59.1320   80.1229   12.9959 C.ar    1  UNL1        0.0097
     20 C          58.8862   79.8338   11.6438 C.ar    1  UNL1        0.1093
     21 C          61.0881   83.3566   12.7754 C.2     1  UNL1        0.3381
     22 O          62.3410   83.3979   12.6391 O.2     1  UNL1       -0.2451
     23 O          60.4232   84.4642   13.2956 O.3     1  UNL1       -0.4771
     24 H          60.9321   85.2979   13.5642 H       1  UNL1        0.2954
     25 C          58.1452   78.5997   11.2814 C.2     1  UNL1        0.3410
     26 O          58.3903   77.5171   11.8768 O.2     1  UNL1       -0.2450
     27 O          57.1674   78.6082   10.2879 O.3     1  UNL1       -0.4770
     28 H          56.9838   79.4250    9.7189 H       1  UNL1        0.2954
     29 C          62.6084   89.3679   11.9871 C.2     1  UNL1        0.2839
     30 O          61.4994   89.2725   12.5785 O.2     1  UNL1       -0.2665
     31 N          62.8426   88.6447   10.7678 N.am    1  UNL1       -0.2766
     32 H          63.6214   88.9661   10.1490 H       1  UNL1        0.1553
     33 C          64.5076   88.7999   14.5058 C.3     1  UNL1        0.0345
     34 C          64.4881   90.0116   13.6234 C.ar    1  UNL1        0.0202
     35 C          63.6564   90.2561   12.5248 C.ar    1  UNL1        0.1946
     36 O          63.9379   91.4347   11.9982 O.2     1  UNL1       -0.4492
     37 C          64.9089   91.9675   12.6989 C.ar    1  UNL1        0.1452
     38 C          65.5180   93.2007   12.4955 C.ar    1  UNL1        0.0375
     39 C          66.5502   93.5797   13.3709 C.ar    1  UNL1        0.0031
     40 C          66.9566   92.7252   14.4314 C.ar    1  UNL1        0.0002
     41 C          66.3097   91.4778   14.6040 C.ar    1  UNL1        0.0028
     42 C          65.2888   91.1339   13.7165 C.ar    1  UNL1        0.0337
     43 C          68.0485   93.1362   15.3500 C.ar    1  UNL1        0.0000
     44 C          68.4028   94.4928   15.4790 C.ar    1  UNL1        0.0000
     45 C          69.4314   94.8769   16.3447 C.ar    1  UNL1        0.0000
     46 C          70.1159   93.9149   17.0905 C.ar    1  UNL1        0.0000
     47 C          69.7737   92.5662   16.9719 C.ar    1  UNL1        0.0000
     48 C          68.7464   92.1761   16.1071 C.ar    1  UNL1        0.0000
@<TRIPOS>BOND
     1    33    34    1
     2    34    35   ar
     3    35    29    1
     4    29    30    2
     5    29    31   am
     6    31     1    1
     7     1     2   ar
     8     2     3   ar
     9     3     4   ar
    10     4     7    1
    11     7     8    1
    12     8     9    1
    13     9    10    1
    14    10    13    1
    15    13    14    1
    16    14    15    1
    17    15    16   ar
    18    16    17   ar
    19    17    21    1
    20    21    22    2
    21    21    23    1
    22    17    18   ar
    23    18    19   ar
    24    19    20   ar
    25    20    25    1
    26    25    26    2
    27    25    27    1
    28    10    11    1
    29    11    12    1
    30     4     5   ar
    31     5     6   ar
    32    35    36   ar
    33    36    37   ar
    34    37    38   ar
    35    38    39   ar
    36    39    40   ar
    37    40    43    1
    38    43    44   ar
    39    44    45   ar
    40    45    46   ar
    41    46    47   ar
    42    47    48   ar
    43    40    41   ar
    44    41    42   ar
    45    42    34   ar
    46     6     1   ar
    47    42    37   ar
    48    12     7    1
    49    48    43   ar
    50    20    15   ar
    51    31    32    1
    52    23    24    1
    53    27    28    1
@<TRIPOS>MOLECULE
*****
 48 53 0 0 0
SMALL
GASTEIGER

@<TRIPOS>ATOM
      1 C          61.5769   90.0145    9.1203 C.ar    1  UNL1        0.0702
      2 C          60.3839   89.5847    9.7127 C.ar    1  UNL1        0.0191
      3 C          60.3633   89.1940   11.0522 C.ar    1  UNL1        0.0356
      4 C          61.5517   89.2209   11.8020 C.ar    1  UNL1        0.1318
      5 N          62.7067   89.6128   11.1940 N.ar    1  UNL1       -0.2279
      6 C          62.7495   90.0010    9.8921 C.ar    1  UNL1        0.1149
      7 N          61.5733   88.8224   13.1899 N.pl3   1  UNL1       -0.2932
      8 C          62.8059   88.9908   13.9751 C.3     1  UNL1        0.0923
      9 C          62.8973   87.9035   15.0481 C.3     1  UNL1        0.0252
     10 C          61.6807   87.9228   16.0090 C.3     1  UNL1        0.0472
     11 C          60.4142   88.5403   15.3646 C.3     1  UNL1        0.0252
     12 C          60.3547   88.3197   13.8481 C.3     1  UNL1        0.0923
     13 C          61.3885   86.5081   16.5510 C.3     1  UNL1        0.2054
     14 O          62.0166   85.5072   15.7475 O.3     1  UNL1       -0.4752
     15 C          61.4795   84.9196   14.5872 C.ar    1  UNL1        0.1449
     16 C          60.1399   85.1304   14.2003 C.ar    1  UNL1        0.0435
     17 C          59.6269   84.5502   13.0292 C.ar    1  UNL1        0.0785
     18 C          60.4677   83.7532   12.2391 C.ar    1  UNL1        0.0068
     19 C          61.7951   83.5398   12.6100 C.ar    1  UNL1        0.0097
     20 C          62.3161   84.1178   13.7791 C.ar    1  UNL1        0.1093
     21 C          58.2175   84.7771   12.6366 C.2     1  UNL1        0.3381
     22 O          57.7119   84.1388   11.6739 O.2     1  UNL1       -0.2451
     23 O          57.4349   85.6987   13.3278 O.3     1  UNL1       -0.4771
     24 H          56.4696   85.8609   13.0673 H       1  UNL1        0.2954
     25 C          63.7259   83.8539   14.1615 C.2     1  UNL1        0.3410
     26 O          64.6533   84.0490   13.3318 O.2     1  UNL1       -0.2450
     27 O          64.0561   83.3934   15.4351 O.3     1  UNL1       -0.4770
     28 H          63.3516   83.1401   16.1164 H       1  UNL1        0.2954
     29 C          60.4460   90.2973    6.8650 C.2     1  UNL1        0.2839
     30 O          59.4338   89.6341    7.2177 O.2     1  UNL1       -0.2665
     31 N          61.5873   90.3919    7.7327 N.am    1  UNL1       -0.2766
     32 H          62.5018   90.6722    7.3112 H       1  UNL1        0.1553
     33 C          57.9285   91.2869    5.1456 C.3     1  UNL1        0.0345
     34 C          59.3810   91.3796    4.7866 C.ar    1  UNL1        0.0202
     35 C          60.4775   90.9454    5.5400 C.ar    1  UNL1        0.1946
     36 O          61.6005   91.2008    4.8926 O.2     1  UNL1       -0.4492
     37 C          61.2890   91.7777    3.7577 C.ar    1  UNL1        0.1452
     38 C          62.1604   92.2178    2.7677 C.ar    1  UNL1        0.0375
     39 C          61.6094   92.8161    1.6214 C.ar    1  UNL1        0.0031
     40 C          60.2029   92.9650    1.4819 C.ar    1  UNL1        0.0002
     41 C          59.3506   92.5027    2.5134 C.ar    1  UNL1        0.0028
     42 C          59.9319   91.9135    3.6373 C.ar    1  UNL1        0.0337
     43 C          59.6322   93.5988    0.2664 C.ar    1  UNL1        0.0000
     44 C          60.4655   94.2678   -0.6504 C.ar    1  UNL1        0.0000
     45 C          59.9253   94.8639   -1.7942 C.ar    1  UNL1        0.0000
     46 C          58.5516   94.7985   -2.0365 C.ar    1  UNL1        0.0000
     47 C          57.7145   94.1374   -1.1352 C.ar    1  UNL1        0.0000
     48 C          58.2489   93.5402    0.0108 C.ar    1  UNL1        0.0000
@<TRIPOS>BOND
     1    33    34    1
     2    34    35   ar
     3    35    29    1
     4    29    30    2
     5    29    31   am
     6    31     1    1
     7     1     2   ar
     8     2     3   ar
     9     3     4   ar
    10     4     7    1
    11     7     8    1
    12     8     9    1
    13     9    10    1
    14    10    13    1
    15    13    14    1
    16    14    15    1
    17    15    16   ar
    18    16    17   ar
    19    17    21    1
    20    21    22    2
    21    21    23    1
    22    17    18   ar
    23    18    19   ar
    24    19    20   ar
    25    20    25    1
    26    25    26    2
    27    25    27    1
    28    10    11    1
    29    11    12    1
    30     4     5   ar
    31     5     6   ar
    32    35    36   ar
    33    36    37   ar
    34    37    38   ar
    35    38    39   ar
    36    39    40   ar
    37    40    43    1
    38    43    44   ar
    39    44    45   ar
    40    45    46   ar
    41    46    47   ar
    42    47    48   ar
    43    40    41   ar
    44    41    42   ar
    45    42    34   ar
    46     6     1   ar
    47    42    37   ar
    48    12     7    1
    49    48    43   ar
    50    20    15   ar
    51    31    32    1
    52    23    24    1
    53    27    28    1
