@<TRIPOS>MOLECULE
*****
 49 54 0 0 0
SMALL
GASTEIGER

@<TRIPOS>ATOM
      1 C          60.0042   85.5359    9.6074 C.2     1  UNL1        0.2483
      2 O          58.9004   85.9405    9.1495 O.2     1  UNL1       -0.2701
      3 N          60.4523   84.2020    9.3158 N.am    1  UNL1       -0.2945
      4 H          61.4569   83.9696    9.4858 H       1  UNL1        0.1501
      5 C          62.4307   88.1817   11.9763 C.ar    1  UNL1        0.0501
      6 C          62.3619   86.8127   12.2750 C.ar    1  UNL1        0.0148
      7 C          61.5744   85.9593   11.4983 C.ar    1  UNL1        0.0080
      8 C          60.8370   86.4586   10.4114 C.ar    1  UNL1        0.0808
      9 C          60.9297   87.8279   10.0946 C.ar    1  UNL1        0.1457
     10 F          60.2960   88.3399    9.0093 F       1  UNL1       -0.2040
     11 C          61.7213   88.6779   10.8729 C.ar    1  UNL1        0.0443
     12 C          63.3395   90.5054   12.4203 C.3     1  UNL1        0.0925
     13 C          63.7035   91.3346   13.6666 C.3     1  UNL1        0.1105
     14 N          64.8855   90.7646   14.3250 N.pl3   1  UNL1       -0.3041
     15 C          64.9997   89.3098   14.5012 C.3     1  UNL1        0.1122
     16 C          63.7184   88.5841   14.0743 C.3     1  UNL1        0.1122
     17 N          63.2377   89.0708   12.7713 N.pl3   1  UNL1       -0.3057
     18 C          65.9454   91.6222   14.7849 C.ar    1  UNL1        0.0488
     19 C          65.7277   92.5168   15.8445 C.ar    1  UNL1        0.0154
     20 C          66.7603   93.3448   16.2924 C.ar    1  UNL1        0.0135
     21 C          68.0217   93.2891   15.6905 C.ar    1  UNL1        0.0683
     22 CL         69.2959   94.3466   16.2823 Cl      1  UNL1       -0.0814
     23 C          68.2489   92.3963   14.6299 C.ar    1  UNL1        0.0694
     24 CL         69.8203   92.2908   13.8477 Cl      1  UNL1       -0.0813
     25 C          67.2126   91.5687   14.1823 C.ar    1  UNL1        0.0268
     26 C          64.8020   92.1911   11.1531 C.3     1  UNL1        0.0018
     27 C          64.3862   90.7282   11.3045 C.3     1  UNL1        0.0215
     28 C          59.5634   83.1949    8.7237 C.3     1  UNL1        0.1535
     29 C          60.1839   81.8198    8.8042 C.2     1  UNL1        0.2443
     30 O          59.8954   80.9531    7.9339 O.2     1  UNL1       -0.2730
     31 N          61.1906   81.5498    9.7937 N.am    1  UNL1       -0.2825
     32 H          61.5834   82.3610   10.3233 H       1  UNL1        0.1549
     33 C          61.8201   80.2704    9.9694 C.ar    1  UNL1        0.0535
     34 C          61.5362   79.5148   11.1149 C.ar    1  UNL1        0.0353
     35 C          62.1309   78.2619   11.2810 C.ar    1  UNL1        0.1002
     36 N          62.9678   77.7727   10.3281 N.ar    1  UNL1       -0.2422
     37 C          63.2476   78.4745    9.1980 C.ar    1  UNL1        0.1002
     38 C          62.6750   79.7324    8.9932 C.ar    1  UNL1        0.0353
     39 C          58.1976   83.2141    9.4348 C.3     1  UNL1        0.0569
     40 C          58.3079   82.7306   10.8530 C.ar    1  UNL1       -0.0017
     41 C          58.5750   83.5093   11.9755 C.ar    1  UNL1        0.0681
     42 N          58.7234   82.7267   13.0686 N.ar    1  UNL1       -0.3523
     43 C          58.5650   81.4611   12.6436 C.ar    1  UNL1        0.0563
     44 C          58.6608   80.2963   13.4034 C.ar    1  UNL1        0.0170
     45 C          58.4904   79.0651   12.7438 C.ar    1  UNL1        0.0015
     46 C          58.2368   79.0263   11.3546 C.ar    1  UNL1        0.0001
     47 C          58.1493   80.2181   10.6123 C.ar    1  UNL1        0.0012
     48 C          58.3146   81.4229   11.2958 C.ar    1  UNL1        0.0131
     49 H          58.9419   83.0438   14.0392 H       1  UNL1        0.1660
@<TRIPOS>BOND
     1    26    27    1
     2    27    12    1
     3    12    13    1
     4    13    14    1
     5    14    18    1
     6    18    19   ar
     7    19    20   ar
     8    20    21   ar
     9    21    22    1
    10    21    23   ar
    11    23    24    1
    12    23    25   ar
    13    14    15    1
    14    15    16    1
    15    16    17    1
    16    17     5    1
    17     5     6   ar
    18     6     7   ar
    19     7     8   ar
    20     8     1    1
    21     1     2    2
    22     1     3   am
    23     3    28    1
    24    28    39    1
    25    39    40    1
    26    40    41   ar
    27    41    42   ar
    28    42    43   ar
    29    43    44   ar
    30    44    45   ar
    31    45    46   ar
    32    46    47   ar
    33    47    48   ar
    34    28    29    1
    35    29    30    2
    36    29    31   am
    37    31    33    1
    38    33    34   ar
    39    34    35   ar
    40    35    36   ar
    41    36    37   ar
    42    37    38   ar
    43     8     9   ar
    44     9    10    1
    45     9    11   ar
    46    17    12    1
    47    11     5   ar
    48    25    18   ar
    49    48    40   ar
    50    38    33   ar
    51    48    43   ar
    52     3     4    1
    53    42    49    1
    54    31    32    1
@<TRIPOS>MOLECULE
*****
 49 54 0 0 0
SMALL
GASTEIGER

@<TRIPOS>ATOM
      1 C          60.1575   85.9118    9.0990 C.2     1  UNL1        0.2483
      2 O          59.2266   86.4109    8.4089 O.2     1  UNL1       -0.2701
      3 N          60.4339   84.5042    9.0133 N.am    1  UNL1       -0.2945
      4 H          61.3450   84.1554    9.3880 H       1  UNL1        0.1501
      5 C          62.5340   88.4428   11.6378 C.ar    1  UNL1        0.0501
      6 C          62.4345   87.0663   11.8895 C.ar    1  UNL1        0.0148
      7 C          61.6636   86.2504   11.0579 C.ar    1  UNL1        0.0080
      8 C          60.9736   86.7954    9.9618 C.ar    1  UNL1        0.0808
      9 C          61.0977   88.1725    9.6928 C.ar    1  UNL1        0.1457
     10 F          60.5115   88.7284    8.6025 F       1  UNL1       -0.2040
     11 C          61.8726   88.9848   10.5261 C.ar    1  UNL1        0.0443
     12 C          63.4848   90.7305   12.1718 C.3     1  UNL1        0.0925
     13 C          63.8080   91.5264   13.4507 C.3     1  UNL1        0.1105
     14 N          64.9380   90.9103   14.1570 N.pl3   1  UNL1       -0.3041
     15 C          65.0015   89.4499   14.3108 C.3     1  UNL1        0.1122
     16 C          63.7236   88.7699   13.8056 C.3     1  UNL1        0.1122
     17 N          63.3242   89.2936   12.4896 N.pl3   1  UNL1       -0.3057
     18 C          65.9970   91.7280   14.6864 C.ar    1  UNL1        0.0488
     19 C          65.7584   92.5870   15.7706 C.ar    1  UNL1        0.0154
     20 C          66.7900   93.3761   16.2860 C.ar    1  UNL1        0.0135
     21 C          68.0711   93.3166   15.7276 C.ar    1  UNL1        0.0683
     22 CL         69.3432   94.3246   16.4039 Cl      1  UNL1       -0.0814
     23 C          68.3192   92.4592   14.6428 C.ar    1  UNL1        0.0694
     24 CL         69.9156   92.3501   13.9136 Cl      1  UNL1       -0.0813
     25 C          67.2839   91.6705   14.1276 C.ar    1  UNL1        0.0268
     26 C          65.0747   92.3901   11.0300 C.3     1  UNL1        0.0018
     27 C          64.5931   90.9422   11.1149 C.3     1  UNL1        0.0215
     28 C          59.5134   83.5695    8.3546 C.3     1  UNL1        0.1535
     29 C          59.9829   82.1441    8.5284 C.2     1  UNL1        0.2443
     30 O          59.6316   81.2652    7.6941 O.2     1  UNL1       -0.2730
     31 N          60.9248   81.8263    9.5663 N.am    1  UNL1       -0.2825
     32 H          61.3845   82.6205   10.0671 H       1  UNL1        0.1549
     33 C          61.4105   80.5003    9.8304 C.ar    1  UNL1        0.0535
     34 C          62.6104   80.0768    9.2433 C.ar    1  UNL1        0.0353
     35 C          63.0966   78.7953    9.5122 C.ar    1  UNL1        0.1002
     36 N          62.4166   77.9704   10.3518 N.ar    1  UNL1       -0.2422
     37 C          61.2600   78.3600   10.9505 C.ar    1  UNL1        0.1002
     38 C          60.7382   79.6331   10.7074 C.ar    1  UNL1        0.0353
     39 C          58.0917   83.7431    8.9205 C.3     1  UNL1        0.0569
     40 C          58.0641   83.5492   10.4101 C.ar    1  UNL1       -0.0017
     41 C          58.0849   82.3336   11.0880 C.ar    1  UNL1        0.0681
     42 N          57.9249   82.5309   12.4164 N.ar    1  UNL1       -0.3523
     43 C          57.7905   83.8584   12.5811 C.ar    1  UNL1        0.0563
     44 C          57.5698   84.5438   13.7749 C.ar    1  UNL1        0.0170
     45 C          57.4254   85.9421   13.7132 C.ar    1  UNL1        0.0015
     46 C          57.4981   86.6153   12.4733 C.ar    1  UNL1        0.0001
     47 C          57.7179   85.8971   11.2840 C.ar    1  UNL1        0.0012
     48 C          57.8652   84.5131   11.3784 C.ar    1  UNL1        0.0131
     49 H          57.8884   81.7962   13.1574 H       1  UNL1        0.1660
@<TRIPOS>BOND
     1    26    27    1
     2    27    12    1
     3    12    13    1
     4    13    14    1
     5    14    18    1
     6    18    19   ar
     7    19    20   ar
     8    20    21   ar
     9    21    22    1
    10    21    23   ar
    11    23    24    1
    12    23    25   ar
    13    14    15    1
    14    15    16    1
    15    16    17    1
    16    17     5    1
    17     5     6   ar
    18     6     7   ar
    19     7     8   ar
    20     8     1    1
    21     1     2    2
    22     1     3   am
    23     3    28    1
    24    28    39    1
    25    39    40    1
    26    40    41   ar
    27    41    42   ar
    28    42    43   ar
    29    43    44   ar
    30    44    45   ar
    31    45    46   ar
    32    46    47   ar
    33    47    48   ar
    34    28    29    1
    35    29    30    2
    36    29    31   am
    37    31    33    1
    38    33    34   ar
    39    34    35   ar
    40    35    36   ar
    41    36    37   ar
    42    37    38   ar
    43     8     9   ar
    44     9    10    1
    45     9    11   ar
    46    17    12    1
    47    11     5   ar
    48    25    18   ar
    49    48    40   ar
    50    38    33   ar
    51    48    43   ar
    52     3     4    1
    53    42    49    1
    54    31    32    1
@<TRIPOS>MOLECULE
*****
 49 54 0 0 0
SMALL
GASTEIGER

@<TRIPOS>ATOM
      1 C          59.8072   87.1295   10.2556 C.2     1  UNL1        0.2483
      2 O          58.7060   86.8740   10.8159 O.2     1  UNL1       -0.2701
      3 N          61.0092   86.4941   10.7208 N.am    1  UNL1       -0.2945
      4 H          61.8526   86.5198   10.1043 H       1  UNL1        0.1501
      5 C          59.8721   89.7877    6.8749 C.ar    1  UNL1        0.0501
      6 C          59.2641   88.5267    6.7832 C.ar    1  UNL1        0.0148
      7 C          59.2439   87.6707    7.8871 C.ar    1  UNL1        0.0080
      8 C          59.8352   88.0566    9.1019 C.ar    1  UNL1        0.0808
      9 C          60.4197   89.3343    9.2016 C.ar    1  UNL1        0.1457
     10 F          60.9348   89.7789   10.3758 F       1  UNL1       -0.2040
     11 C          60.4351   90.1888    8.0951 C.ar    1  UNL1        0.0443
     12 C          58.7450   91.5554    5.4511 C.3     1  UNL1        0.0925
     13 C          59.2008   92.7853    4.6430 C.3     1  UNL1        0.1105
     14 N          59.9772   92.3607    3.4716 N.pl3   1  UNL1       -0.3041
     15 C          60.9902   91.3038    3.6040 C.3     1  UNL1        0.1122
     16 C          61.1903   90.8895    5.0665 C.3     1  UNL1        0.1122
     17 N          59.9006   90.6773    5.7428 N.pl3   1  UNL1       -0.3057
     18 C          59.7402   92.9617    2.1859 C.ar    1  UNL1        0.0488
     19 C          60.3870   94.1552    1.8284 C.ar    1  UNL1        0.0154
     20 C          60.1589   94.7339    0.5772 C.ar    1  UNL1        0.0135
     21 C          59.2850   94.1287   -0.3321 C.ar    1  UNL1        0.0683
     22 CL         59.0240   94.8870   -1.8970 Cl      1  UNL1       -0.0814
     23 C          58.6339   92.9338    0.0169 C.ar    1  UNL1        0.0694
     24 CL         57.5311   92.1374   -1.0974 Cl      1  UNL1       -0.0813
     25 C          58.8633   92.3566    1.2713 C.ar    1  UNL1        0.0268
     26 C          56.2306   91.1900    5.0900 C.3     1  UNL1        0.0018
     27 C          57.6468   90.7861    4.6815 C.3     1  UNL1        0.0215
     28 C          61.0585   85.7569   11.9893 C.3     1  UNL1        0.1535
     29 C          60.6671   84.3122   11.7843 C.2     1  UNL1        0.2443
     30 O          61.5048   83.3990   12.0213 O.2     1  UNL1       -0.2730
     31 N          59.3100   83.9836   11.4437 N.am    1  UNL1       -0.2825
     32 H          58.5938   84.7423   11.5091 H       1  UNL1        0.1549
     33 C          58.8451   82.6461   11.2014 C.ar    1  UNL1        0.0535
     34 C          58.3676   82.3030    9.9293 C.ar    1  UNL1        0.0353
     35 C          57.9322   80.9987    9.6834 C.ar    1  UNL1        0.1002
     36 N          57.9872   80.0644   10.6692 N.ar    1  UNL1       -0.2422
     37 C          58.4626   80.3628   11.9073 C.ar    1  UNL1        0.1002
     38 C          58.9066   81.6558   12.1957 C.ar    1  UNL1        0.0353
     39 C          62.4687   85.8534   12.6006 C.3     1  UNL1        0.0569
     40 C          62.7582   87.2397   13.1021 C.ar    1  UNL1       -0.0017
     41 C          63.1476   88.3339   12.3348 C.ar    1  UNL1        0.0681
     42 N          63.4401   89.3881   13.1300 N.ar    1  UNL1       -0.3523
     43 C          63.2510   88.9650   14.3921 C.ar    1  UNL1        0.0563
     44 C          63.4568   89.6888   15.5657 C.ar    1  UNL1        0.0170
     45 C          63.2267   89.0349   16.7902 C.ar    1  UNL1        0.0015
     46 C          62.8067   87.6863   16.8138 C.ar    1  UNL1        0.0001
     47 C          62.6109   86.9795   15.6134 C.ar    1  UNL1        0.0012
     48 C          62.8392   87.6572   14.4157 C.ar    1  UNL1        0.0131
     49 H          63.7699   90.3300   12.8229 H       1  UNL1        0.1660
@<TRIPOS>BOND
     1    26    27    1
     2    27    12    1
     3    12    13    1
     4    13    14    1
     5    14    18    1
     6    18    19   ar
     7    19    20   ar
     8    20    21   ar
     9    21    22    1
    10    21    23   ar
    11    23    24    1
    12    23    25   ar
    13    14    15    1
    14    15    16    1
    15    16    17    1
    16    17     5    1
    17     5     6   ar
    18     6     7   ar
    19     7     8   ar
    20     8     1    1
    21     1     2    2
    22     1     3   am
    23     3    28    1
    24    28    39    1
    25    39    40    1
    26    40    41   ar
    27    41    42   ar
    28    42    43   ar
    29    43    44   ar
    30    44    45   ar
    31    45    46   ar
    32    46    47   ar
    33    47    48   ar
    34    28    29    1
    35    29    30    2
    36    29    31   am
    37    31    33    1
    38    33    34   ar
    39    34    35   ar
    40    35    36   ar
    41    36    37   ar
    42    37    38   ar
    43     8     9   ar
    44     9    10    1
    45     9    11   ar
    46    17    12    1
    47    11     5   ar
    48    25    18   ar
    49    48    40   ar
    50    38    33   ar
    51    48    43   ar
    52     3     4    1
    53    42    49    1
    54    31    32    1
@<TRIPOS>MOLECULE
*****
 49 54 0 0 0
SMALL
GASTEIGER

@<TRIPOS>ATOM
      1 C          58.7588   83.5702   12.8919 C.2     1  UNL1        0.2483
      2 O          57.5029   83.6856   12.9259 O.2     1  UNL1       -0.2701
      3 N          59.3508   82.3369   12.4516 N.am    1  UNL1       -0.2945
      4 H          60.3637   82.3386   12.1947 H       1  UNL1        0.1501
      5 C          61.2502   86.8939   14.0077 C.ar    1  UNL1        0.0501
      6 C          61.8151   85.6484   13.6949 C.ar    1  UNL1        0.0148
      7 C          60.9991   84.5749   13.3296 C.ar    1  UNL1        0.0080
      8 C          59.6030   84.7242   13.2749 C.ar    1  UNL1        0.0808
      9 C          59.0391   85.9829   13.5608 C.ar    1  UNL1        0.1457
     10 F          57.7033   86.1937   13.4469 F       1  UNL1       -0.2040
     11 C          59.8596   87.0553   13.9231 C.ar    1  UNL1        0.0443
     12 C          62.2543   89.1587   13.4736 C.3     1  UNL1        0.0925
     13 C          62.6322   90.4206   14.2724 C.3     1  UNL1        0.1105
     14 N          63.7750   90.1396   15.1500 N.pl3   1  UNL1       -0.3041
     15 C          63.8204   88.8890   15.9211 C.3     1  UNL1        0.1122
     16 C          62.5159   88.0941   15.7907 C.3     1  UNL1        0.1122
     17 N          62.0815   88.0068   14.3874 N.pl3   1  UNL1       -0.3057
     18 C          64.8638   91.0752   15.2475 C.ar    1  UNL1        0.0488
     19 C          64.8840   92.0397   16.2672 C.ar    1  UNL1        0.0154
     20 C          65.9451   92.9437   16.3626 C.ar    1  UNL1        0.0135
     21 C          66.9987   92.8955   15.4437 C.ar    1  UNL1        0.0683
     22 CL         68.3164   94.0497   15.5966 Cl      1  UNL1       -0.0814
     23 C          66.9873   91.9332   14.4203 C.ar    1  UNL1        0.0694
     24 CL         68.2933   91.8345   13.2470 Cl      1  UNL1       -0.0813
     25 C          65.9226   91.0293   14.3263 C.ar    1  UNL1        0.0268
     26 C          62.8405   89.0945   10.9760 C.3     1  UNL1        0.0018
     27 C          63.3302   88.8595   12.4046 C.3     1  UNL1        0.0215
     28 C          58.5609   81.1108   12.2856 C.3     1  UNL1        0.1535
     29 C          58.2632   80.8594   10.8259 C.2     1  UNL1        0.2443
     30 O          57.4009   79.9963   10.5044 O.2     1  UNL1       -0.2730
     31 N          58.8698   81.6903    9.8223 N.am    1  UNL1       -0.2825
     32 H          59.3714   82.5507   10.1399 H       1  UNL1        0.1549
     33 C          58.6730   81.5156    8.4099 C.ar    1  UNL1        0.0535
     34 C          59.6192   80.7971    7.6666 C.ar    1  UNL1        0.0353
     35 C          59.4226   80.6082    6.2967 C.ar    1  UNL1        0.1002
     36 N          58.3112   81.1054    5.6924 N.ar    1  UNL1       -0.2422
     37 C          57.3672   81.7903    6.3907 C.ar    1  UNL1        0.1002
     38 C          57.5256   82.0030    7.7625 C.ar    1  UNL1        0.0353
     39 C          59.3112   79.9135   12.8982 C.3     1  UNL1        0.0569
     40 C          60.7050   80.2905   13.3132 C.ar    1  UNL1       -0.0017
     41 C          61.1776   80.4098   14.6171 C.ar    1  UNL1        0.0681
     42 N          62.4442   80.8841   14.6187 N.ar    1  UNL1       -0.3523
     43 C          62.7702   81.0770   13.3287 C.ar    1  UNL1        0.0563
     44 C          63.9666   81.5868   12.8265 C.ar    1  UNL1        0.0170
     45 C          64.0835   81.7371   11.4324 C.ar    1  UNL1        0.0015
     46 C          63.0122   81.3839   10.5819 C.ar    1  UNL1        0.0001
     47 C          61.8148   80.8754   11.1173 C.ar    1  UNL1        0.0012
     48 C          61.7321   80.7305   12.5022 C.ar    1  UNL1        0.0131
     49 H          63.0362   81.0826   15.4556 H       1  UNL1        0.1660
@<TRIPOS>BOND
     1    26    27    1
     2    27    12    1
     3    12    13    1
     4    13    14    1
     5    14    18    1
     6    18    19   ar
     7    19    20   ar
     8    20    21   ar
     9    21    22    1
    10    21    23   ar
    11    23    24    1
    12    23    25   ar
    13    14    15    1
    14    15    16    1
    15    16    17    1
    16    17     5    1
    17     5     6   ar
    18     6     7   ar
    19     7     8   ar
    20     8     1    1
    21     1     2    2
    22     1     3   am
    23     3    28    1
    24    28    39    1
    25    39    40    1
    26    40    41   ar
    27    41    42   ar
    28    42    43   ar
    29    43    44   ar
    30    44    45   ar
    31    45    46   ar
    32    46    47   ar
    33    47    48   ar
    34    28    29    1
    35    29    30    2
    36    29    31   am
    37    31    33    1
    38    33    34   ar
    39    34    35   ar
    40    35    36   ar
    41    36    37   ar
    42    37    38   ar
    43     8     9   ar
    44     9    10    1
    45     9    11   ar
    46    17    12    1
    47    11     5   ar
    48    25    18   ar
    49    48    40   ar
    50    38    33   ar
    51    48    43   ar
    52     3     4    1
    53    42    49    1
    54    31    32    1
@<TRIPOS>MOLECULE
*****
 49 54 0 0 0
SMALL
GASTEIGER

@<TRIPOS>ATOM
      1 C          59.3922   86.9755   10.2135 C.2     1  UNL1        0.2483
      2 O          59.0350   85.7801   10.0258 O.2     1  UNL1       -0.2701
      3 N          59.7166   87.4238   11.5397 N.am    1  UNL1       -0.2945
      4 H          60.2395   88.3226   11.6438 H       1  UNL1        0.1501
      5 C          59.7323   89.6645    6.8739 C.ar    1  UNL1        0.0501
      6 C          60.2196   90.0274    8.1384 C.ar    1  UNL1        0.0148
      7 C          60.1087   89.1467    9.2171 C.ar    1  UNL1        0.0080
      8 C          59.5044   87.8887    9.0539 C.ar    1  UNL1        0.0808
      9 C          59.0418   87.5138    7.7773 C.ar    1  UNL1        0.1457
     10 F          58.5206   86.2804    7.5559 F       1  UNL1       -0.2040
     11 C          59.1574   88.3972    6.6999 C.ar    1  UNL1        0.0443
     12 C          58.7344   91.4970    5.4355 C.3     1  UNL1        0.0925
     13 C          59.2718   92.7149    4.6601 C.3     1  UNL1        0.1105
     14 N          60.0697   92.2702    3.5108 N.pl3   1  UNL1       -0.3041
     15 C          61.0301   91.1681    3.6642 C.3     1  UNL1        0.1122
     16 C          61.1602   90.7281    5.1271 C.3     1  UNL1        0.1122
     17 N          59.8395   90.5653    5.7554 N.pl3   1  UNL1       -0.3057
     18 C          59.9046   92.8962    2.2257 C.ar    1  UNL1        0.0488
     19 C          60.7879   93.9034    1.8063 C.ar    1  UNL1        0.0154
     20 C          60.6283   94.5059    0.5557 C.ar    1  UNL1        0.0135
     21 C          59.5878   94.1103   -0.2913 C.ar    1  UNL1        0.0683
     22 CL         59.4197   94.8918   -1.8574 Cl      1  UNL1       -0.0814
     23 C          58.6995   93.1026    0.1199 C.ar    1  UNL1        0.0694
     24 CL         57.3806   92.5718   -0.9149 Cl      1  UNL1       -0.0813
     25 C          58.8608   92.5012    1.3736 C.ar    1  UNL1        0.0268
     26 C          56.2190   91.1141    5.1010 C.3     1  UNL1        0.0018
     27 C          57.6314   90.7861    4.6181 C.3     1  UNL1        0.0215
     28 C          59.4012   86.6244   12.7298 C.3     1  UNL1        0.1535
     29 C          60.5377   85.6855   13.0606 C.2     1  UNL1        0.2443
     30 O          60.3511   84.7441   13.8796 O.2     1  UNL1       -0.2730
     31 N          61.7810   85.7938   12.3479 N.am    1  UNL1       -0.2825
     32 H          61.8077   86.4128   11.5058 H       1  UNL1        0.1549
     33 C          62.9283   84.9688   12.6063 C.ar    1  UNL1        0.0535
     34 C          63.5873   85.0722   13.8388 C.ar    1  UNL1        0.0353
     35 C          64.6917   84.2586   14.1021 C.ar    1  UNL1        0.1002
     36 N          65.1138   83.3605   13.1732 N.ar    1  UNL1       -0.2422
     37 C          64.4836   83.2245   11.9764 C.ar    1  UNL1        0.1002
     38 C          63.3759   84.0199   11.6722 C.ar    1  UNL1        0.0353
     39 C          59.1010   87.5510   13.9227 C.3     1  UNL1        0.0569
     40 C          60.3553   88.1762   14.4642 C.ar    1  UNL1       -0.0017
     41 C          61.0442   89.2564   13.9200 C.ar    1  UNL1        0.0681
     42 N          62.1944   89.4728   14.5980 N.ar    1  UNL1       -0.3523
     43 C          62.2433   88.5313   15.5564 C.ar    1  UNL1        0.0563
     44 C          63.2586   88.3275   16.4898 C.ar    1  UNL1        0.0170
     45 C          63.1200   87.2534   17.3881 C.ar    1  UNL1        0.0015
     46 C          61.9856   86.4134   17.3300 C.ar    1  UNL1        0.0001
     47 C          60.9784   86.6407   16.3746 C.ar    1  UNL1        0.0012
     48 C          61.1404   87.7180   15.5033 C.ar    1  UNL1        0.0131
     49 H          62.9088   90.2076   14.3981 H       1  UNL1        0.1660
@<TRIPOS>BOND
     1    26    27    1
     2    27    12    1
     3    12    13    1
     4    13    14    1
     5    14    18    1
     6    18    19   ar
     7    19    20   ar
     8    20    21   ar
     9    21    22    1
    10    21    23   ar
    11    23    24    1
    12    23    25   ar
    13    14    15    1
    14    15    16    1
    15    16    17    1
    16    17     5    1
    17     5     6   ar
    18     6     7   ar
    19     7     8   ar
    20     8     1    1
    21     1     2    2
    22     1     3   am
    23     3    28    1
    24    28    39    1
    25    39    40    1
    26    40    41   ar
    27    41    42   ar
    28    42    43   ar
    29    43    44   ar
    30    44    45   ar
    31    45    46   ar
    32    46    47   ar
    33    47    48   ar
    34    28    29    1
    35    29    30    2
    36    29    31   am
    37    31    33    1
    38    33    34   ar
    39    34    35   ar
    40    35    36   ar
    41    36    37   ar
    42    37    38   ar
    43     8     9   ar
    44     9    10    1
    45     9    11   ar
    46    17    12    1
    47    11     5   ar
    48    25    18   ar
    49    48    40   ar
    50    38    33   ar
    51    48    43   ar
    52     3     4    1
    53    42    49    1
    54    31    32    1
@<TRIPOS>MOLECULE
*****
 49 54 0 0 0
SMALL
GASTEIGER

@<TRIPOS>ATOM
      1 C          59.6493   86.9819   10.2413 C.2     1  UNL1        0.2483
      2 O          60.3121   85.9085   10.2201 O.2     1  UNL1       -0.2701
      3 N          58.8300   87.2927   11.3802 N.am    1  UNL1       -0.2945
      4 H          58.4924   88.2752   11.4932 H       1  UNL1        0.1501
      5 C          59.9423   89.6775    6.9026 C.ar    1  UNL1        0.0501
      6 C          59.3018   88.4367    6.7675 C.ar    1  UNL1        0.0148
      7 C          59.2075   87.5685    7.8578 C.ar    1  UNL1        0.0080
      8 C          59.7557   87.9216    9.1025 C.ar    1  UNL1        0.0808
      9 C          60.3728   89.1798    9.2448 C.ar    1  UNL1        0.1457
     10 F          60.8485   89.5944   10.4462 F       1  UNL1       -0.2040
     11 C          60.4625   90.0468    8.1516 C.ar    1  UNL1        0.0443
     12 C          58.9273   91.4871    5.4473 C.3     1  UNL1        0.0925
     13 C          59.4502   92.7157    4.6788 C.3     1  UNL1        0.1105
     14 N          60.2746   92.2873    3.5421 N.pl3   1  UNL1       -0.3041
     15 C          61.2559   91.2061    3.7112 C.3     1  UNL1        0.1122
     16 C          61.3734   90.7701    5.1763 C.3     1  UNL1        0.1122
     17 N          60.0471   90.5795    5.7849 N.pl3   1  UNL1       -0.3057
     18 C          60.1156   92.9086    2.2541 C.ar    1  UNL1        0.0488
     19 C          58.8645   92.9165    1.6175 C.ar    1  UNL1        0.0154
     20 C          58.7119   93.5251    0.3691 C.ar    1  UNL1        0.0135
     21 C          59.8039   94.1341   -0.2580 C.ar    1  UNL1        0.0683
     22 CL         59.5722   94.8899   -1.8287 Cl      1  UNL1       -0.0814
     23 C          61.0595   94.1317    0.3719 C.ar    1  UNL1        0.0694
     24 CL         62.4576   94.8894   -0.3787 Cl      1  UNL1       -0.0813
     25 C          61.2101   93.5204    1.6221 C.ar    1  UNL1        0.0268
     26 C          56.4245   91.0904    5.0420 C.3     1  UNL1        0.0018
     27 C          57.8522   90.7522    4.6143 C.3     1  UNL1        0.0215
     28 C          58.5223   86.2952   12.4124 C.3     1  UNL1        0.1535
     29 C          57.9819   85.0294   11.7895 C.2     1  UNL1        0.2443
     30 O          56.7605   84.9575   11.4816 O.2     1  UNL1       -0.2730
     31 N          58.8844   83.9678   11.4373 N.am    1  UNL1       -0.2825
     32 H          59.9098   84.1685   11.4712 H       1  UNL1        0.1549
     33 C          58.4678   82.7167   10.8670 C.ar    1  UNL1        0.0535
     34 C          58.2389   82.6313    9.4871 C.ar    1  UNL1        0.0353
     35 C          57.8522   81.4124    8.9252 C.ar    1  UNL1        0.1002
     36 N          57.7147   80.3122    9.7115 N.ar    1  UNL1       -0.2422
     37 C          57.9478   80.3600   11.0499 C.ar    1  UNL1        0.1002
     38 C          58.3348   81.5597   11.6524 C.ar    1  UNL1        0.0353
     39 C          59.7820   85.9928   13.2452 C.3     1  UNL1        0.0569
     40 C          60.3550   87.2424   13.8513 C.ar    1  UNL1       -0.0017
     41 C          59.7505   88.0509   14.8097 C.ar    1  UNL1        0.0681
     42 N          60.4975   89.1558   15.0345 N.ar    1  UNL1       -0.3523
     43 C          61.5608   89.0577   14.2177 C.ar    1  UNL1        0.0563
     44 C          62.5980   89.9768   14.0668 C.ar    1  UNL1        0.0170
     45 C          63.6009   89.6874   13.1232 C.ar    1  UNL1        0.0015
     46 C          63.5420   88.5022   12.3565 C.ar    1  UNL1        0.0001
     47 C          62.4809   87.5946   12.5275 C.ar    1  UNL1        0.0012
     48 C          61.5065   87.9054   13.4761 C.ar    1  UNL1        0.0131
     49 H          60.2765   89.9364   15.6918 H       1  UNL1        0.1660
@<TRIPOS>BOND
     1    26    27    1
     2    27    12    1
     3    12    13    1
     4    13    14    1
     5    14    18    1
     6    18    19   ar
     7    19    20   ar
     8    20    21   ar
     9    21    22    1
    10    21    23   ar
    11    23    24    1
    12    23    25   ar
    13    14    15    1
    14    15    16    1
    15    16    17    1
    16    17     5    1
    17     5     6   ar
    18     6     7   ar
    19     7     8   ar
    20     8     1    1
    21     1     2    2
    22     1     3   am
    23     3    28    1
    24    28    39    1
    25    39    40    1
    26    40    41   ar
    27    41    42   ar
    28    42    43   ar
    29    43    44   ar
    30    44    45   ar
    31    45    46   ar
    32    46    47   ar
    33    47    48   ar
    34    28    29    1
    35    29    30    2
    36    29    31   am
    37    31    33    1
    38    33    34   ar
    39    34    35   ar
    40    35    36   ar
    41    36    37   ar
    42    37    38   ar
    43     8     9   ar
    44     9    10    1
    45     9    11   ar
    46    17    12    1
    47    11     5   ar
    48    25    18   ar
    49    48    40   ar
    50    38    33   ar
    51    48    43   ar
    52     3     4    1
    53    42    49    1
    54    31    32    1
@<TRIPOS>MOLECULE
*****
 49 54 0 0 0
SMALL
GASTEIGER

@<TRIPOS>ATOM
      1 C          59.3664   87.2574   10.1641 C.2     1  UNL1        0.2483
      2 O          58.7539   86.1615   10.0384 O.2     1  UNL1       -0.2701
      3 N          59.9332   87.6168   11.4348 N.am    1  UNL1       -0.2945
      4 H          60.6363   88.3894   11.4619 H       1  UNL1        0.1501
      5 C          59.8304   89.8588    6.7705 C.ar    1  UNL1        0.0501
      6 C          60.3631   90.2094    8.0201 C.ar    1  UNL1        0.0148
      7 C          60.2113   89.3571    9.1165 C.ar    1  UNL1        0.0080
      8 C          59.5202   88.1406    8.9862 C.ar    1  UNL1        0.0808
      9 C          59.0111   87.7761    7.7245 C.ar    1  UNL1        0.1457
     10 F          58.4036   86.5776    7.5342 F       1  UNL1       -0.2040
     11 C          59.1677   88.6309    6.6292 C.ar    1  UNL1        0.0443
     12 C          58.9027   91.6806    5.2728 C.3     1  UNL1        0.0925
     13 C          59.4830   92.8672    4.4800 C.3     1  UNL1        0.1105
     14 N          60.2902   92.3773    3.3559 N.pl3   1  UNL1       -0.3041
     15 C          61.2209   91.2566    3.5518 C.3     1  UNL1        0.1122
     16 C          61.3144   90.8476    5.0265 C.3     1  UNL1        0.1122
     17 N          59.9791   90.7306    5.6340 N.pl3   1  UNL1       -0.3057
     18 C          60.1632   92.9772    2.0542 C.ar    1  UNL1        0.0488
     19 C          58.9250   92.9865    1.3929 C.ar    1  UNL1        0.0154
     20 C          58.8034   93.5743    0.1311 C.ar    1  UNL1        0.0135
     21 C          59.9139   94.1607   -0.4849 C.ar    1  UNL1        0.0683
     22 CL         59.7212   94.8907   -2.0729 Cl      1  UNL1       -0.0814
     23 C          61.1569   94.1566    0.1698 C.ar    1  UNL1        0.0694
     24 CL         62.5774   94.8863   -0.5662 Cl      1  UNL1       -0.0813
     25 C          61.2764   93.5663    1.4334 C.ar    1  UNL1        0.0268
     26 C          56.4467   90.9442    5.1656 C.3     1  UNL1        0.0018
     27 C          57.7976   90.9773    4.4518 C.3     1  UNL1        0.0215
     28 C          59.6087   86.8860   12.6659 C.3     1  UNL1        0.1535
     29 C          60.6573   85.8386   12.9588 C.2     1  UNL1        0.2443
     30 O          60.4791   85.0250   13.9065 O.2     1  UNL1       -0.2730
     31 N          61.7861   85.6962   12.0807 N.am    1  UNL1       -0.2825
     32 H          61.7645   86.2121   11.1717 H       1  UNL1        0.1549
     33 C          62.8488   84.7517   12.2868 C.ar    1  UNL1        0.0535
     34 C          63.3183   83.9963   11.2039 C.ar    1  UNL1        0.0353
     35 C          64.3642   83.0905   11.3952 C.ar    1  UNL1        0.1002
     36 N          64.9332   82.9554   12.6223 N.ar    1  UNL1       -0.2422
     37 C          64.5117   83.6878   13.6871 C.ar    1  UNL1        0.1002
     38 C          63.4672   84.6040   13.5394 C.ar    1  UNL1        0.0353
     39 C          59.4825   87.8690   13.8446 C.3     1  UNL1        0.0569
     40 C          60.8191   88.1575   14.4670 C.ar    1  UNL1       -0.0017
     41 C          61.2281   87.8079   15.7509 C.ar    1  UNL1        0.0681
     42 N          62.4453   88.3336   16.0182 N.ar    1  UNL1       -0.3523
     43 C          62.8019   89.0219   14.9198 C.ar    1  UNL1        0.0563
     44 C          63.9655   89.7658   14.7295 C.ar    1  UNL1        0.0170
     45 C          64.1221   90.4395   13.5041 C.ar    1  UNL1        0.0015
     46 C          63.1211   90.3600   12.5104 C.ar    1  UNL1        0.0001
     47 C          61.9551   89.6048   12.7319 C.ar    1  UNL1        0.0012
     48 C          61.8325   88.9418   13.9531 C.ar    1  UNL1        0.0131
     49 H          62.9838   88.2419   16.9081 H       1  UNL1        0.1660
@<TRIPOS>BOND
     1    26    27    1
     2    27    12    1
     3    12    13    1
     4    13    14    1
     5    14    18    1
     6    18    19   ar
     7    19    20   ar
     8    20    21   ar
     9    21    22    1
    10    21    23   ar
    11    23    24    1
    12    23    25   ar
    13    14    15    1
    14    15    16    1
    15    16    17    1
    16    17     5    1
    17     5     6   ar
    18     6     7   ar
    19     7     8   ar
    20     8     1    1
    21     1     2    2
    22     1     3   am
    23     3    28    1
    24    28    39    1
    25    39    40    1
    26    40    41   ar
    27    41    42   ar
    28    42    43   ar
    29    43    44   ar
    30    44    45   ar
    31    45    46   ar
    32    46    47   ar
    33    47    48   ar
    34    28    29    1
    35    29    30    2
    36    29    31   am
    37    31    33    1
    38    33    34   ar
    39    34    35   ar
    40    35    36   ar
    41    36    37   ar
    42    37    38   ar
    43     8     9   ar
    44     9    10    1
    45     9    11   ar
    46    17    12    1
    47    11     5   ar
    48    25    18   ar
    49    48    40   ar
    50    38    33   ar
    51    48    43   ar
    52     3     4    1
    53    42    49    1
    54    31    32    1
