@<TRIPOS>MOLECULE
*****
 47 52 0 0 0
SMALL
GASTEIGER

@<TRIPOS>ATOM
      1 C         -64.5351  -52.2848  -24.6454 C.ar    1  UNL1        0.0702
      2 C         -63.8263  -52.6616  -23.4995 C.ar    1  UNL1        0.0191
      3 C         -64.3223  -53.6603  -22.6601 C.ar    1  UNL1        0.0356
      4 C         -65.5506  -54.2774  -22.9609 C.ar    1  UNL1        0.1318
      5 N         -66.2328  -53.8720  -24.0692 N.ar    1  UNL1       -0.2279
      6 C         -65.7674  -52.9047  -24.9026 C.ar    1  UNL1        0.1149
      7 N         -66.0959  -55.3237  -22.1220 N.pl3   1  UNL1       -0.2932
      8 C         -65.7937  -55.3640  -20.6819 C.3     1  UNL1        0.0923
      9 C         -67.0843  -55.4248  -19.8465 C.3     1  UNL1        0.0252
     10 C         -68.2256  -56.2194  -20.5337 C.3     1  UNL1        0.0472
     11 C         -67.6840  -57.1781  -21.6104 C.3     1  UNL1        0.0252
     12 C         -66.9461  -56.3821  -22.6972 C.3     1  UNL1        0.0923
     13 C         -69.1311  -56.9561  -19.5267 C.3     1  UNL1        0.2054
     14 O         -69.5645  -56.0917  -18.4716 O.3     1  UNL1       -0.4755
     15 C         -69.1456  -56.1137  -17.1299 C.ar    1  UNL1        0.1388
     16 C         -69.9633  -56.5505  -16.0693 C.ar    1  UNL1        0.0369
     17 C         -69.4756  -56.5506  -14.7612 C.ar    1  UNL1        0.0033
     18 C         -68.1757  -56.1186  -14.4918 C.ar    1  UNL1        0.0066
     19 C         -67.3444  -55.6752  -15.5345 C.ar    1  UNL1        0.0785
     20 C         -67.8399  -55.6896  -16.8512 C.ar    1  UNL1        0.0433
     21 C         -65.9580  -55.2186  -15.2694 C.2     1  UNL1        0.3381
     22 O         -65.7628  -54.1171  -14.6898 O.2     1  UNL1       -0.2451
     23 O         -64.8502  -55.9843  -15.6313 O.3     1  UNL1       -0.4771
     24 H         -64.9327  -56.9208  -16.0048 H       1  UNL1        0.2954
     25 C         -64.1595  -49.8368  -25.2036 C.2     1  UNL1        0.2839
     26 O         -64.9659  -49.4449  -24.3176 O.2     1  UNL1       -0.2665
     27 N         -64.0222  -51.2384  -25.4881 N.am    1  UNL1       -0.2766
     28 H         -63.5988  -51.5137  -26.4032 H       1  UNL1        0.1553
     29 C         -64.1394  -49.4813  -28.3890 C.3     1  UNL1        0.0345
     30 C         -63.3718  -48.6930  -27.3708 C.ar    1  UNL1        0.0202
     31 C         -63.3829  -48.8520  -25.9805 C.ar    1  UNL1        0.1946
     32 O         -62.5771  -47.9687  -25.4181 O.2     1  UNL1       -0.4492
     33 C         -62.0435  -47.2455  -26.3720 C.ar    1  UNL1        0.1452
     34 C         -61.1382  -46.1996  -26.2319 C.ar    1  UNL1        0.0375
     35 C         -60.6914  -45.5528  -27.3972 C.ar    1  UNL1        0.0031
     36 C         -61.1531  -45.9586  -28.6783 C.ar    1  UNL1        0.0002
     37 C         -62.0748  -47.0286  -28.7769 C.ar    1  UNL1        0.0028
     38 C         -62.4969  -47.6482  -27.5995 C.ar    1  UNL1        0.0337
     39 C         -60.6740  -45.2673  -29.9021 C.ar    1  UNL1       -0.0000
     40 C         -61.5406  -44.4442  -30.6437 C.ar    1  UNL1       -0.0002
     41 C         -61.0896  -43.7949  -31.7965 C.ar    1  UNL1       -0.0019
     42 C         -59.7617  -43.9459  -32.2215 C.ar    1  UNL1        0.0070
     43 C         -58.8981  -44.7784  -31.4948 C.ar    1  UNL1       -0.0019
     44 C         -59.3479  -45.4291  -30.3425 C.ar    1  UNL1       -0.0002
     45 C         -59.2886  -43.2776  -33.4798 C.3     1  UNL1        0.1636
     46 O         -60.0546  -43.7302  -34.5603 O.3     1  UNL1       -0.3772
     47 H         -59.7040  -43.2613  -35.3617 H       1  UNL1        0.2109
@<TRIPOS>BOND
     1    29    30    1
     2    30    31   ar
     3    31    25    1
     4    25    26    2
     5    25    27   am
     6    27     1    1
     7     1     2   ar
     8     2     3   ar
     9     3     4   ar
    10     4     7    1
    11     7     8    1
    12     8     9    1
    13     9    10    1
    14    10    13    1
    15    13    14    1
    16    14    15    1
    17    15    16   ar
    18    16    17   ar
    19    17    18   ar
    20    18    19   ar
    21    19    21    1
    22    21    22    2
    23    21    23    1
    24    19    20   ar
    25    10    11    1
    26    11    12    1
    27     4     5   ar
    28     5     6   ar
    29    31    32   ar
    30    32    33   ar
    31    33    34   ar
    32    34    35   ar
    33    35    36   ar
    34    36    39    1
    35    39    40   ar
    36    40    41   ar
    37    41    42   ar
    38    42    45    1
    39    45    46    1
    40    42    43   ar
    41    43    44   ar
    42    36    37   ar
    43    37    38   ar
    44    38    30   ar
    45     6     1   ar
    46    38    33   ar
    47    12     7    1
    48    44    39   ar
    49    20    15   ar
    50    27    28    1
    51    23    24    1
    52    46    47    1
@<TRIPOS>MOLECULE
*****
 47 52 0 0 0
SMALL
GASTEIGER

@<TRIPOS>ATOM
      1 C         -64.4609  -52.2497  -24.6934 C.ar    1  UNL1        0.0702
      2 C         -63.8212  -52.5300  -23.4812 C.ar    1  UNL1        0.0191
      3 C         -64.3137  -53.5272  -22.6380 C.ar    1  UNL1        0.0356
      4 C         -65.4702  -54.2408  -23.0035 C.ar    1  UNL1        0.1318
      5 N         -66.0883  -53.9286  -24.1775 N.ar    1  UNL1       -0.2279
      6 C         -65.6246  -52.9646  -25.0157 C.ar    1  UNL1        0.1149
      7 N         -66.0085  -55.2890  -22.1624 N.pl3   1  UNL1       -0.2932
      8 C         -65.8263  -55.2466  -20.7023 C.3     1  UNL1        0.0923
      9 C         -67.1749  -55.3686  -19.9719 C.3     1  UNL1        0.0252
     10 C         -68.1953  -56.2740  -20.7104 C.3     1  UNL1        0.0472
     11 C         -67.4986  -57.2337  -21.6929 C.3     1  UNL1        0.0252
     12 C         -66.7302  -56.4309  -22.7533 C.3     1  UNL1        0.0923
     13 C         -69.1277  -57.0336  -19.7458 C.3     1  UNL1        0.2054
     14 O         -69.0375  -56.5260  -18.4107 O.3     1  UNL1       -0.4755
     15 C         -70.0244  -55.8179  -17.7031 C.ar    1  UNL1        0.1388
     16 C         -70.2075  -55.9253  -16.3106 C.ar    1  UNL1        0.0369
     17 C         -71.2057  -55.1847  -15.6748 C.ar    1  UNL1        0.0033
     18 C         -72.0305  -54.3324  -16.4111 C.ar    1  UNL1        0.0066
     19 C         -71.8676  -54.2132  -17.8018 C.ar    1  UNL1        0.0785
     20 C         -70.8515  -54.9542  -18.4327 C.ar    1  UNL1        0.0433
     21 C         -72.7296  -53.3081  -18.6009 C.2     1  UNL1        0.3381
     22 O         -73.8837  -53.6825  -18.9403 O.2     1  UNL1       -0.2451
     23 O         -72.3057  -52.0350  -18.9806 O.3     1  UNL1       -0.4771
     24 H         -71.4367  -51.6303  -18.6577 H       1  UNL1        0.2954
     25 C         -64.0815  -49.8022  -25.2515 C.2     1  UNL1        0.2839
     26 O         -64.8741  -49.4086  -24.3540 O.2     1  UNL1       -0.2665
     27 N         -63.9545  -51.2038  -25.5408 N.am    1  UNL1       -0.2766
     28 H         -63.5447  -51.4791  -26.4620 H       1  UNL1        0.1553
     29 C         -64.1428  -49.4045  -28.4314 C.3     1  UNL1        0.0345
     30 C         -63.3352  -48.6419  -27.4246 C.ar    1  UNL1        0.0202
     31 C         -63.3108  -48.8194  -26.0367 C.ar    1  UNL1        0.1946
     32 O         -62.4759  -47.9563  -25.4853 O.2     1  UNL1       -0.4492
     33 C         -61.9571  -47.2288  -26.4441 C.ar    1  UNL1        0.1452
     34 C         -61.0318  -46.1991  -26.3155 C.ar    1  UNL1        0.0375
     35 C         -60.6067  -45.5438  -27.4841 C.ar    1  UNL1        0.0031
     36 C         -61.1097  -45.9252  -28.7572 C.ar    1  UNL1        0.0002
     37 C         -62.0507  -46.9793  -28.8442 C.ar    1  UNL1        0.0028
     38 C         -62.4502  -47.6080  -27.6638 C.ar    1  UNL1        0.0337
     39 C         -60.6532  -45.2252  -29.9847 C.ar    1  UNL1       -0.0000
     40 C         -61.5397  -44.4148  -30.7168 C.ar    1  UNL1       -0.0002
     41 C         -61.1100  -43.7573  -31.8730 C.ar    1  UNL1       -0.0019
     42 C         -59.7841  -43.8871  -32.3111 C.ar    1  UNL1        0.0070
     43 C         -58.9006  -44.7069  -31.5939 C.ar    1  UNL1       -0.0019
     44 C         -59.3292  -45.3659  -30.4380 C.ar    1  UNL1       -0.0002
     45 C         -59.3337  -43.2101  -33.5731 C.3     1  UNL1        0.1636
     46 O         -60.0466  -43.7325  -34.6583 O.3     1  UNL1       -0.3772
     47 H         -59.7135  -43.2549  -35.4620 H       1  UNL1        0.2109
@<TRIPOS>BOND
     1    29    30    1
     2    30    31   ar
     3    31    25    1
     4    25    26    2
     5    25    27   am
     6    27     1    1
     7     1     2   ar
     8     2     3   ar
     9     3     4   ar
    10     4     7    1
    11     7     8    1
    12     8     9    1
    13     9    10    1
    14    10    13    1
    15    13    14    1
    16    14    15    1
    17    15    16   ar
    18    16    17   ar
    19    17    18   ar
    20    18    19   ar
    21    19    21    1
    22    21    22    2
    23    21    23    1
    24    19    20   ar
    25    10    11    1
    26    11    12    1
    27     4     5   ar
    28     5     6   ar
    29    31    32   ar
    30    32    33   ar
    31    33    34   ar
    32    34    35   ar
    33    35    36   ar
    34    36    39    1
    35    39    40   ar
    36    40    41   ar
    37    41    42   ar
    38    42    45    1
    39    45    46    1
    40    42    43   ar
    41    43    44   ar
    42    36    37   ar
    43    37    38   ar
    44    38    30   ar
    45     6     1   ar
    46    38    33   ar
    47    12     7    1
    48    44    39   ar
    49    20    15   ar
    50    27    28    1
    51    23    24    1
    52    46    47    1
@<TRIPOS>MOLECULE
*****
 47 52 0 0 0
SMALL
GASTEIGER

@<TRIPOS>ATOM
      1 C         -62.4700  -41.5278  -21.0396 C.ar    1  UNL1        0.0702
      2 C         -62.6843  -41.7996  -22.3952 C.ar    1  UNL1        0.0191
      3 C         -62.0032  -42.8447  -23.0212 C.ar    1  UNL1        0.0356
      4 C         -61.0836  -43.6162  -22.2869 C.ar    1  UNL1        0.1318
      5 N         -60.8747  -43.3122  -20.9747 N.ar    1  UNL1       -0.2279
      6 C         -61.5291  -42.3021  -20.3437 C.ar    1  UNL1        0.1149
      7 N         -60.3634  -44.7148  -22.8954 N.pl3   1  UNL1       -0.2932
      8 C         -59.0739  -45.1626  -22.3444 C.3     1  UNL1        0.0923
      9 C         -59.0913  -46.6729  -22.0512 C.3     1  UNL1        0.0252
     10 C         -59.9559  -47.4843  -23.0513 C.3     1  UNL1        0.0472
     11 C         -60.1720  -46.7179  -24.3695 C.3     1  UNL1        0.0252
     12 C         -60.8958  -45.3919  -24.0920 C.3     1  UNL1        0.0923
     13 C         -59.4033  -48.9007  -23.3066 C.3     1  UNL1        0.2054
     14 O         -60.1551  -49.8977  -22.6072 O.3     1  UNL1       -0.4755
     15 C         -61.3070  -50.5648  -23.0591 C.ar    1  UNL1        0.1388
     16 C         -61.5874  -51.9136  -22.7655 C.ar    1  UNL1        0.0369
     17 C         -62.7567  -52.5076  -23.2439 C.ar    1  UNL1        0.0033
     18 C         -63.6576  -51.7725  -24.0165 C.ar    1  UNL1        0.0066
     19 C         -63.3955  -50.4266  -24.3245 C.ar    1  UNL1        0.0785
     20 C         -62.2206  -49.8326  -23.8283 C.ar    1  UNL1        0.0433
     21 C         -64.3435  -49.6268  -25.1384 C.2     1  UNL1        0.3381
     22 O         -64.1849  -49.5491  -26.3859 O.2     1  UNL1       -0.2451
     23 O         -65.4264  -48.9624  -24.5637 O.3     1  UNL1       -0.4771
     24 H         -65.6739  -49.0643  -23.5882 H       1  UNL1        0.2954
     25 C         -62.8067  -39.0521  -20.5888 C.2     1  UNL1        0.2839
     26 O         -61.6996  -38.7421  -21.1054 O.2     1  UNL1       -0.2665
     27 N         -63.1624  -40.4333  -20.4145 N.am    1  UNL1       -0.2766
     28 H         -63.9155  -40.6626  -19.7269 H       1  UNL1        0.1553
     29 C         -66.0061  -39.0573  -20.7830 C.3     1  UNL1        0.0345
     30 C         -65.1215  -37.9937  -20.2055 C.ar    1  UNL1        0.0202
     31 C         -63.7246  -37.9950  -20.1234 C.ar    1  UNL1        0.1946
     32 O         -63.3046  -36.8824  -19.5475 O.2     1  UNL1       -0.4492
     33 C         -64.3571  -36.1593  -19.2525 C.ar    1  UNL1        0.1452
     34 C         -64.3791  -34.9136  -18.6355 C.ar    1  UNL1        0.0375
     35 C         -65.6286  -34.3107  -18.4097 C.ar    1  UNL1        0.0031
     36 C         -66.8313  -34.9579  -18.8018 C.ar    1  UNL1        0.0002
     37 C         -66.7647  -36.2260  -19.4277 C.ar    1  UNL1        0.0028
     38 C         -65.5073  -36.7949  -19.6366 C.ar    1  UNL1        0.0337
     39 C         -68.1454  -34.3110  -18.5576 C.ar    1  UNL1       -0.0000
     40 C         -69.2929  -34.7409  -19.2482 C.ar    1  UNL1       -0.0002
     41 C         -70.5295  -34.1307  -19.0192 C.ar    1  UNL1       -0.0019
     42 C         -70.6442  -33.0891  -18.0871 C.ar    1  UNL1        0.0070
     43 C         -69.5000  -32.6458  -17.4079 C.ar    1  UNL1       -0.0019
     44 C         -68.2626  -33.2544  -17.6366 C.ar    1  UNL1       -0.0002
     45 C         -71.9651  -32.4101  -17.8690 C.3     1  UNL1        0.1636
     46 O         -72.9575  -33.0864  -18.5879 O.3     1  UNL1       -0.3772
     47 H         -73.8048  -32.6009  -18.4108 H       1  UNL1        0.2109
@<TRIPOS>BOND
     1    29    30    1
     2    30    31   ar
     3    31    25    1
     4    25    26    2
     5    25    27   am
     6    27     1    1
     7     1     2   ar
     8     2     3   ar
     9     3     4   ar
    10     4     7    1
    11     7     8    1
    12     8     9    1
    13     9    10    1
    14    10    13    1
    15    13    14    1
    16    14    15    1
    17    15    16   ar
    18    16    17   ar
    19    17    18   ar
    20    18    19   ar
    21    19    21    1
    22    21    22    2
    23    21    23    1
    24    19    20   ar
    25    10    11    1
    26    11    12    1
    27     4     5   ar
    28     5     6   ar
    29    31    32   ar
    30    32    33   ar
    31    33    34   ar
    32    34    35   ar
    33    35    36   ar
    34    36    39    1
    35    39    40   ar
    36    40    41   ar
    37    41    42   ar
    38    42    45    1
    39    45    46    1
    40    42    43   ar
    41    43    44   ar
    42    36    37   ar
    43    37    38   ar
    44    38    30   ar
    45     6     1   ar
    46    38    33   ar
    47    12     7    1
    48    44    39   ar
    49    20    15   ar
    50    27    28    1
    51    23    24    1
    52    46    47    1
@<TRIPOS>MOLECULE
*****
 47 52 0 0 0
SMALL
GASTEIGER

@<TRIPOS>ATOM
      1 C         -62.5799  -40.7243  -20.9049 C.ar    1  UNL1        0.0702
      2 C         -61.5367  -41.3665  -20.2290 C.ar    1  UNL1        0.0191
      3 C         -60.8269  -42.3982  -20.8450 C.ar    1  UNL1        0.0356
      4 C         -61.1758  -42.8044  -22.1463 C.ar    1  UNL1        0.1318
      5 N         -62.2136  -42.1793  -22.7710 N.ar    1  UNL1       -0.2279
      6 C         -62.9161  -41.1702  -22.1923 C.ar    1  UNL1        0.1149
      7 N         -60.4593  -43.8637  -22.8248 N.pl3   1  UNL1       -0.2932
      8 C         -59.2682  -44.4748  -22.2127 C.3     1  UNL1        0.0923
      9 C         -59.4083  -46.0050  -22.1355 C.3     1  UNL1        0.0252
     10 C         -60.2032  -46.6111  -23.3216 C.3     1  UNL1        0.0472
     11 C         -60.2252  -45.6639  -24.5357 C.3     1  UNL1        0.0252
     12 C         -60.8949  -44.3359  -24.1519 C.3     1  UNL1        0.0923
     13 C         -59.7113  -48.0187  -23.7135 C.3     1  UNL1        0.2054
     14 O         -60.8003  -48.8947  -24.0218 O.3     1  UNL1       -0.4755
     15 C         -60.9606  -50.2283  -23.6073 C.ar    1  UNL1        0.1388
     16 C         -59.9264  -50.9905  -23.0296 C.ar    1  UNL1        0.0369
     17 C         -60.1622  -52.3089  -22.6355 C.ar    1  UNL1        0.0033
     18 C         -61.4224  -52.8837  -22.8098 C.ar    1  UNL1        0.0066
     19 C         -62.4672  -52.1425  -23.3876 C.ar    1  UNL1        0.0785
     20 C         -62.2240  -50.8108  -23.7710 C.ar    1  UNL1        0.0433
     21 C         -63.8150  -52.7333  -23.5752 C.2     1  UNL1        0.3381
     22 O         -64.5203  -52.3816  -24.5581 O.2     1  UNL1       -0.2451
     23 O         -64.3276  -53.6880  -22.6974 O.3     1  UNL1       -0.4771
     24 H         -63.7793  -54.0915  -21.9492 H       1  UNL1        0.2954
     25 C         -63.0848  -38.2763  -20.4602 C.2     1  UNL1        0.2839
     26 O         -62.0413  -37.8877  -21.0508 O.2     1  UNL1       -0.2665
     27 N         -63.3167  -39.6783  -20.2483 N.am    1  UNL1       -0.2766
     28 H         -64.0037  -39.9557  -19.5109 H       1  UNL1        0.1553
     29 C         -66.2767  -38.3898  -20.7292 C.3     1  UNL1        0.0345
     30 C         -65.4470  -37.3342  -20.0626 C.ar    1  UNL1        0.0202
     31 C         -64.0531  -37.2880  -19.9480 C.ar    1  UNL1        0.1946
     32 O         -63.6893  -36.2012  -19.2906 O.2     1  UNL1       -0.4492
     33 C         -64.7754  -35.5397  -18.9735 C.ar    1  UNL1        0.1452
     34 C         -64.8592  -34.3395  -18.2766 C.ar    1  UNL1        0.0375
     35 C         -66.1360  -33.8008  -18.0409 C.ar    1  UNL1        0.0031
     36 C         -67.3038  -34.4656  -18.5028 C.ar    1  UNL1        0.0002
     37 C         -67.1743  -35.6858  -19.2090 C.ar    1  UNL1        0.0028
     38 C         -65.8915  -36.1915  -19.4253 C.ar    1  UNL1        0.0337
     39 C         -68.6472  -33.8867  -18.2475 C.ar    1  UNL1       -0.0000
     40 C         -68.7909  -32.7416  -17.4434 C.ar    1  UNL1       -0.0002
     41 C         -70.0558  -32.1978  -17.2020 C.ar    1  UNL1       -0.0019
     42 C         -71.1980  -32.7804  -17.7701 C.ar    1  UNL1        0.0070
     43 C         -71.0618  -33.9317  -18.5593 C.ar    1  UNL1       -0.0019
     44 C         -69.7977  -34.4773  -18.8007 C.ar    1  UNL1       -0.0002
     45 C         -72.5591  -32.2174  -17.4804 C.3     1  UNL1        0.1636
     46 O         -73.4908  -32.7846  -18.3574 O.3     1  UNL1       -0.3772
     47 H         -74.3678  -32.3818  -18.1255 H       1  UNL1        0.2109
@<TRIPOS>BOND
     1    29    30    1
     2    30    31   ar
     3    31    25    1
     4    25    26    2
     5    25    27   am
     6    27     1    1
     7     1     2   ar
     8     2     3   ar
     9     3     4   ar
    10     4     7    1
    11     7     8    1
    12     8     9    1
    13     9    10    1
    14    10    13    1
    15    13    14    1
    16    14    15    1
    17    15    16   ar
    18    16    17   ar
    19    17    18   ar
    20    18    19   ar
    21    19    21    1
    22    21    22    2
    23    21    23    1
    24    19    20   ar
    25    10    11    1
    26    11    12    1
    27     4     5   ar
    28     5     6   ar
    29    31    32   ar
    30    32    33   ar
    31    33    34   ar
    32    34    35   ar
    33    35    36   ar
    34    36    39    1
    35    39    40   ar
    36    40    41   ar
    37    41    42   ar
    38    42    45    1
    39    45    46    1
    40    42    43   ar
    41    43    44   ar
    42    36    37   ar
    43    37    38   ar
    44    38    30   ar
    45     6     1   ar
    46    38    33   ar
    47    12     7    1
    48    44    39   ar
    49    20    15   ar
    50    27    28    1
    51    23    24    1
    52    46    47    1
@<TRIPOS>MOLECULE
*****
 47 52 0 0 0
SMALL
GASTEIGER

@<TRIPOS>ATOM
      1 C         -62.4632  -40.8934  -20.3292 C.ar    1  UNL1        0.0702
      2 C         -61.1435  -41.1399  -19.9355 C.ar    1  UNL1        0.0191
      3 C         -60.4481  -42.2365  -20.4471 C.ar    1  UNL1        0.0356
      4 C         -61.0859  -43.1070  -21.3500 C.ar    1  UNL1        0.1318
      5 N         -62.3807  -42.8580  -21.6956 N.ar    1  UNL1       -0.2279
      6 C         -63.0760  -41.7946  -21.2132 C.ar    1  UNL1        0.1149
      7 N         -60.3977  -44.2504  -21.9114 N.pl3   1  UNL1       -0.2932
      8 C         -60.9542  -45.6055  -21.7674 C.3     1  UNL1        0.0923
      9 C         -61.0868  -46.2982  -23.1348 C.3     1  UNL1        0.0252
     10 C         -59.9707  -45.9018  -24.1365 C.3     1  UNL1        0.0472
     11 C         -58.7318  -45.3391  -23.4153 C.3     1  UNL1        0.0252
     12 C         -59.1149  -44.0830  -22.6186 C.3     1  UNL1        0.0923
     13 C         -59.5928  -47.0489  -25.0946 C.3     1  UNL1        0.2054
     14 O         -59.6866  -46.6481  -26.4654 O.3     1  UNL1       -0.4755
     15 C         -60.8529  -46.5543  -27.2446 C.ar    1  UNL1        0.1388
     16 C         -61.1911  -45.4146  -28.0001 C.ar    1  UNL1        0.0369
     17 C         -62.3644  -45.3967  -28.7565 C.ar    1  UNL1        0.0033
     18 C         -63.2123  -46.5057  -28.7714 C.ar    1  UNL1        0.0066
     19 C         -62.8959  -47.6516  -28.0219 C.ar    1  UNL1        0.0785
     20 C         -61.7056  -47.6654  -27.2719 C.ar    1  UNL1        0.0433
     21 C         -63.7805  -48.8424  -28.0300 C.2     1  UNL1        0.3381
     22 O         -63.7999  -49.5998  -29.0366 O.2     1  UNL1       -0.2451
     23 O         -64.5902  -49.1638  -26.9410 O.3     1  UNL1       -0.4771
     24 H         -64.5494  -48.6619  -26.0637 H       1  UNL1        0.2954
     25 C         -63.1023  -38.4366  -20.3000 C.2     1  UNL1        0.2839
     26 O         -62.2046  -38.1273  -21.1290 O.2     1  UNL1       -0.2665
     27 N         -63.1740  -39.7724  -19.7758 N.am    1  UNL1       -0.2766
     28 H         -63.7074  -39.9234  -18.8897 H       1  UNL1        0.1553
     29 C         -66.2961  -38.5303  -20.5536 C.3     1  UNL1        0.0345
     30 C         -65.4534  -37.4519  -19.9420 C.ar    1  UNL1        0.0202
     31 C         -64.0587  -37.4145  -19.8340 C.ar    1  UNL1        0.1946
     32 O         -63.6817  -36.3005  -19.2318 O.2     1  UNL1       -0.4492
     33 C         -64.7599  -35.6131  -18.9443 C.ar    1  UNL1        0.1452
     34 C         -64.8292  -34.3794  -18.3069 C.ar    1  UNL1        0.0375
     35 C         -66.0996  -33.8167  -18.0941 C.ar    1  UNL1        0.0031
     36 C         -67.2757  -34.4913  -18.5193 C.ar    1  UNL1        0.0002
     37 C         -67.1610  -35.7459  -19.1651 C.ar    1  UNL1        0.0028
     38 C         -65.8841  -36.2748  -19.3602 C.ar    1  UNL1        0.0337
     39 C         -68.6123  -33.8868  -18.2887 C.ar    1  UNL1       -0.0000
     40 C         -69.7454  -34.3805  -18.9600 C.ar    1  UNL1       -0.0002
     41 C         -71.0031  -33.8101  -18.7439 C.ar    1  UNL1       -0.0019
     42 C         -71.1533  -32.7452  -17.8437 C.ar    1  UNL1        0.0070
     43 C         -70.0241  -32.2387  -17.1841 C.ar    1  UNL1       -0.0019
     44 C         -68.7656  -32.8073  -17.4001 C.ar    1  UNL1       -0.0002
     45 C         -72.4980  -32.1097  -17.6401 C.3     1  UNL1        0.1636
     46 O         -73.4878  -32.9361  -18.1845 O.3     1  UNL1       -0.3772
     47 H         -74.3512  -32.4736  -18.0245 H       1  UNL1        0.2109
@<TRIPOS>BOND
     1    29    30    1
     2    30    31   ar
     3    31    25    1
     4    25    26    2
     5    25    27   am
     6    27     1    1
     7     1     2   ar
     8     2     3   ar
     9     3     4   ar
    10     4     7    1
    11     7     8    1
    12     8     9    1
    13     9    10    1
    14    10    13    1
    15    13    14    1
    16    14    15    1
    17    15    16   ar
    18    16    17   ar
    19    17    18   ar
    20    18    19   ar
    21    19    21    1
    22    21    22    2
    23    21    23    1
    24    19    20   ar
    25    10    11    1
    26    11    12    1
    27     4     5   ar
    28     5     6   ar
    29    31    32   ar
    30    32    33   ar
    31    33    34   ar
    32    34    35   ar
    33    35    36   ar
    34    36    39    1
    35    39    40   ar
    36    40    41   ar
    37    41    42   ar
    38    42    45    1
    39    45    46    1
    40    42    43   ar
    41    43    44   ar
    42    36    37   ar
    43    37    38   ar
    44    38    30   ar
    45     6     1   ar
    46    38    33   ar
    47    12     7    1
    48    44    39   ar
    49    20    15   ar
    50    27    28    1
    51    23    24    1
    52    46    47    1
@<TRIPOS>MOLECULE
*****
 47 52 0 0 0
SMALL
GASTEIGER

@<TRIPOS>ATOM
      1 C         -62.4217  -41.6635  -20.6307 C.ar    1  UNL1        0.0702
      2 C         -61.0248  -41.7371  -20.6075 C.ar    1  UNL1        0.0191
      3 C         -60.3688  -42.8546  -21.1260 C.ar    1  UNL1        0.0356
      4 C         -61.1195  -43.9191  -21.6582 C.ar    1  UNL1        0.1318
      5 N         -62.4798  -43.8323  -21.6436 N.ar    1  UNL1       -0.2279
      6 C         -63.1396  -42.7527  -21.1477 C.ar    1  UNL1        0.1149
      7 N         -60.4784  -45.0920  -22.2143 N.pl3   1  UNL1       -0.2932
      8 C         -60.5736  -46.3929  -21.5321 C.3     1  UNL1        0.0923
      9 C         -61.0996  -47.4807  -22.4845 C.3     1  UNL1        0.0252
     10 C         -60.6460  -47.2836  -23.9548 C.3     1  UNL1        0.0472
     11 C         -59.3963  -46.3887  -24.0501 C.3     1  UNL1        0.0252
     12 C         -59.6989  -45.0021  -23.4626 C.3     1  UNL1        0.0923
     13 C         -60.4428  -48.6171  -24.7012 C.3     1  UNL1        0.2054
     14 O         -61.2892  -48.7159  -25.8512 O.3     1  UNL1       -0.4755
     15 C         -61.6483  -47.6811  -26.7324 C.ar    1  UNL1        0.1388
     16 C         -62.9778  -47.2636  -26.9373 C.ar    1  UNL1        0.0369
     17 C         -63.2578  -46.2227  -27.8245 C.ar    1  UNL1        0.0033
     18 C         -62.2251  -45.5869  -28.5161 C.ar    1  UNL1        0.0066
     19 C         -60.8920  -45.9902  -28.3296 C.ar    1  UNL1        0.0785
     20 C         -60.6178  -47.0321  -27.4246 C.ar    1  UNL1        0.0433
     21 C         -59.7801  -45.3228  -29.0501 C.2     1  UNL1        0.3381
     22 O         -59.4726  -44.1354  -28.7625 O.2     1  UNL1       -0.2451
     23 O         -59.0451  -45.9791  -30.0369 O.3     1  UNL1       -0.4771
     24 H         -59.1679  -46.9611  -30.2465 H       1  UNL1        0.2954
     25 C         -62.8327  -39.1624  -20.4848 C.2     1  UNL1        0.2839
     26 O         -61.8243  -38.8909  -21.1906 O.2     1  UNL1       -0.2665
     27 N         -63.0838  -40.5156  -20.0721 N.am    1  UNL1       -0.2766
     28 H         -63.7234  -40.6697  -19.2599 H       1  UNL1        0.1553
     29 C         -66.0321  -39.1342  -20.6760 C.3     1  UNL1        0.0345
     30 C         -65.1342  -38.0668  -20.1266 C.ar    1  UNL1        0.0202
     31 C         -63.7372  -38.0828  -20.0458 C.ar    1  UNL1        0.1946
     32 O         -63.3032  -36.9611  -19.4988 O.2     1  UNL1       -0.4492
     33 C         -64.3467  -36.2181  -19.2215 C.ar    1  UNL1        0.1452
     34 C         -64.3530  -34.9568  -18.6364 C.ar    1  UNL1        0.0375
     35 C         -65.5949  -34.3334  -18.4249 C.ar    1  UNL1        0.0031
     36 C         -66.8057  -34.9759  -18.7993 C.ar    1  UNL1        0.0002
     37 C         -66.7551  -36.2603  -19.3927 C.ar    1  UNL1        0.0028
     38 C         -65.5049  -36.8494  -19.5881 C.ar    1  UNL1        0.0337
     39 C         -68.1118  -34.3073  -18.5706 C.ar    1  UNL1       -0.0000
     40 C         -69.2622  -34.7316  -19.2596 C.ar    1  UNL1       -0.0002
     41 C         -70.4911  -34.1009  -19.0452 C.ar    1  UNL1       -0.0019
     42 C         -70.5952  -33.0439  -18.1293 C.ar    1  UNL1        0.0070
     43 C         -69.4478  -32.6064  -17.4518 C.ar    1  UNL1       -0.0019
     44 C         -68.2180  -33.2354  -17.6660 C.ar    1  UNL1       -0.0002
     45 C         -71.9074  -32.3434  -17.9271 C.3     1  UNL1        0.1636
     46 O         -72.9013  -33.0019  -18.6602 O.3     1  UNL1       -0.3772
     47 H         -73.7428  -32.5027  -18.4933 H       1  UNL1        0.2109
@<TRIPOS>BOND
     1    29    30    1
     2    30    31   ar
     3    31    25    1
     4    25    26    2
     5    25    27   am
     6    27     1    1
     7     1     2   ar
     8     2     3   ar
     9     3     4   ar
    10     4     7    1
    11     7     8    1
    12     8     9    1
    13     9    10    1
    14    10    13    1
    15    13    14    1
    16    14    15    1
    17    15    16   ar
    18    16    17   ar
    19    17    18   ar
    20    18    19   ar
    21    19    21    1
    22    21    22    2
    23    21    23    1
    24    19    20   ar
    25    10    11    1
    26    11    12    1
    27     4     5   ar
    28     5     6   ar
    29    31    32   ar
    30    32    33   ar
    31    33    34   ar
    32    34    35   ar
    33    35    36   ar
    34    36    39    1
    35    39    40   ar
    36    40    41   ar
    37    41    42   ar
    38    42    45    1
    39    45    46    1
    40    42    43   ar
    41    43    44   ar
    42    36    37   ar
    43    37    38   ar
    44    38    30   ar
    45     6     1   ar
    46    38    33   ar
    47    12     7    1
    48    44    39   ar
    49    20    15   ar
    50    27    28    1
    51    23    24    1
    52    46    47    1
@<TRIPOS>MOLECULE
*****
 47 52 0 0 0
SMALL
GASTEIGER

@<TRIPOS>ATOM
      1 C         -63.4121  -41.7451  -22.2237 C.ar    1  UNL1        0.0702
      2 C         -62.9595  -42.9025  -21.5810 C.ar    1  UNL1        0.0191
      3 C         -62.3707  -43.9327  -22.3157 C.ar    1  UNL1        0.0356
      4 C         -62.2490  -43.8116  -23.7124 C.ar    1  UNL1        0.1318
      5 N         -62.7227  -42.6847  -24.3154 N.ar    1  UNL1       -0.2279
      6 C         -63.2959  -41.6675  -23.6200 C.ar    1  UNL1        0.1149
      7 N         -61.6363  -44.8525  -24.5105 N.pl3   1  UNL1       -0.2932
      8 C         -62.4667  -45.8163  -25.2510 C.3     1  UNL1        0.0923
      9 C         -62.0759  -45.8562  -26.7386 C.3     1  UNL1        0.0252
     10 C         -60.5625  -45.6200  -26.9841 C.3     1  UNL1        0.0472
     11 C         -59.7288  -45.9092  -25.7220 C.3     1  UNL1        0.0252
     12 C         -60.1691  -44.9818  -24.5794 C.3     1  UNL1        0.0923
     13 C         -60.0268  -46.3959  -28.2038 C.3     1  UNL1        0.2054
     14 O         -59.2354  -45.5628  -29.0570 O.3     1  UNL1       -0.4755
     15 C         -59.6291  -44.9739  -30.2713 C.ar    1  UNL1        0.1388
     16 C         -58.8134  -44.9448  -31.4193 C.ar    1  UNL1        0.0369
     17 C         -59.2754  -44.3473  -32.5935 C.ar    1  UNL1        0.0033
     18 C         -60.5473  -43.7739  -32.6413 C.ar    1  UNL1        0.0066
     19 C         -61.3759  -43.7885  -31.5064 C.ar    1  UNL1        0.0785
     20 C         -60.9070  -44.4032  -30.3309 C.ar    1  UNL1        0.0433
     21 C         -62.7331  -43.1904  -31.5391 C.2     1  UNL1        0.3381
     22 O         -63.6323  -43.7193  -32.2455 O.2     1  UNL1       -0.2451
     23 O         -63.0549  -42.0569  -30.7932 O.3     1  UNL1       -0.4771
     24 H         -62.4160  -41.6422  -30.1277 H       1  UNL1        0.2954
     25 C         -63.3586  -39.5185  -21.0051 C.2     1  UNL1        0.2839
     26 O         -62.1005  -39.4536  -21.0463 O.2     1  UNL1       -0.2665
     27 N         -64.0371  -40.7021  -21.4558 N.am    1  UNL1       -0.2766
     28 H         -65.0203  -40.8555  -21.1359 H       1  UNL1        0.1553
     29 C         -66.5451  -39.1760  -21.0515 C.3     1  UNL1        0.0345
     30 C         -65.5278  -38.2396  -20.4722 C.ar    1  UNL1        0.0202
     31 C         -64.1369  -38.3926  -20.4548 C.ar    1  UNL1        0.1946
     32 O         -63.5759  -37.3584  -19.8536 O.2     1  UNL1       -0.4492
     33 C         -64.5312  -36.5422  -19.4809 C.ar    1  UNL1        0.1452
     34 C         -64.3931  -35.3307  -18.8127 C.ar    1  UNL1        0.0375
     35 C         -65.5598  -34.6098  -18.5048 C.ar    1  UNL1        0.0031
     36 C         -66.8405  -35.1074  -18.8673 C.ar    1  UNL1        0.0002
     37 C         -66.9371  -36.3454  -19.5473 C.ar    1  UNL1        0.0028
     38 C         -65.7582  -37.0341  -19.8372 C.ar    1  UNL1        0.0337
     39 C         -68.0660  -34.3368  -18.5363 C.ar    1  UNL1       -0.0000
     40 C         -67.9971  -33.2110  -17.6960 C.ar    1  UNL1       -0.0002
     41 C         -69.1511  -32.4868  -17.3834 C.ar    1  UNL1       -0.0019
     42 C         -70.3921  -32.8666  -17.9151 C.ar    1  UNL1        0.0070
     43 C         -70.4687  -33.9979  -18.7404 C.ar    1  UNL1       -0.0019
     44 C         -69.3158  -34.7237  -19.0530 C.ar    1  UNL1       -0.0002
     45 C         -71.6361  -32.1101  -17.5493 C.3     1  UNL1        0.1636
     46 O         -72.7039  -32.5714  -18.3278 O.3     1  UNL1       -0.3772
     47 H         -73.4963  -32.0430  -18.0489 H       1  UNL1        0.2109
@<TRIPOS>BOND
     1    29    30    1
     2    30    31   ar
     3    31    25    1
     4    25    26    2
     5    25    27   am
     6    27     1    1
     7     1     2   ar
     8     2     3   ar
     9     3     4   ar
    10     4     7    1
    11     7     8    1
    12     8     9    1
    13     9    10    1
    14    10    13    1
    15    13    14    1
    16    14    15    1
    17    15    16   ar
    18    16    17   ar
    19    17    18   ar
    20    18    19   ar
    21    19    21    1
    22    21    22    2
    23    21    23    1
    24    19    20   ar
    25    10    11    1
    26    11    12    1
    27     4     5   ar
    28     5     6   ar
    29    31    32   ar
    30    32    33   ar
    31    33    34   ar
    32    34    35   ar
    33    35    36   ar
    34    36    39    1
    35    39    40   ar
    36    40    41   ar
    37    41    42   ar
    38    42    45    1
    39    45    46    1
    40    42    43   ar
    41    43    44   ar
    42    36    37   ar
    43    37    38   ar
    44    38    30   ar
    45     6     1   ar
    46    38    33   ar
    47    12     7    1
    48    44    39   ar
    49    20    15   ar
    50    27    28    1
    51    23    24    1
    52    46    47    1
@<TRIPOS>MOLECULE
*****
 47 52 0 0 0
SMALL
GASTEIGER

@<TRIPOS>ATOM
      1 C         -64.5059  -52.1489  -24.5193 C.ar    1  UNL1        0.0702
      2 C         -63.6885  -52.6552  -23.5030 C.ar    1  UNL1        0.0191
      3 C         -64.1658  -53.6435  -22.6407 C.ar    1  UNL1        0.0356
      4 C         -65.4824  -54.1186  -22.7855 C.ar    1  UNL1        0.1318
      5 N         -66.2654  -53.5884  -23.7673 N.ar    1  UNL1       -0.2279
      6 C         -65.8207  -52.6287  -24.6205 C.ar    1  UNL1        0.1149
      7 N         -66.0134  -55.1493  -21.9185 N.pl3   1  UNL1       -0.2932
      8 C         -66.0770  -54.9445  -20.4622 C.3     1  UNL1        0.0923
      9 C         -67.4999  -55.1885  -19.9301 C.3     1  UNL1        0.0252
     10 C         -68.2646  -56.2953  -20.7023 C.3     1  UNL1        0.0472
     11 C         -67.3024  -57.2338  -21.4541 C.3     1  UNL1        0.0252
     12 C         -66.4799  -56.4327  -22.4744 C.3     1  UNL1        0.0923
     13 C         -69.2377  -57.0862  -19.8054 C.3     1  UNL1        0.2054
     14 O         -70.3488  -56.2844  -19.3917 O.3     1  UNL1       -0.4755
     15 C         -71.6154  -56.2119  -19.9971 C.ar    1  UNL1        0.1388
     16 C         -72.8218  -56.1866  -19.2704 C.ar    1  UNL1        0.0369
     17 C         -74.0436  -56.1067  -19.9411 C.ar    1  UNL1        0.0033
     18 C         -74.0818  -56.0516  -21.3355 C.ar    1  UNL1        0.0066
     19 C         -72.8903  -56.0795  -22.0801 C.ar    1  UNL1        0.0785
     20 C         -71.6630  -56.1481  -21.3957 C.ar    1  UNL1        0.0433
     21 C         -72.9097  -56.0152  -23.5621 C.2     1  UNL1        0.3381
     22 O         -71.9587  -56.5130  -24.2218 O.2     1  UNL1       -0.2451
     23 O         -73.9658  -55.4284  -24.2585 O.3     1  UNL1       -0.4771
     24 H         -74.8070  -55.1025  -23.8010 H       1  UNL1        0.2954
     25 C         -64.1910  -49.7095  -25.1484 C.2     1  UNL1        0.2839
     26 O         -65.0255  -49.3142  -24.2905 O.2     1  UNL1       -0.2665
     27 N         -64.0075  -51.1147  -25.3854 N.am    1  UNL1       -0.2766
     28 H         -63.5585  -51.4060  -26.2833 H       1  UNL1        0.1553
     29 C         -64.0716  -49.4920  -28.3440 C.3     1  UNL1        0.0345
     30 C         -63.3742  -48.6282  -27.3368 C.ar    1  UNL1        0.0202
     31 C         -63.4283  -48.7271  -25.9420 C.ar    1  UNL1        0.1946
     32 O         -62.6803  -47.7865  -25.3928 O.2     1  UNL1       -0.4492
     33 C         -62.1433  -47.0832  -26.3595 C.ar    1  UNL1        0.1452
     34 C         -61.2875  -45.9943  -26.2359 C.ar    1  UNL1        0.0375
     35 C         -60.8264  -45.3802  -27.4131 C.ar    1  UNL1        0.0031
     36 C         -61.2249  -45.8606  -28.6897 C.ar    1  UNL1        0.0002
     37 C         -62.0975  -46.9724  -28.7714 C.ar    1  UNL1        0.0028
     38 C         -62.5354  -47.5578  -27.5824 C.ar    1  UNL1        0.0337
     39 C         -60.7312  -45.2032  -29.9263 C.ar    1  UNL1       -0.0000
     40 C         -61.6104  -44.4760  -30.7489 C.ar    1  UNL1       -0.0002
     41 C         -61.1456  -43.8586  -31.9137 C.ar    1  UNL1       -0.0019
     42 C         -59.7921  -43.9457  -32.2705 C.ar    1  UNL1        0.0070
     43 C         -58.9146  -44.6832  -31.4623 C.ar    1  UNL1       -0.0019
     44 C         -59.3782  -45.3020  -30.2978 C.ar    1  UNL1       -0.0002
     45 C         -59.3015  -43.3134  -33.5405 C.3     1  UNL1        0.1636
     46 O         -60.2183  -43.5659  -34.5675 O.3     1  UNL1       -0.3772
     47 H         -59.8495  -43.1297  -35.3791 H       1  UNL1        0.2109
@<TRIPOS>BOND
     1    29    30    1
     2    30    31   ar
     3    31    25    1
     4    25    26    2
     5    25    27   am
     6    27     1    1
     7     1     2   ar
     8     2     3   ar
     9     3     4   ar
    10     4     7    1
    11     7     8    1
    12     8     9    1
    13     9    10    1
    14    10    13    1
    15    13    14    1
    16    14    15    1
    17    15    16   ar
    18    16    17   ar
    19    17    18   ar
    20    18    19   ar
    21    19    21    1
    22    21    22    2
    23    21    23    1
    24    19    20   ar
    25    10    11    1
    26    11    12    1
    27     4     5   ar
    28     5     6   ar
    29    31    32   ar
    30    32    33   ar
    31    33    34   ar
    32    34    35   ar
    33    35    36   ar
    34    36    39    1
    35    39    40   ar
    36    40    41   ar
    37    41    42   ar
    38    42    45    1
    39    45    46    1
    40    42    43   ar
    41    43    44   ar
    42    36    37   ar
    43    37    38   ar
    44    38    30   ar
    45     6     1   ar
    46    38    33   ar
    47    12     7    1
    48    44    39   ar
    49    20    15   ar
    50    27    28    1
    51    23    24    1
    52    46    47    1
@<TRIPOS>MOLECULE
*****
 47 52 0 0 0
SMALL
GASTEIGER

@<TRIPOS>ATOM
      1 C         -62.1384  -42.5384  -20.7693 C.ar    1  UNL1        0.0702
      2 C         -60.7884  -42.5285  -21.1364 C.ar    1  UNL1        0.0191
      3 C         -60.1719  -43.6965  -21.5878 C.ar    1  UNL1        0.0356
      4 C         -60.9097  -44.8926  -21.6564 C.ar    1  UNL1        0.1318
      5 N         -62.2160  -44.8792  -21.2671 N.ar    1  UNL1       -0.2279
      6 C         -62.8379  -43.7535  -20.8282 C.ar    1  UNL1        0.1149
      7 N         -60.3111  -46.1237  -22.1276 N.pl3   1  UNL1       -0.2932
      8 C         -59.7708  -47.1074  -21.1751 C.3     1  UNL1        0.0923
      9 C         -60.3751  -48.5016  -21.4161 C.3     1  UNL1        0.0252
     10 C         -60.6799  -48.7908  -22.9093 C.3     1  UNL1        0.0472
     11 C         -59.8649  -47.8779  -23.8441 C.3     1  UNL1        0.0252
     12 C         -60.2105  -46.4063  -23.5712 C.3     1  UNL1        0.0923
     13 C         -60.5034  -50.2773  -23.2781 C.3     1  UNL1        0.2054
     14 O         -61.4476  -51.1090  -22.5962 O.3     1  UNL1       -0.4755
     15 C         -62.5958  -51.7115  -23.1392 C.ar    1  UNL1        0.1388
     16 C         -63.2964  -51.1899  -24.2442 C.ar    1  UNL1        0.0369
     17 C         -64.4264  -51.8480  -24.7332 C.ar    1  UNL1        0.0033
     18 C         -64.8723  -53.0269  -24.1330 C.ar    1  UNL1        0.0066
     19 C         -64.1905  -53.5626  -23.0271 C.ar    1  UNL1        0.0785
     20 C         -63.0459  -52.8993  -22.5483 C.ar    1  UNL1        0.0433
     21 C         -64.6448  -54.8177  -22.3797 C.2     1  UNL1        0.3381
     22 O         -65.7818  -55.2862  -22.6536 O.2     1  UNL1       -0.2451
     23 O         -63.8394  -55.5129  -21.4783 O.3     1  UNL1       -0.4771
     24 H         -62.8800  -55.2528  -21.2907 H       1  UNL1        0.2954
     25 C         -62.4485  -40.0186  -20.7804 C.2     1  UNL1        0.2839
     26 O         -61.4303  -39.8323  -21.4997 O.2     1  UNL1       -0.2665
     27 N         -62.7535  -41.3322  -20.2846 N.am    1  UNL1       -0.2766
     28 H         -63.3984  -41.4096  -19.4656 H       1  UNL1        0.1553
     29 C         -65.6347  -40.0434  -20.4333 C.3     1  UNL1        0.0345
     30 C         -64.6995  -38.8850  -20.2579 C.ar    1  UNL1        0.0202
     31 C         -63.3086  -38.8782  -20.4112 C.ar    1  UNL1        0.1946
     32 O         -62.8332  -37.6692  -20.1706 O.2     1  UNL1       -0.4492
     33 C         -63.8441  -36.8912  -19.8699 C.ar    1  UNL1        0.1452
     34 C         -63.8017  -35.5399  -19.5453 C.ar    1  UNL1        0.0375
     35 C         -65.0147  -34.8931  -19.2519 C.ar    1  UNL1        0.0031
     36 C         -66.2456  -35.6022  -19.2872 C.ar    1  UNL1        0.0002
     37 C         -66.2448  -36.9775  -19.6229 C.ar    1  UNL1        0.0028
     38 C         -65.0223  -37.5876  -19.9086 C.ar    1  UNL1        0.0337
     39 C         -67.5206  -34.9078  -18.9751 C.ar    1  UNL1       -0.0000
     40 C         -68.7206  -35.3061  -19.5912 C.ar    1  UNL1       -0.0002
     41 C         -69.9204  -34.6513  -19.2983 C.ar    1  UNL1       -0.0019
     42 C         -69.9448  -33.5958  -18.3752 C.ar    1  UNL1        0.0070
     43 C         -68.7482  -33.1841  -17.7704 C.ar    1  UNL1       -0.0019
     44 C         -67.5476  -33.8373  -18.0631 C.ar    1  UNL1       -0.0002
     45 C         -71.2270  -32.8694  -18.0891 C.3     1  UNL1        0.1636
     46 O         -72.3091  -33.6851  -18.4394 O.3     1  UNL1       -0.3772
     47 H         -73.1266  -33.1619  -18.2321 H       1  UNL1        0.2109
@<TRIPOS>BOND
     1    29    30    1
     2    30    31   ar
     3    31    25    1
     4    25    26    2
     5    25    27   am
     6    27     1    1
     7     1     2   ar
     8     2     3   ar
     9     3     4   ar
    10     4     7    1
    11     7     8    1
    12     8     9    1
    13     9    10    1
    14    10    13    1
    15    13    14    1
    16    14    15    1
    17    15    16   ar
    18    16    17   ar
    19    17    18   ar
    20    18    19   ar
    21    19    21    1
    22    21    22    2
    23    21    23    1
    24    19    20   ar
    25    10    11    1
    26    11    12    1
    27     4     5   ar
    28     5     6   ar
    29    31    32   ar
    30    32    33   ar
    31    33    34   ar
    32    34    35   ar
    33    35    36   ar
    34    36    39    1
    35    39    40   ar
    36    40    41   ar
    37    41    42   ar
    38    42    45    1
    39    45    46    1
    40    42    43   ar
    41    43    44   ar
    42    36    37   ar
    43    37    38   ar
    44    38    30   ar
    45     6     1   ar
    46    38    33   ar
    47    12     7    1
    48    44    39   ar
    49    20    15   ar
    50    27    28    1
    51    23    24    1
    52    46    47    1
