@<TRIPOS>MOLECULE
*****
 59 63 0 0 0
SMALL
GASTEIGER

@<TRIPOS>ATOM
      1 O          50.0488   11.4645  -21.9351 O.3     1  UNL1       -0.4513
      2 C          47.7705   11.1755  -26.3552 C.3     1  UNL1        0.0318
      3 C          47.9270   11.8235  -24.9958 C.ar    1  UNL1       -0.0096
      4 C          48.9112   11.3283  -24.1056 C.ar    1  UNL1        0.0880
      5 CL         49.8820    9.9118  -24.5309 Cl      1  UNL1       -0.0794
      6 C          49.0653   11.9048  -22.8298 C.ar    1  UNL1        0.1577
      7 C          48.1956   12.9083  -22.4130 C.ar    1  UNL1        0.0676
      8 C          47.1936   13.3771  -23.2573 C.ar    1  UNL1        0.1395
      9 F          46.3592   14.3427  -22.7938 F       1  UNL1       -0.2044
     10 C          47.0478   12.8560  -24.5580 C.ar    1  UNL1        0.0135
     11 C          45.9235   13.3796  -25.4311 C.3     1  UNL1        0.1379
     12 C          46.4097   14.4817  -26.3188 C.2     1  UNL1        0.3234
     13 O          46.2772   14.3818  -27.5689 O.2     1  UNL1       -0.2497
     14 O          47.0384   15.5958  -25.7512 O.3     1  UNL1       -0.4215
     15 C          46.7861   16.9417  -26.1574 C.3     1  UNL1        0.3207
     16 O          47.3125   17.1458  -27.4658 O.3     1  UNL1       -0.3070
     17 C          48.6856   17.5104  -27.4801 C.3     1  UNL1        0.2456
     18 C          48.9248   18.8945  -26.8031 C.3     1  UNL1        0.1781
     19 O          48.9509   19.9082  -27.7764 O.3     1  UNL1       -0.3790
     20 C          47.8090   19.2233  -25.7895 C.3     1  UNL1        0.1733
     21 O          48.2495   20.1776  -24.8544 O.3     1  UNL1       -0.3793
     22 C          47.3114   17.9463  -25.0956 C.3     1  UNL1        0.2106
     23 O          46.2798   18.2609  -24.1949 O.3     1  UNL1       -0.3766
     24 H          49.8370   19.8584  -28.2222 H       1  UNL1        0.2106
     25 H          48.9655   19.7582  -24.3086 H       1  UNL1        0.2105
     26 H          46.7109   18.5614  -23.3525 H       1  UNL1        0.2107
     27 C          49.5680   16.3964  -26.9580 C.2     1  UNL1        0.3439
     28 O          50.6619   16.6838  -26.4023 O.2     1  UNL1       -0.2475
     29 O          49.2038   15.0601  -27.1011 O.3     1  UNL1       -0.4785
     30 H          49.7886   14.3201  -26.7345 H       1  UNL1        0.2951
     31 C          49.9483   11.5478  -20.5374 C.ar    1  UNL1        0.1598
     32 C          49.4321   10.4801  -19.7807 C.ar    1  UNL1        0.0390
     33 C          49.2886   10.5958  -18.3977 C.ar    1  UNL1        0.0077
     34 C          49.6794   11.7709  -17.7419 C.ar    1  UNL1        0.0548
     35 C          50.2715   12.8029  -18.4847 C.ar    1  UNL1        0.0235
     36 C          50.3772   12.7200  -19.8857 C.ar    1  UNL1        0.0993
     37 C          49.4445   11.9306  -16.2897 C.2     1  UNL1        0.2458
     38 O          48.2895   11.7279  -15.8273 O.2     1  UNL1       -0.2701
     39 N          50.5155   12.3555  -15.4222 N.am    1  UNL1       -0.3040
     40 H          51.3929   12.6912  -15.8807 H       1  UNL1        0.1496
     41 C          50.4540   12.3855  -13.9482 C.3     1  UNL1        0.0572
     42 C          51.8613   12.6895  -13.3934 C.3     1  UNL1        0.0196
     43 C          49.4940   13.4953  -13.4787 C.3     1  UNL1        0.0196
     44 C          50.0007   11.0163  -13.4059 C.3     1  UNL1        0.0196
     45 N          50.8558   13.8369  -20.6624 N.pl3   1  UNL1       -0.2120
     46 H          50.2832   14.7079  -20.7222 H       1  UNL1        0.1738
     47 S          52.4278   13.8900  -21.4032 S.O2    1  UNL1        0.0745
     48 O          52.9444   15.2967  -21.2905 O.2     1  UNL1       -0.1499
     49 O          53.3526   12.9623  -20.6674 O.2     1  UNL1       -0.1499
     50 C          52.3328   13.3715  -23.0968 C.ar    1  UNL1        0.1356
     51 C          53.1684   12.3323  -23.5290 C.ar    1  UNL1        0.0207
     52 C          53.0421   11.8008  -24.8130 C.ar    1  UNL1       -0.0028
     53 C          52.0912   12.3228  -25.7124 C.ar    1  UNL1       -0.0216
     54 C          51.2971   13.4020  -25.2971 C.ar    1  UNL1        0.0085
     55 C          51.4112   13.9311  -24.0063 C.ar    1  UNL1        0.0762
     56 CL         50.3840   15.2980  -23.5898 Cl      1  UNL1       -0.0809
     57 C          51.8522   11.7670  -27.1059 C.3     1  UNL1        0.0224
     58 C          51.9548   10.2538  -27.2402 C.3     1  UNL1        0.0047
     59 C          53.0218   11.1483  -27.8596 C.3     1  UNL1        0.0047
@<TRIPOS>BOND
     1     2     3    1
     2     3     4   ar
     3     4     5    1
     4     4     6   ar
     5     6     1    1
     6     1    31    1
     7    31    32   ar
     8    32    33   ar
     9    33    34   ar
    10    34    37    1
    11    37    38    2
    12    37    39   am
    13    39    41    1
    14    41    42    1
    15    41    43    1
    16    41    44    1
    17    34    35   ar
    18    35    36   ar
    19    36    45    1
    20    45    47    1
    21    47    48    2
    22    47    49    2
    23    47    50    1
    24    50    51   ar
    25    51    52   ar
    26    52    53   ar
    27    53    57    1
    28    57    58    1
    29    58    59    1
    30    53    54   ar
    31    54    55   ar
    32    55    56    1
    33     6     7   ar
    34     7     8   ar
    35     8     9    1
    36     8    10   ar
    37    10    11    1
    38    11    12    1
    39    12    13    2
    40    12    14    1
    41    14    15    1
    42    15    16    1
    43    16    17    1
    44    17    27    1
    45    27    28    2
    46    27    29    1
    47    17    18    1
    48    18    19    1
    49    18    20    1
    50    20    21    1
    51    20    22    1
    52    22    23    1
    53    10     3   ar
    54    22    15    1
    55    36    31   ar
    56    55    50   ar
    57    59    57    1
    58    39    40    1
    59    45    46    1
    60    29    30    1
    61    19    24    1
    62    21    25    1
    63    23    26    1
@<TRIPOS>MOLECULE
*****
 59 63 0 0 0
SMALL
GASTEIGER

@<TRIPOS>ATOM
      1 O          52.0879   12.4040  -24.1223 O.3     1  UNL1       -0.4513
      2 C          48.9994   15.2018  -21.3938 C.3     1  UNL1        0.0318
      3 C          49.6353   14.8596  -22.7245 C.ar    1  UNL1       -0.0096
      4 C          50.5690   13.7964  -22.7888 C.ar    1  UNL1        0.0880
      5 CL         51.0627   12.9388  -21.3223 Cl      1  UNL1       -0.0794
      6 C          51.1851   13.4692  -24.0124 C.ar    1  UNL1        0.1577
      7 C          50.9374   14.2435  -25.1421 C.ar    1  UNL1        0.0676
      8 C          50.0570   15.3199  -25.0875 C.ar    1  UNL1        0.1395
      9 F          49.8669   16.0550  -26.2131 F       1  UNL1       -0.2044
     10 C          49.3862   15.6397  -23.8907 C.ar    1  UNL1        0.0135
     11 C          48.4575   16.8388  -23.8738 C.3     1  UNL1        0.1379
     12 C          47.0292   16.4058  -23.9812 C.2     1  UNL1        0.3234
     13 O          46.1973   16.7736  -23.1078 O.2     1  UNL1       -0.2497
     14 O          46.6416   15.5673  -25.0325 O.3     1  UNL1       -0.4215
     15 C          46.7167   14.1420  -24.9794 C.3     1  UNL1        0.3207
     16 O          47.5674   13.6754  -26.0231 O.3     1  UNL1       -0.3070
     17 C          46.9014   13.4887  -27.2642 C.3     1  UNL1        0.2456
     18 C          45.8252   12.3635  -27.1809 C.3     1  UNL1        0.1781
     19 O          46.3671   11.1455  -27.6264 O.3     1  UNL1       -0.3790
     20 C          45.3248   12.1720  -25.7341 C.3     1  UNL1        0.1733
     21 O          44.0634   11.5494  -25.7206 O.3     1  UNL1       -0.3793
     22 C          45.2961   13.5138  -24.9868 C.3     1  UNL1        0.2106
     23 O          44.8618   13.3173  -23.6649 O.3     1  UNL1       -0.3766
     24 H          46.3948   11.1867  -28.6183 H       1  UNL1        0.2106
     25 H          43.4114   12.1782  -26.1280 H       1  UNL1        0.2105
     26 H          43.8694   13.2969  -23.6849 H       1  UNL1        0.2107
     27 C          46.3968   14.7979  -27.8333 C.2     1  UNL1        0.3439
     28 O          45.2348   14.8537  -28.3176 O.2     1  UNL1       -0.2475
     29 O          47.2012   15.9343  -27.8521 O.3     1  UNL1       -0.4785
     30 H          46.8528   16.8113  -28.2174 H       1  UNL1        0.2951
     31 C          52.3257   11.6804  -25.3014 C.ar    1  UNL1        0.1598
     32 C          52.6020   12.3373  -26.5143 C.ar    1  UNL1        0.0390
     33 C          52.7843   11.6081  -27.6897 C.ar    1  UNL1        0.0077
     34 C          52.7172   10.2085  -27.6715 C.ar    1  UNL1        0.0548
     35 C          52.5253    9.5499  -26.4480 C.ar    1  UNL1        0.0235
     36 C          52.2909   10.2732  -25.2636 C.ar    1  UNL1        0.0993
     37 C          52.8198    9.4382  -28.9307 C.2     1  UNL1        0.2458
     38 O          53.9258    9.3886  -29.5332 O.2     1  UNL1       -0.2701
     39 N          51.6562    8.7891  -29.4829 N.am    1  UNL1       -0.3040
     40 H          50.7335    9.0195  -29.0492 H       1  UNL1        0.1496
     41 C          51.6655    7.8587  -30.6282 C.3     1  UNL1        0.0572
     42 C          51.9297    8.6576  -31.9215 C.3     1  UNL1        0.0196
     43 C          52.7894    6.8184  -30.4589 C.3     1  UNL1        0.0196
     44 C          50.2988    7.1588  -30.7572 C.3     1  UNL1        0.0196
     45 N          51.9542    9.5979  -24.0346 N.pl3   1  UNL1       -0.2120
     46 H          52.5589    9.7246  -23.1930 H       1  UNL1        0.1738
     47 S          50.4932    8.6829  -23.8092 S.O2    1  UNL1        0.0745
     48 O          50.0131    8.2383  -25.1621 O.2     1  UNL1       -0.1499
     49 O          50.7915    7.4746  -22.9677 O.2     1  UNL1       -0.1499
     50 C          49.2692    9.6636  -22.9808 C.ar    1  UNL1        0.1356
     51 C          48.9556    9.3615  -21.6484 C.ar    1  UNL1        0.0207
     52 C          48.0977   10.1801  -20.9128 C.ar    1  UNL1       -0.0028
     53 C          47.5035   11.3107  -21.5081 C.ar    1  UNL1       -0.0216
     54 C          47.7726   11.5768  -22.8588 C.ar    1  UNL1        0.0085
     55 C          48.6417   10.7659  -23.5979 C.ar    1  UNL1        0.0762
     56 CL         48.8972   11.1725  -25.2909 Cl      1  UNL1       -0.0809
     57 C          46.6035   12.2825  -20.7639 C.3     1  UNL1        0.0224
     58 C          46.7696   12.3104  -19.2507 C.3     1  UNL1        0.0047
     59 C          45.5048   11.7261  -19.8682 C.3     1  UNL1        0.0047
@<TRIPOS>BOND
     1     2     3    1
     2     3     4   ar
     3     4     5    1
     4     4     6   ar
     5     6     1    1
     6     1    31    1
     7    31    32   ar
     8    32    33   ar
     9    33    34   ar
    10    34    37    1
    11    37    38    2
    12    37    39   am
    13    39    41    1
    14    41    42    1
    15    41    43    1
    16    41    44    1
    17    34    35   ar
    18    35    36   ar
    19    36    45    1
    20    45    47    1
    21    47    48    2
    22    47    49    2
    23    47    50    1
    24    50    51   ar
    25    51    52   ar
    26    52    53   ar
    27    53    57    1
    28    57    58    1
    29    58    59    1
    30    53    54   ar
    31    54    55   ar
    32    55    56    1
    33     6     7   ar
    34     7     8   ar
    35     8     9    1
    36     8    10   ar
    37    10    11    1
    38    11    12    1
    39    12    13    2
    40    12    14    1
    41    14    15    1
    42    15    16    1
    43    16    17    1
    44    17    27    1
    45    27    28    2
    46    27    29    1
    47    17    18    1
    48    18    19    1
    49    18    20    1
    50    20    21    1
    51    20    22    1
    52    22    23    1
    53    10     3   ar
    54    22    15    1
    55    36    31   ar
    56    55    50   ar
    57    59    57    1
    58    39    40    1
    59    45    46    1
    60    29    30    1
    61    19    24    1
    62    21    25    1
    63    23    26    1
@<TRIPOS>MOLECULE
*****
 59 63 0 0 0
SMALL
GASTEIGER

@<TRIPOS>ATOM
      1 O          51.0263   13.3459  -22.6427 O.3     1  UNL1       -0.4513
      2 C          50.1888   15.9201  -26.8240 C.3     1  UNL1        0.0318
      3 C          49.9393   15.6903  -25.3485 C.ar    1  UNL1       -0.0096
      4 C          50.5972   14.6182  -24.6972 C.ar    1  UNL1        0.0880
      5 CL         51.6220   13.5009  -25.6088 Cl      1  UNL1       -0.0794
      6 C          50.3693   14.3752  -23.3287 C.ar    1  UNL1        0.1577
      7 C          49.4349   15.1389  -22.6352 C.ar    1  UNL1        0.0676
      8 C          48.7457   16.1680  -23.2698 C.ar    1  UNL1        0.1395
      9 F          47.8300   16.8687  -22.5529 F       1  UNL1       -0.2044
     10 C          48.9901   16.4683  -24.6243 C.ar    1  UNL1        0.0135
     11 C          48.1941   17.5810  -25.2793 C.3     1  UNL1        0.1379
     12 C          46.8039   17.1253  -25.5937 C.2     1  UNL1        0.3234
     13 O          45.9870   17.9287  -26.1201 O.2     1  UNL1       -0.2497
     14 O          46.4169   15.8208  -25.2663 O.3     1  UNL1       -0.4215
     15 C          45.7479   14.9412  -26.1713 C.3     1  UNL1        0.3207
     16 O          44.7206   14.2407  -25.4751 O.3     1  UNL1       -0.3070
     17 C          45.1714   13.0597  -24.8263 C.3     1  UNL1        0.2456
     18 C          45.6720   11.9927  -25.8472 C.3     1  UNL1        0.1781
     19 O          44.6401   11.0838  -26.1382 O.3     1  UNL1       -0.3790
     20 C          46.1271   12.6494  -27.1671 C.3     1  UNL1        0.1733
     21 O          47.0042   11.8028  -27.8693 O.3     1  UNL1       -0.3793
     22 C          46.7652   14.0210  -26.8999 C.3     1  UNL1        0.2106
     23 O          47.1512   14.6148  -28.1136 O.3     1  UNL1       -0.3766
     24 H          44.5750   10.4630  -25.3657 H       1  UNL1        0.2106
     25 H          47.8364   11.7182  -27.3338 H       1  UNL1        0.2105
     26 H          48.0384   14.2384  -28.3523 H       1  UNL1        0.2107
     27 C          46.1494   13.3691  -23.7127 C.2     1  UNL1        0.3439
     28 O          47.0184   12.5124  -23.3982 O.2     1  UNL1       -0.2475
     29 O          46.0912   14.5726  -23.0150 O.3     1  UNL1       -0.4785
     30 H          46.7584   14.7818  -22.2834 H       1  UNL1        0.2951
     31 C          51.0239   13.1910  -21.2475 C.ar    1  UNL1        0.1598
     32 C          52.0471   13.7401  -20.4534 C.ar    1  UNL1        0.0390
     33 C          52.0611   13.5342  -19.0735 C.ar    1  UNL1        0.0077
     34 C          51.0413   12.7959  -18.4581 C.ar    1  UNL1        0.0548
     35 C          49.9770   12.3199  -19.2379 C.ar    1  UNL1        0.0235
     36 C          49.9750   12.4775  -20.6364 C.ar    1  UNL1        0.0993
     37 C          51.1022   12.4996  -17.0096 C.2     1  UNL1        0.2458
     38 O          52.1643   12.0271  -16.5224 O.2     1  UNL1       -0.2701
     39 N          49.9444   12.7087  -16.1754 N.am    1  UNL1       -0.3040
     40 H          49.0420   12.9181  -16.6596 H       1  UNL1        0.1496
     41 C          49.9300   12.6151  -14.7029 C.3     1  UNL1        0.0572
     42 C          48.6734   13.3323  -14.1668 C.3     1  UNL1        0.0196
     43 C          49.8740   11.1392  -14.2645 C.3     1  UNL1        0.0196
     44 C          51.1750   13.3053  -14.1129 C.3     1  UNL1        0.0196
     45 N          48.9541   11.8669  -21.4517 N.pl3   1  UNL1       -0.2120
     46 H          48.1857   12.4548  -21.8441 H       1  UNL1        0.1738
     47 S          48.9968   10.2053  -21.9618 S.O2    1  UNL1        0.0745
     48 O          49.9496    9.4700  -21.0618 O.2     1  UNL1       -0.1499
     49 O          47.6245    9.6100  -21.8225 O.2     1  UNL1       -0.1499
     50 C          49.4957   10.0909  -23.6602 C.ar    1  UNL1        0.1356
     51 C          49.2142   11.1643  -24.5166 C.ar    1  UNL1        0.0207
     52 C          49.6979   11.1802  -25.8254 C.ar    1  UNL1       -0.0028
     53 C          50.4530   10.0987  -26.3215 C.ar    1  UNL1       -0.0216
     54 C          50.6825    8.9995  -25.4809 C.ar    1  UNL1        0.0085
     55 C          50.2100    8.9837  -24.1635 C.ar    1  UNL1        0.0762
     56 CL         50.5331    7.5491  -23.1968 Cl      1  UNL1       -0.0809
     57 C          51.0617   10.0612  -27.7130 C.3     1  UNL1        0.0224
     58 C          52.3050    9.1960  -27.8671 C.3     1  UNL1        0.0047
     59 C          52.4190   10.7140  -27.9379 C.3     1  UNL1        0.0047
@<TRIPOS>BOND
     1     2     3    1
     2     3     4   ar
     3     4     5    1
     4     4     6   ar
     5     6     1    1
     6     1    31    1
     7    31    32   ar
     8    32    33   ar
     9    33    34   ar
    10    34    37    1
    11    37    38    2
    12    37    39   am
    13    39    41    1
    14    41    42    1
    15    41    43    1
    16    41    44    1
    17    34    35   ar
    18    35    36   ar
    19    36    45    1
    20    45    47    1
    21    47    48    2
    22    47    49    2
    23    47    50    1
    24    50    51   ar
    25    51    52   ar
    26    52    53   ar
    27    53    57    1
    28    57    58    1
    29    58    59    1
    30    53    54   ar
    31    54    55   ar
    32    55    56    1
    33     6     7   ar
    34     7     8   ar
    35     8     9    1
    36     8    10   ar
    37    10    11    1
    38    11    12    1
    39    12    13    2
    40    12    14    1
    41    14    15    1
    42    15    16    1
    43    16    17    1
    44    17    27    1
    45    27    28    2
    46    27    29    1
    47    17    18    1
    48    18    19    1
    49    18    20    1
    50    20    21    1
    51    20    22    1
    52    22    23    1
    53    10     3   ar
    54    22    15    1
    55    36    31   ar
    56    55    50   ar
    57    59    57    1
    58    39    40    1
    59    45    46    1
    60    29    30    1
    61    19    24    1
    62    21    25    1
    63    23    26    1
@<TRIPOS>MOLECULE
*****
 59 63 0 0 0
SMALL
GASTEIGER

@<TRIPOS>ATOM
      1 O          53.2007   12.6791  -24.5051 O.3     1  UNL1       -0.4513
      2 C          49.0004   15.0030  -23.1753 C.3     1  UNL1        0.0318
      3 C          50.2828   14.2890  -22.8041 C.ar    1  UNL1       -0.0096
      4 C          51.1304   13.8144  -23.8350 C.ar    1  UNL1        0.0880
      5 CL         50.6574   13.9643  -25.5330 Cl      1  UNL1       -0.0794
      6 C          52.3212   13.1338  -23.5144 C.ar    1  UNL1        0.1577
      7 C          52.6245   12.8562  -22.1847 C.ar    1  UNL1        0.0676
      8 C          51.7811   13.2755  -21.1603 C.ar    1  UNL1        0.1395
      9 F          52.1131   12.9605  -19.8821 F       1  UNL1       -0.2044
     10 C          50.6093   14.0033  -21.4467 C.ar    1  UNL1        0.0135
     11 C          49.7078   14.4146  -20.2983 C.3     1  UNL1        0.1379
     12 C          49.3404   13.2300  -19.4612 C.2     1  UNL1        0.3234
     13 O          48.8803   12.1935  -20.0126 O.2     1  UNL1       -0.2497
     14 O          49.4793   13.3006  -18.0704 O.3     1  UNL1       -0.4215
     15 C          50.0420   12.2559  -17.2753 C.3     1  UNL1        0.3207
     16 O          49.0237   11.6845  -16.4585 O.3     1  UNL1       -0.3070
     17 C          48.8243   12.3688  -15.2294 C.3     1  UNL1        0.2456
     18 C          50.0797   12.2837  -14.3085 C.3     1  UNL1        0.1781
     19 O          49.9381   11.2215  -13.3988 O.3     1  UNL1       -0.3790
     20 C          51.3640   12.0504  -15.1310 C.3     1  UNL1        0.1733
     21 O          52.5006   12.4542  -14.4070 O.3     1  UNL1       -0.3793
     22 C          51.2787   12.7675  -16.4869 C.3     1  UNL1        0.2106
     23 O          52.4450   12.5244  -17.2320 O.3     1  UNL1       -0.3766
     24 H          49.3129   11.5285  -12.6907 H       1  UNL1        0.2106
     25 H          52.4531   13.4398  -14.2944 H       1  UNL1        0.2105
     26 H          53.1290   13.1736  -16.9215 H       1  UNL1        0.2107
     27 C          48.3003   13.7726  -15.4467 C.2     1  UNL1        0.3439
     28 O          48.5962   14.6770  -14.6206 O.2     1  UNL1       -0.2475
     29 O          47.4793   14.0768  -16.5293 O.3     1  UNL1       -0.4785
     30 H          47.1463   15.0204  -16.6798 H       1  UNL1        0.2951
     31 C          52.8518   11.7859  -25.5303 C.ar    1  UNL1        0.1598
     32 C          53.1167   12.0875  -26.8787 C.ar    1  UNL1        0.0390
     33 C          52.7176   11.2150  -27.8916 C.ar    1  UNL1        0.0077
     34 C          52.0674   10.0146  -27.5758 C.ar    1  UNL1        0.0548
     35 C          51.8783    9.6744  -26.2282 C.ar    1  UNL1        0.0235
     36 C          52.2310   10.5665  -25.1983 C.ar    1  UNL1        0.0993
     37 C          51.5628    9.1319  -28.6508 C.2     1  UNL1        0.2458
     38 O          50.3229    8.9265  -28.7471 O.2     1  UNL1       -0.2701
     39 N          52.4840    8.4809  -29.5495 N.am    1  UNL1       -0.3040
     40 H          53.4997    8.5332  -29.3081 H       1  UNL1        0.1496
     41 C          52.1013    7.7219  -30.7557 C.3     1  UNL1        0.0572
     42 C          53.2381    6.7417  -31.1134 C.3     1  UNL1        0.0196
     43 C          50.8211    6.9076  -30.4875 C.3     1  UNL1        0.0196
     44 C          51.8911    8.6802  -31.9439 C.3     1  UNL1        0.0196
     45 N          51.9086   10.2783  -23.8225 N.pl3   1  UNL1       -0.2120
     46 H          52.5762   10.5504  -23.0674 H       1  UNL1        0.1738
     47 S          50.3808    9.6265  -23.3091 S.O2    1  UNL1        0.0745
     48 O          50.2810    8.2195  -23.8275 O.2     1  UNL1       -0.1499
     49 O          50.3316    9.6058  -21.8076 O.2     1  UNL1       -0.1499
     50 C          49.0462   10.6303  -23.9071 C.ar    1  UNL1        0.1356
     51 C          49.1561   11.2042  -25.1812 C.ar    1  UNL1        0.0207
     52 C          48.0839   11.8931  -25.7497 C.ar    1  UNL1       -0.0028
     53 C          46.8786   12.0527  -25.0374 C.ar    1  UNL1       -0.0216
     54 C          46.7923   11.5285  -23.7391 C.ar    1  UNL1        0.0085
     55 C          47.8604   10.8264  -23.1687 C.ar    1  UNL1        0.0762
     56 CL         47.6597   10.2264  -21.5266 Cl      1  UNL1       -0.0809
     57 C          45.6473   12.7396  -25.6034 C.3     1  UNL1        0.0224
     58 C          45.2649   14.0580  -24.9449 C.3     1  UNL1        0.0047
     59 C          44.3937   12.8241  -24.7432 C.3     1  UNL1        0.0047
@<TRIPOS>BOND
     1     2     3    1
     2     3     4   ar
     3     4     5    1
     4     4     6   ar
     5     6     1    1
     6     1    31    1
     7    31    32   ar
     8    32    33   ar
     9    33    34   ar
    10    34    37    1
    11    37    38    2
    12    37    39   am
    13    39    41    1
    14    41    42    1
    15    41    43    1
    16    41    44    1
    17    34    35   ar
    18    35    36   ar
    19    36    45    1
    20    45    47    1
    21    47    48    2
    22    47    49    2
    23    47    50    1
    24    50    51   ar
    25    51    52   ar
    26    52    53   ar
    27    53    57    1
    28    57    58    1
    29    58    59    1
    30    53    54   ar
    31    54    55   ar
    32    55    56    1
    33     6     7   ar
    34     7     8   ar
    35     8     9    1
    36     8    10   ar
    37    10    11    1
    38    11    12    1
    39    12    13    2
    40    12    14    1
    41    14    15    1
    42    15    16    1
    43    16    17    1
    44    17    27    1
    45    27    28    2
    46    27    29    1
    47    17    18    1
    48    18    19    1
    49    18    20    1
    50    20    21    1
    51    20    22    1
    52    22    23    1
    53    10     3   ar
    54    22    15    1
    55    36    31   ar
    56    55    50   ar
    57    59    57    1
    58    39    40    1
    59    45    46    1
    60    29    30    1
    61    19    24    1
    62    21    25    1
    63    23    26    1
@<TRIPOS>MOLECULE
*****
 59 63 0 0 0
SMALL
GASTEIGER

@<TRIPOS>ATOM
      1 O          49.0294   11.0863  -23.2540 O.3     1  UNL1       -0.4513
      2 C          45.5500   12.0474  -19.8215 C.3     1  UNL1        0.0318
      3 C          46.9110   11.5013  -20.1979 C.ar    1  UNL1       -0.0096
      4 C          47.3206   11.5459  -21.5532 C.ar    1  UNL1        0.0880
      5 CL         46.2249   12.1412  -22.8081 Cl      1  UNL1       -0.0794
      6 C          48.5759   11.0301  -21.9300 C.ar    1  UNL1        0.1577
      7 C          49.3802   10.4027  -20.9831 C.ar    1  UNL1        0.0676
      8 C          48.9747   10.3095  -19.6551 C.ar    1  UNL1        0.1395
      9 F          49.7876    9.6691  -18.7762 F       1  UNL1       -0.2044
     10 C          47.7477   10.8618  -19.2378 C.ar    1  UNL1        0.0135
     11 C          47.3367   10.7108  -17.7857 C.3     1  UNL1        0.1379
     12 C          47.7917   11.8867  -16.9799 C.2     1  UNL1        0.3234
     13 O          47.6343   13.0531  -17.4326 O.2     1  UNL1       -0.2497
     14 O          48.4196   11.6747  -15.7473 O.3     1  UNL1       -0.4215
     15 C          49.8146   11.4032  -15.6039 C.3     1  UNL1        0.3207
     16 O          50.1343   11.2964  -14.2193 O.3     1  UNL1       -0.3070
     17 C          50.4208   12.5427  -13.6001 C.3     1  UNL1        0.2456
     18 C          51.7047   13.2017  -14.1906 C.3     1  UNL1        0.1781
     19 O          52.8181   12.8858  -13.3929 O.3     1  UNL1       -0.3790
     20 C          51.9798   12.7067  -15.6258 C.3     1  UNL1        0.1733
     21 O          52.7970   13.6176  -16.3198 O.3     1  UNL1       -0.3793
     22 C          50.6629   12.4517  -16.3745 C.3     1  UNL1        0.2106
     23 O          50.9318   11.9786  -17.6701 O.3     1  UNL1       -0.3766
     24 H          52.7690   13.4632  -12.5862 H       1  UNL1        0.2106
     25 H          52.2796   14.4566  -16.4410 H       1  UNL1        0.2105
     26 H          51.1113   12.7729  -18.2381 H       1  UNL1        0.2107
     27 C          49.2076   13.4481  -13.5723 C.2     1  UNL1        0.3439
     28 O          49.3631   14.6929  -13.6918 O.2     1  UNL1       -0.2475
     29 O          47.9265   12.9327  -13.3943 O.3     1  UNL1       -0.4785
     30 H          47.1173   13.5404  -13.3943 H       1  UNL1        0.2951
     31 C          49.2625   12.2735  -23.9659 C.ar    1  UNL1        0.1598
     32 C          50.2244   13.2041  -23.5325 C.ar    1  UNL1        0.0390
     33 C          50.4094   14.4043  -24.2195 C.ar    1  UNL1        0.0077
     34 C          49.6537   14.6872  -25.3652 C.ar    1  UNL1        0.0548
     35 C          48.7546   13.7236  -25.8454 C.ar    1  UNL1        0.0235
     36 C          48.5222   12.5307  -25.1357 C.ar    1  UNL1        0.0993
     37 C          49.7833   15.9965  -26.0423 C.2     1  UNL1        0.2458
     38 O          50.6781   16.1512  -26.9165 O.2     1  UNL1       -0.2701
     39 N          48.9234   17.0941  -25.6735 N.am    1  UNL1       -0.3040
     40 H          48.3344   16.9693  -24.8190 H       1  UNL1        0.1496
     41 C          48.8391   18.3839  -26.3853 C.3     1  UNL1        0.0572
     42 C          47.9869   18.1996  -27.6583 C.3     1  UNL1        0.0196
     43 C          48.1609   19.4406  -25.4926 C.3     1  UNL1        0.0196
     44 C          50.2456   18.8546  -26.8034 C.3     1  UNL1        0.0196
     45 N          47.4975   11.6054  -25.5526 N.pl3   1  UNL1       -0.2120
     46 H          47.6088   10.5867  -25.3532 H       1  UNL1        0.1738
     47 S          45.9828   12.0981  -26.2497 S.O2    1  UNL1        0.0745
     48 O          44.9344   11.1098  -25.8225 O.2     1  UNL1       -0.1499
     49 O          45.6198   13.4606  -25.7311 O.2     1  UNL1       -0.1499
     50 C          46.1110   12.1788  -28.0170 C.ar    1  UNL1        0.1356
     51 C          46.4001   11.0034  -28.7239 C.ar    1  UNL1        0.0207
     52 C          46.3837   10.9861  -30.1191 C.ar    1  UNL1       -0.0028
     53 C          46.1075   12.1618  -30.8453 C.ar    1  UNL1       -0.0216
     54 C          45.8770   13.3497  -30.1358 C.ar    1  UNL1        0.0085
     55 C          45.8804   13.3701  -28.7362 C.ar    1  UNL1        0.0762
     56 CL         45.6010   14.9149  -27.9410 Cl      1  UNL1       -0.0809
     57 C          46.0163   12.2168  -32.3607 C.3     1  UNL1        0.0224
     58 C          45.9697   13.6116  -32.9695 C.3     1  UNL1        0.0047
     59 C          44.7310   12.7246  -33.0004 C.3     1  UNL1        0.0047
@<TRIPOS>BOND
     1     2     3    1
     2     3     4   ar
     3     4     5    1
     4     4     6   ar
     5     6     1    1
     6     1    31    1
     7    31    32   ar
     8    32    33   ar
     9    33    34   ar
    10    34    37    1
    11    37    38    2
    12    37    39   am
    13    39    41    1
    14    41    42    1
    15    41    43    1
    16    41    44    1
    17    34    35   ar
    18    35    36   ar
    19    36    45    1
    20    45    47    1
    21    47    48    2
    22    47    49    2
    23    47    50    1
    24    50    51   ar
    25    51    52   ar
    26    52    53   ar
    27    53    57    1
    28    57    58    1
    29    58    59    1
    30    53    54   ar
    31    54    55   ar
    32    55    56    1
    33     6     7   ar
    34     7     8   ar
    35     8     9    1
    36     8    10   ar
    37    10    11    1
    38    11    12    1
    39    12    13    2
    40    12    14    1
    41    14    15    1
    42    15    16    1
    43    16    17    1
    44    17    27    1
    45    27    28    2
    46    27    29    1
    47    17    18    1
    48    18    19    1
    49    18    20    1
    50    20    21    1
    51    20    22    1
    52    22    23    1
    53    10     3   ar
    54    22    15    1
    55    36    31   ar
    56    55    50   ar
    57    59    57    1
    58    39    40    1
    59    45    46    1
    60    29    30    1
    61    19    24    1
    62    21    25    1
    63    23    26    1
@<TRIPOS>MOLECULE
*****
 59 63 0 0 0
SMALL
GASTEIGER

@<TRIPOS>ATOM
      1 O          51.6030   11.4115  -22.9775 O.3     1  UNL1       -0.4513
      2 C          47.1219    9.9016  -21.4120 C.3     1  UNL1        0.0318
      3 C          48.1666   10.9875  -21.5598 C.ar    1  UNL1       -0.0096
      4 C          49.3957   10.6795  -22.1929 C.ar    1  UNL1        0.0880
      5 CL         49.7509    9.0283  -22.7194 Cl      1  UNL1       -0.0794
      6 C          50.3888   11.6690  -22.3284 C.ar    1  UNL1        0.1577
      7 C          50.1943   12.9279  -21.7677 C.ar    1  UNL1        0.0676
      8 C          49.0110   13.2351  -21.1028 C.ar    1  UNL1        0.1395
      9 F          48.8808   14.4711  -20.5561 F       1  UNL1       -0.2044
     10 C          47.9784   12.2827  -20.9961 C.ar    1  UNL1        0.0135
     11 C          46.7186   12.6553  -20.2382 C.3     1  UNL1        0.1379
     12 C          46.8292   12.2625  -18.7985 C.2     1  UNL1        0.3234
     13 O          45.9471   11.5237  -18.2827 O.2     1  UNL1       -0.2497
     14 O          47.8939   12.7501  -18.0321 O.3     1  UNL1       -0.4215
     15 C          48.7451   11.9216  -17.2391 C.3     1  UNL1        0.3207
     16 O          48.2115   11.8216  -15.9215 O.3     1  UNL1       -0.3070
     17 C          48.6127   12.8775  -15.0596 C.3     1  UNL1        0.2456
     18 C          50.1502   12.8617  -14.8006 C.3     1  UNL1        0.1781
     19 O          50.4297   12.1771  -13.6052 O.3     1  UNL1       -0.3790
     20 C          50.9054   12.1612  -15.9492 C.3     1  UNL1        0.1733
     21 O          52.2536   12.5619  -15.9775 O.3     1  UNL1       -0.3793
     22 C          50.2135   12.4252  -17.2951 C.3     1  UNL1        0.2106
     23 O          50.8997   11.7604  -18.3255 O.3     1  UNL1       -0.3766
     24 H          50.2071   12.7942  -12.8595 H       1  UNL1        0.2106
     25 H          52.2778   13.5258  -16.2155 H       1  UNL1        0.2105
     26 H          51.6591   12.3421  -18.5916 H       1  UNL1        0.2107
     27 C          48.0679   14.2140  -15.5175 C.2     1  UNL1        0.3439
     28 O          48.5704   15.2752  -15.0601 O.2     1  UNL1       -0.2475
     29 O          47.0075   14.2912  -16.4165 O.3     1  UNL1       -0.4785
     30 H          46.6588   15.1869  -16.7329 H       1  UNL1        0.2951
     31 C          51.7224   11.0494  -24.3285 C.ar    1  UNL1        0.1598
     32 C          51.6375    9.7040  -24.7308 C.ar    1  UNL1        0.0390
     33 C          51.8102    9.3524  -26.0698 C.ar    1  UNL1        0.0077
     34 C          52.0478   10.3398  -27.0354 C.ar    1  UNL1        0.0548
     35 C          52.0489   11.6878  -26.6478 C.ar    1  UNL1        0.0235
     36 C          51.9254   12.0537  -25.2944 C.ar    1  UNL1        0.0993
     37 C          52.3213    9.9622  -28.4398 C.2     1  UNL1        0.2458
     38 O          52.9926   10.7426  -29.1672 O.2     1  UNL1       -0.2701
     39 N          51.7881    8.7358  -28.9800 N.am    1  UNL1       -0.3040
     40 H          51.0865    8.2257  -28.3968 H       1  UNL1        0.1496
     41 C          52.1288    8.1696  -30.2993 C.3     1  UNL1        0.0572
     42 C          51.0586    7.1291  -30.6903 C.3     1  UNL1        0.0196
     43 C          52.1429    9.2802  -31.3670 C.3     1  UNL1        0.0196
     44 C          53.4971    7.4634  -30.2388 C.3     1  UNL1        0.0196
     45 N          52.0675   13.4277  -24.8799 N.pl3   1  UNL1       -0.2120
     46 H          52.9591   13.7449  -24.4390 H       1  UNL1        0.1738
     47 S          50.8832   14.6580  -25.2063 S.O2    1  UNL1        0.0745
     48 O          51.1359   15.8034  -24.2668 O.2     1  UNL1       -0.1499
     49 O          51.0425   15.1343  -26.6222 O.2     1  UNL1       -0.1499
     50 C          49.2444   14.0094  -25.0064 C.ar    1  UNL1        0.1356
     51 C          48.9578   12.7377  -25.5216 C.ar    1  UNL1        0.0207
     52 C          47.7258   12.1291  -25.2788 C.ar    1  UNL1       -0.0028
     53 C          46.7322   12.7979  -24.5364 C.ar    1  UNL1       -0.0216
     54 C          47.0003   14.0944  -24.0727 C.ar    1  UNL1        0.0085
     55 C          48.2386   14.7048  -24.3031 C.ar    1  UNL1        0.0762
     56 CL         48.4682   16.3412  -23.6978 Cl      1  UNL1       -0.0809
     57 C          45.3878   12.1862  -24.1810 C.3     1  UNL1        0.0224
     58 C          44.4622   11.8977  -25.3551 C.3     1  UNL1        0.0047
     59 C          44.1279   13.0185  -24.3781 C.3     1  UNL1        0.0047
@<TRIPOS>BOND
     1     2     3    1
     2     3     4   ar
     3     4     5    1
     4     4     6   ar
     5     6     1    1
     6     1    31    1
     7    31    32   ar
     8    32    33   ar
     9    33    34   ar
    10    34    37    1
    11    37    38    2
    12    37    39   am
    13    39    41    1
    14    41    42    1
    15    41    43    1
    16    41    44    1
    17    34    35   ar
    18    35    36   ar
    19    36    45    1
    20    45    47    1
    21    47    48    2
    22    47    49    2
    23    47    50    1
    24    50    51   ar
    25    51    52   ar
    26    52    53   ar
    27    53    57    1
    28    57    58    1
    29    58    59    1
    30    53    54   ar
    31    54    55   ar
    32    55    56    1
    33     6     7   ar
    34     7     8   ar
    35     8     9    1
    36     8    10   ar
    37    10    11    1
    38    11    12    1
    39    12    13    2
    40    12    14    1
    41    14    15    1
    42    15    16    1
    43    16    17    1
    44    17    27    1
    45    27    28    2
    46    27    29    1
    47    17    18    1
    48    18    19    1
    49    18    20    1
    50    20    21    1
    51    20    22    1
    52    22    23    1
    53    10     3   ar
    54    22    15    1
    55    36    31   ar
    56    55    50   ar
    57    59    57    1
    58    39    40    1
    59    45    46    1
    60    29    30    1
    61    19    24    1
    62    21    25    1
    63    23    26    1
@<TRIPOS>MOLECULE
*****
 59 63 0 0 0
SMALL
GASTEIGER

@<TRIPOS>ATOM
      1 O          50.2280   11.5422  -24.2534 O.3     1  UNL1       -0.4513
      2 C          47.5656    8.9409  -20.9434 C.3     1  UNL1        0.0318
      3 C          47.8556   10.2361  -21.6717 C.ar    1  UNL1       -0.0096
      4 C          48.9133   10.2754  -22.6131 C.ar    1  UNL1        0.0880
      5 CL         49.9467    8.8625  -22.8690 Cl      1  UNL1       -0.0794
      6 C          49.2118   11.4728  -23.2919 C.ar    1  UNL1        0.1577
      7 C          48.5197   12.6388  -22.9779 C.ar    1  UNL1        0.0676
      8 C          47.5072   12.6296  -22.0233 C.ar    1  UNL1        0.1395
      9 F          46.8778   13.7987  -21.7397 F       1  UNL1       -0.2044
     10 C          47.1509   11.4361  -21.3649 C.ar    1  UNL1        0.0135
     11 C          46.0597   11.4821  -20.3125 C.3     1  UNL1        0.1379
     12 C          46.5693   12.0941  -19.0456 C.2     1  UNL1        0.3234
     13 O          45.8186   12.8496  -18.3705 O.2     1  UNL1       -0.2497
     14 O          47.8871   11.8476  -18.6439 O.3     1  UNL1       -0.4215
     15 C          48.5685   12.6111  -17.6474 C.3     1  UNL1        0.3207
     16 O          49.5727   13.4084  -18.2691 O.3     1  UNL1       -0.3070
     17 C          50.8103   12.7337  -18.4478 C.3     1  UNL1        0.2456
     18 C          51.4714   12.3650  -17.0847 C.3     1  UNL1        0.1781
     19 O          52.4018   13.3530  -16.7184 O.3     1  UNL1       -0.3790
     20 C          50.4181   12.2505  -15.9632 C.3     1  UNL1        0.1733
     21 O          50.9042   11.4680  -14.8999 O.3     1  UNL1       -0.3793
     22 C          49.0973   11.6911  -16.5131 C.3     1  UNL1        0.2106
     23 O          48.1429   11.6166  -15.4845 O.3     1  UNL1       -0.3766
     24 H          53.2145   13.2035  -17.2695 H       1  UNL1        0.2106
     25 H          51.0141   10.5390  -15.2337 H       1  UNL1        0.2105
     26 H          48.3086   10.7688  -14.9950 H       1  UNL1        0.2107
     27 C          50.6846   11.5770  -19.4167 C.2     1  UNL1        0.3439
     28 O          50.9188   11.7679  -20.6401 O.2     1  UNL1       -0.2475
     29 O          50.2929   10.3128  -18.9842 O.3     1  UNL1       -0.4785
     30 H          50.2276    9.5389  -19.6329 H       1  UNL1        0.2951
     31 C          50.2529   10.7939  -25.4408 C.ar    1  UNL1        0.1598
     32 C          51.4346   10.1725  -25.8839 C.ar    1  UNL1        0.0390
     33 C          51.4588    9.4758  -27.0925 C.ar    1  UNL1        0.0077
     34 C          50.2977    9.3670  -27.8695 C.ar    1  UNL1        0.0548
     35 C          49.0997    9.9144  -27.3875 C.ar    1  UNL1        0.0235
     36 C          49.0713   10.6616  -26.1952 C.ar    1  UNL1        0.0993
     37 C          50.3428    8.7073  -29.1933 C.2     1  UNL1        0.2458
     38 O          49.2778    8.5852  -29.8564 O.2     1  UNL1       -0.2701
     39 N          51.5837    8.1723  -29.6973 N.am    1  UNL1       -0.3040
     40 H          52.3881    8.1306  -29.0310 H       1  UNL1        0.1496
     41 C          51.7922    7.6504  -31.0617 C.3     1  UNL1        0.0572
     42 C          53.0817    6.8034  -31.0833 C.3     1  UNL1        0.0196
     43 C          50.6107    6.7513  -31.4733 C.3     1  UNL1        0.0196
     44 C          51.9559    8.8143  -32.0581 C.3     1  UNL1        0.0196
     45 N          47.8720   11.3421  -25.7729 N.pl3   1  UNL1       -0.2120
     46 H          47.5285   11.2244  -24.7940 H       1  UNL1        0.1738
     47 S          47.0194   12.4907  -26.7611 S.O2    1  UNL1        0.0745
     48 O          47.0278   11.9803  -28.1745 O.2     1  UNL1       -0.1499
     49 O          45.5996   12.5976  -26.2816 O.2     1  UNL1       -0.1499
     50 C          47.7787   14.0897  -26.6483 C.ar    1  UNL1        0.1356
     51 C          48.9630   14.2203  -25.9099 C.ar    1  UNL1        0.0207
     52 C          49.6681   15.4244  -25.8971 C.ar    1  UNL1       -0.0028
     53 C          49.1834   16.5441  -26.6020 C.ar    1  UNL1       -0.0216
     54 C          47.9673   16.4276  -27.2913 C.ar    1  UNL1        0.0085
     55 C          47.2620   15.2189  -27.3174 C.ar    1  UNL1        0.0762
     56 CL         45.7361   15.1819  -28.1933 Cl      1  UNL1       -0.0809
     57 C          49.9160   17.8725  -26.6846 C.3     1  UNL1        0.0224
     58 C          49.4138   18.9632  -25.7485 C.3     1  UNL1        0.0047
     59 C          49.1823   19.0811  -27.2500 C.3     1  UNL1        0.0047
@<TRIPOS>BOND
     1     2     3    1
     2     3     4   ar
     3     4     5    1
     4     4     6   ar
     5     6     1    1
     6     1    31    1
     7    31    32   ar
     8    32    33   ar
     9    33    34   ar
    10    34    37    1
    11    37    38    2
    12    37    39   am
    13    39    41    1
    14    41    42    1
    15    41    43    1
    16    41    44    1
    17    34    35   ar
    18    35    36   ar
    19    36    45    1
    20    45    47    1
    21    47    48    2
    22    47    49    2
    23    47    50    1
    24    50    51   ar
    25    51    52   ar
    26    52    53   ar
    27    53    57    1
    28    57    58    1
    29    58    59    1
    30    53    54   ar
    31    54    55   ar
    32    55    56    1
    33     6     7   ar
    34     7     8   ar
    35     8     9    1
    36     8    10   ar
    37    10    11    1
    38    11    12    1
    39    12    13    2
    40    12    14    1
    41    14    15    1
    42    15    16    1
    43    16    17    1
    44    17    27    1
    45    27    28    2
    46    27    29    1
    47    17    18    1
    48    18    19    1
    49    18    20    1
    50    20    21    1
    51    20    22    1
    52    22    23    1
    53    10     3   ar
    54    22    15    1
    55    36    31   ar
    56    55    50   ar
    57    59    57    1
    58    39    40    1
    59    45    46    1
    60    29    30    1
    61    19    24    1
    62    21    25    1
    63    23    26    1
@<TRIPOS>MOLECULE
*****
 59 63 0 0 0
SMALL
GASTEIGER

@<TRIPOS>ATOM
      1 O          48.3802   10.7581  -22.4917 O.3     1  UNL1       -0.4513
      2 C          44.3869   13.1487  -24.2664 C.3     1  UNL1        0.0318
      3 C          45.7275   12.4816  -24.4897 C.ar    1  UNL1       -0.0096
      4 C          46.4226   11.9430  -23.3792 C.ar    1  UNL1        0.0880
      5 CL         45.7855   12.1285  -21.7392 Cl      1  UNL1       -0.0794
      6 C          47.6783   11.3311  -23.5598 C.ar    1  UNL1        0.1577
      7 C          48.2734   11.3280  -24.8179 C.ar    1  UNL1        0.0676
      8 C          47.6254   11.8922  -25.9126 C.ar    1  UNL1        0.1395
      9 F          48.2592   11.8810  -27.1133 F       1  UNL1       -0.2044
     10 C          46.3460   12.4655  -25.7734 C.ar    1  UNL1        0.0135
     11 C          45.6920   13.0925  -26.9898 C.3     1  UNL1        0.1379
     12 C          46.1702   14.4969  -27.1851 C.2     1  UNL1        0.3234
     13 O          45.6976   15.1930  -28.1243 O.2     1  UNL1       -0.2497
     14 O          47.1636   15.0089  -26.3428 O.3     1  UNL1       -0.4215
     15 C          48.3108   15.7200  -26.8101 C.3     1  UNL1        0.3207
     16 O          49.3577   15.6092  -25.8498 O.3     1  UNL1       -0.3070
     17 C          49.2991   16.5897  -24.8231 C.3     1  UNL1        0.2456
     18 C          49.5097   18.0293  -25.3839 C.3     1  UNL1        0.1781
     19 O          50.8586   18.4032  -25.2554 O.3     1  UNL1       -0.3790
     20 C          49.1229   18.1125  -26.8752 C.3     1  UNL1        0.1733
     21 O          48.8409   19.4404  -27.2443 O.3     1  UNL1       -0.3793
     22 C          47.9401   17.1817  -27.1826 C.3     1  UNL1        0.2106
     23 O          47.6173   17.2516  -28.5485 O.3     1  UNL1       -0.3766
     24 H          51.0027   18.6430  -24.3024 H       1  UNL1        0.2106
     25 H          48.0214   19.7218  -26.7588 H       1  UNL1        0.2105
     26 H          47.0348   18.0465  -28.6692 H       1  UNL1        0.2107
     27 C          48.0650   16.4271  -23.9611 C.2     1  UNL1        0.3439
     28 O          47.3845   17.4437  -23.6588 O.2     1  UNL1       -0.2475
     29 O          47.6818   15.1789  -23.4777 O.3     1  UNL1       -0.4785
     30 H          46.8463   15.0731  -22.9168 H       1  UNL1        0.2951
     31 C          48.4230   11.2871  -21.1921 C.ar    1  UNL1        0.1598
     32 C          47.8839   10.5807  -20.1015 C.ar    1  UNL1        0.0390
     33 C          47.8858   11.1407  -18.8237 C.ar    1  UNL1        0.0077
     34 C          48.4469   12.4064  -18.6069 C.ar    1  UNL1        0.0548
     35 C          49.0593   13.0744  -19.6775 C.ar    1  UNL1        0.0235
     36 C          49.0213   12.5441  -20.9806 C.ar    1  UNL1        0.0993
     37 C          48.3690   13.0405  -17.2722 C.2     1  UNL1        0.2458
     38 O          47.5121   13.9421  -17.0684 O.2     1  UNL1       -0.2701
     39 N          49.2924   12.6603  -16.2315 N.am    1  UNL1       -0.3040
     40 H          50.0965   12.0528  -16.5091 H       1  UNL1        0.1496
     41 C          49.2084   13.0900  -14.8224 C.3     1  UNL1        0.0572
     42 C          48.5632   11.9614  -13.9913 C.3     1  UNL1        0.0196
     43 C          50.6187   13.3619  -14.2646 C.3     1  UNL1        0.0196
     44 C          48.3292   14.3496  -14.7010 C.3     1  UNL1        0.0196
     45 N          49.5258   13.2951  -22.1037 N.pl3   1  UNL1       -0.2120
     46 H          48.9050   13.9811  -22.5875 H       1  UNL1        0.1738
     47 S          51.1827   13.2445  -22.6280 S.O2    1  UNL1        0.0745
     48 O          51.5576   14.6185  -23.1079 O.2     1  UNL1       -0.1499
     49 O          52.0578   12.8699  -21.4657 O.2     1  UNL1       -0.1499
     50 C          51.3910   12.0350  -23.9086 C.ar    1  UNL1        0.1356
     51 C          51.4593   10.6817  -23.5496 C.ar    1  UNL1        0.0207
     52 C          51.4922    9.6844  -24.5249 C.ar    1  UNL1       -0.0028
     53 C          51.4904   10.0222  -25.8930 C.ar    1  UNL1       -0.0216
     54 C          51.4819   11.3790  -26.2487 C.ar    1  UNL1        0.0085
     55 C          51.4368   12.3832  -25.2747 C.ar    1  UNL1        0.0762
     56 CL         51.4504   14.0551  -25.8236 Cl      1  UNL1       -0.0809
     57 C          51.4694    8.9990  -27.0158 C.3     1  UNL1        0.0224
     58 C          51.8171    9.5297  -28.3999 C.3     1  UNL1        0.0047
     59 C          50.3887    9.1034  -28.0835 C.3     1  UNL1        0.0047
@<TRIPOS>BOND
     1     2     3    1
     2     3     4   ar
     3     4     5    1
     4     4     6   ar
     5     6     1    1
     6     1    31    1
     7    31    32   ar
     8    32    33   ar
     9    33    34   ar
    10    34    37    1
    11    37    38    2
    12    37    39   am
    13    39    41    1
    14    41    42    1
    15    41    43    1
    16    41    44    1
    17    34    35   ar
    18    35    36   ar
    19    36    45    1
    20    45    47    1
    21    47    48    2
    22    47    49    2
    23    47    50    1
    24    50    51   ar
    25    51    52   ar
    26    52    53   ar
    27    53    57    1
    28    57    58    1
    29    58    59    1
    30    53    54   ar
    31    54    55   ar
    32    55    56    1
    33     6     7   ar
    34     7     8   ar
    35     8     9    1
    36     8    10   ar
    37    10    11    1
    38    11    12    1
    39    12    13    2
    40    12    14    1
    41    14    15    1
    42    15    16    1
    43    16    17    1
    44    17    27    1
    45    27    28    2
    46    27    29    1
    47    17    18    1
    48    18    19    1
    49    18    20    1
    50    20    21    1
    51    20    22    1
    52    22    23    1
    53    10     3   ar
    54    22    15    1
    55    36    31   ar
    56    55    50   ar
    57    59    57    1
    58    39    40    1
    59    45    46    1
    60    29    30    1
    61    19    24    1
    62    21    25    1
    63    23    26    1
@<TRIPOS>MOLECULE
*****
 59 63 0 0 0
SMALL
GASTEIGER

@<TRIPOS>ATOM
      1 O          49.2997   10.7910  -25.9881 O.3     1  UNL1       -0.4513
      2 C          50.5265   14.5162  -22.9174 C.3     1  UNL1        0.0318
      3 C          50.2544   13.0467  -23.1597 C.ar    1  UNL1       -0.0096
      4 C          49.8967   12.6177  -24.4614 C.ar    1  UNL1        0.0880
      5 CL         49.6749   13.7890  -25.7686 Cl      1  UNL1       -0.0794
      6 C          49.6240   11.2581  -24.7080 C.ar    1  UNL1        0.1577
      7 C          49.6267   10.3484  -23.6546 C.ar    1  UNL1        0.0676
      8 C          49.9320   10.7595  -22.3607 C.ar    1  UNL1        0.1395
      9 F          49.9001    9.8356  -21.3662 F       1  UNL1       -0.2044
     10 C          50.2597   12.1030  -22.0919 C.ar    1  UNL1        0.0135
     11 C          50.5583   12.5082  -20.6611 C.3     1  UNL1        0.1379
     12 C          49.2920   12.6790  -19.8823 C.2     1  UNL1        0.3234
     13 O          48.1823   12.6558  -20.4807 O.2     1  UNL1       -0.2497
     14 O          49.3576   12.8982  -18.5016 O.3     1  UNL1       -0.4215
     15 C          50.0473   12.0377  -17.5938 C.3     1  UNL1        0.3207
     16 O          49.1207   11.5094  -16.6488 O.3     1  UNL1       -0.3070
     17 C          48.9076   12.3508  -15.5240 C.3     1  UNL1        0.2456
     18 C          50.2014   12.5144  -14.6693 C.3     1  UNL1        0.1781
     19 O          50.1967   11.5929  -13.6079 O.3     1  UNL1       -0.3790
     20 C          51.4678   12.2724  -15.5167 C.3     1  UNL1        0.1733
     21 O          52.5898   12.8775  -14.9215 O.3     1  UNL1       -0.3793
     22 C          51.2613   12.7673  -16.9562 C.3     1  UNL1        0.2106
     23 O          52.4143   12.5170  -17.7194 O.3     1  UNL1       -0.3766
     24 H          49.5745   11.9474  -12.9197 H       1  UNL1        0.2106
     25 H          52.4546   13.8610  -14.9517 H       1  UNL1        0.2105
     26 H          53.0464   13.2624  -17.5442 H       1  UNL1        0.2107
     27 C          48.2460   13.6552  -15.9156 C.2     1  UNL1        0.3439
     28 O          48.4592   14.6876  -15.2252 O.2     1  UNL1       -0.2475
     29 O          47.3888   13.7293  -17.0103 O.3     1  UNL1       -0.4785
     30 H          46.9632   14.6074  -17.2784 H       1  UNL1        0.2951
     31 C          50.2143   10.2043  -26.8768 C.ar    1  UNL1        0.1598
     32 C          51.5949   10.4510  -26.7671 C.ar    1  UNL1        0.0390
     33 C          52.4881    9.9039  -27.6887 C.ar    1  UNL1        0.0077
     34 C          52.0218    9.0815  -28.7231 C.ar    1  UNL1        0.0548
     35 C          50.6560    8.7675  -28.7829 C.ar    1  UNL1        0.0235
     36 C          49.7376    9.3512  -27.8905 C.ar    1  UNL1        0.0993
     37 C          52.9546    8.5745  -29.7539 C.2     1  UNL1        0.2458
     38 O          52.6970    8.7787  -30.9707 O.2     1  UNL1       -0.2701
     39 N          54.1212    7.8183  -29.3700 N.am    1  UNL1       -0.3040
     40 H          54.1841    7.5171  -28.3710 H       1  UNL1        0.1496
     41 C          55.2071    7.4101  -30.2819 C.3     1  UNL1        0.0572
     42 C          55.9733    8.6672  -30.7441 C.3     1  UNL1        0.0196
     43 C          56.1932    6.4788  -29.5510 C.3     1  UNL1        0.0196
     44 C          54.6244    6.7092  -31.5242 C.3     1  UNL1        0.0196
     45 N          48.3189    9.1394  -28.0398 N.pl3   1  UNL1       -0.2120
     46 H          47.8138    8.5260  -27.3626 H       1  UNL1        0.1738
     47 S          47.3401    9.9732  -29.2101 S.O2    1  UNL1        0.0745
     48 O          48.1848   10.2179  -30.4287 O.2     1  UNL1       -0.1499
     49 O          46.1708    9.1070  -29.5837 O.2     1  UNL1       -0.1499
     50 C          46.7269   11.4943  -28.5344 C.ar    1  UNL1        0.1356
     51 C          46.7701   11.6779  -27.1453 C.ar    1  UNL1        0.0207
     52 C          46.4217   12.9029  -26.5752 C.ar    1  UNL1       -0.0028
     53 C          45.9876   13.9708  -27.3856 C.ar    1  UNL1       -0.0216
     54 C          45.8888   13.7652  -28.7697 C.ar    1  UNL1        0.0085
     55 C          46.2483   12.5423  -29.3481 C.ar    1  UNL1        0.0762
     56 CL         46.0684   12.3786  -31.0910 Cl      1  UNL1       -0.0809
     57 C          45.6430   15.3508  -26.8517 C.3     1  UNL1        0.0224
     58 C          45.3189   16.4038  -27.9025 C.3     1  UNL1        0.0047
     59 C          46.6126   16.4978  -27.1028 C.3     1  UNL1        0.0047
@<TRIPOS>BOND
     1     2     3    1
     2     3     4   ar
     3     4     5    1
     4     4     6   ar
     5     6     1    1
     6     1    31    1
     7    31    32   ar
     8    32    33   ar
     9    33    34   ar
    10    34    37    1
    11    37    38    2
    12    37    39   am
    13    39    41    1
    14    41    42    1
    15    41    43    1
    16    41    44    1
    17    34    35   ar
    18    35    36   ar
    19    36    45    1
    20    45    47    1
    21    47    48    2
    22    47    49    2
    23    47    50    1
    24    50    51   ar
    25    51    52   ar
    26    52    53   ar
    27    53    57    1
    28    57    58    1
    29    58    59    1
    30    53    54   ar
    31    54    55   ar
    32    55    56    1
    33     6     7   ar
    34     7     8   ar
    35     8     9    1
    36     8    10   ar
    37    10    11    1
    38    11    12    1
    39    12    13    2
    40    12    14    1
    41    14    15    1
    42    15    16    1
    43    16    17    1
    44    17    27    1
    45    27    28    2
    46    27    29    1
    47    17    18    1
    48    18    19    1
    49    18    20    1
    50    20    21    1
    51    20    22    1
    52    22    23    1
    53    10     3   ar
    54    22    15    1
    55    36    31   ar
    56    55    50   ar
    57    59    57    1
    58    39    40    1
    59    45    46    1
    60    29    30    1
    61    19    24    1
    62    21    25    1
    63    23    26    1
