@<TRIPOS>MOLECULE
*****
 46 51 0 0 0
SMALL
GASTEIGER

@<TRIPOS>ATOM
      1 C          61.3066   88.2174    8.9359 C.ar    1  UNL1        0.0756
      2 C          60.4246   87.1502    9.1611 C.ar    1  UNL1        0.1154
      3 N          60.4375   86.4883   10.3471 N.ar    1  UNL1       -0.2278
      4 C          61.2833   86.8215   11.3615 C.ar    1  UNL1        0.1323
      5 C          62.1728   87.8945   11.1796 C.ar    1  UNL1        0.0414
      6 C          62.1787   88.5969    9.9709 C.ar    1  UNL1        0.0393
      7 S          63.3387   89.9506    9.7605 S.3     1  UNL1       -0.1401
      8 H          62.4105   90.8918   10.2436 H       1  UNL1        0.1072
      9 N          61.2488   86.0740   12.5982 N.pl3   1  UNL1       -0.2932
     10 C          59.9899   85.4727   13.0716 C.3     1  UNL1        0.0923
     11 C          60.2469   84.3834   14.1180 C.3     1  UNL1        0.0252
     12 C          61.0897   84.9201   15.2937 C.3     1  UNL1        0.0472
     13 C          62.2673   85.8249   14.8301 C.3     1  UNL1        0.0252
     14 C          62.5013   85.7888   13.3156 C.3     1  UNL1        0.0923
     15 C          61.5852   83.7461   16.1622 C.3     1  UNL1        0.2054
     16 O          62.6733   83.0631   15.5364 O.3     1  UNL1       -0.4755
     17 C          62.5763   82.2206   14.4163 C.ar    1  UNL1        0.1388
     18 C          61.9029   81.0042   14.5669 C.ar    1  UNL1        0.0369
     19 C          61.7810   80.1234   13.4917 C.ar    1  UNL1        0.0033
     20 C          62.3282   80.4519   12.2501 C.ar    1  UNL1        0.0066
     21 C          63.0021   81.6721   12.0691 C.ar    1  UNL1        0.0785
     22 C          63.1347   82.5475   13.1635 C.ar    1  UNL1        0.0433
     23 C          63.5791   82.0086   10.7449 C.2     1  UNL1        0.3381
     24 O          64.7430   81.6238   10.4542 O.2     1  UNL1       -0.2451
     25 O          62.8599   82.7310    9.7931 O.3     1  UNL1       -0.4771
     26 H          61.8864   82.9774    9.9170 H       1  UNL1        0.2954
     27 C          60.2080   88.8533    6.7433 C.2     1  UNL1        0.2840
     28 O          59.1822   88.1688    7.0023 O.2     1  UNL1       -0.2665
     29 N          61.2774   88.9501    7.6995 N.am    1  UNL1       -0.2763
     30 H          62.0893   89.5690    7.4864 H       1  UNL1        0.1553
     31 C          57.7401   90.0844    5.0506 C.3     1  UNL1        0.0345
     32 C          59.2002   90.0837    4.7127 C.ar    1  UNL1        0.0202
     33 C          60.2686   89.5673    5.4564 C.ar    1  UNL1        0.1946
     34 O          61.4112   89.8246    4.8443 O.2     1  UNL1       -0.4492
     35 C          61.1374   90.4589    3.7305 C.ar    1  UNL1        0.1452
     36 C          62.0376   90.9174    2.7750 C.ar    1  UNL1        0.0375
     37 C          61.5223   91.5810    1.6476 C.ar    1  UNL1        0.0031
     38 C          60.1228   91.7759    1.4930 C.ar    1  UNL1        0.0002
     39 C          59.2413   91.2938    2.4903 C.ar    1  UNL1        0.0028
     40 C          59.7879   90.6388    3.5939 C.ar    1  UNL1        0.0337
     41 C          59.5898   92.4781    0.2981 C.ar    1  UNL1        0.0000
     42 C          60.4534   93.1806   -0.5639 C.ar    1  UNL1        0.0000
     43 C          59.9485   93.8418   -1.6877 C.ar    1  UNL1        0.0000
     44 C          58.5798   93.8093   -1.9642 C.ar    1  UNL1        0.0000
     45 C          57.7130   93.1157   -1.1171 C.ar    1  UNL1        0.0000
     46 C          58.2121   92.4535    0.0087 C.ar    1  UNL1        0.0000
@<TRIPOS>BOND
     1    31    32    1
     2    32    33   ar
     3    33    27    1
     4    27    28    2
     5    27    29   am
     6    29     1    1
     7     1     2   ar
     8     2     3   ar
     9     3     4   ar
    10     4     9    1
    11     9    10    1
    12    10    11    1
    13    11    12    1
    14    12    15    1
    15    15    16    1
    16    16    17    1
    17    17    18   ar
    18    18    19   ar
    19    19    20   ar
    20    20    21   ar
    21    21    23    1
    22    23    24    2
    23    23    25    1
    24    21    22   ar
    25    12    13    1
    26    13    14    1
    27     4     5   ar
    28     5     6   ar
    29     6     7    1
    30    33    34   ar
    31    34    35   ar
    32    35    36   ar
    33    36    37   ar
    34    37    38   ar
    35    38    41    1
    36    41    42   ar
    37    42    43   ar
    38    43    44   ar
    39    44    45   ar
    40    45    46   ar
    41    38    39   ar
    42    39    40   ar
    43    40    32   ar
    44     6     1   ar
    45    40    35   ar
    46    14     9    1
    47    46    41   ar
    48    22    17   ar
    49    29    30    1
    50    25    26    1
    51     7     8    1
@<TRIPOS>MOLECULE
*****
 46 51 0 0 0
SMALL
GASTEIGER

@<TRIPOS>ATOM
      1 C          61.3973   87.9714    8.8463 C.ar    1  UNL1        0.0756
      2 C          60.6251   86.8127    9.0158 C.ar    1  UNL1        0.1154
      3 N          60.6670   86.1257   10.1868 N.ar    1  UNL1       -0.2278
      4 C          61.4382   86.5192   11.2384 C.ar    1  UNL1        0.1323
      5 C          62.2158   87.6833   11.1125 C.ar    1  UNL1        0.0414
      6 C          62.1890   88.4131    9.9205 C.ar    1  UNL1        0.0393
      7 S          63.2070   89.8852    9.7822 S.3     1  UNL1       -0.1401
      8 H          62.1692   90.7119   10.2516 H       1  UNL1        0.1072
      9 N          61.4404   85.7407   12.4564 N.pl3   1  UNL1       -0.2932
     10 C          60.3352   85.8645   13.4228 C.3     1  UNL1        0.0923
     11 C          60.2950   84.6729   14.3849 C.3     1  UNL1        0.0252
     12 C          61.6483   84.4819   15.1010 C.3     1  UNL1        0.0472
     13 C          62.8661   84.6513   14.1478 C.3     1  UNL1        0.0252
     14 C          62.4742   84.7154   12.6672 C.3     1  UNL1        0.0923
     15 C          61.6745   83.1160   15.8165 C.3     1  UNL1        0.2054
     16 O          62.4907   82.1785   15.1114 O.3     1  UNL1       -0.4755
     17 C          62.0700   81.3637   14.0471 C.ar    1  UNL1        0.1388
     18 C          62.9274   81.2213   12.9514 C.ar    1  UNL1        0.0369
     19 C          62.5603   80.4306   11.8620 C.ar    1  UNL1        0.0033
     20 C          61.3314   79.7685   11.8580 C.ar    1  UNL1        0.0066
     21 C          60.4548   79.8872   12.9504 C.ar    1  UNL1        0.0785
     22 C          60.8260   80.6999   14.0382 C.ar    1  UNL1        0.0433
     23 C          59.1520   79.1786   12.9333 C.2     1  UNL1        0.3381
     24 O          58.1918   79.6518   12.2689 O.2     1  UNL1       -0.2451
     25 O          58.9581   77.9820   13.6230 O.3     1  UNL1       -0.4771
     26 H          59.7123   77.4915   14.0862 H       1  UNL1        0.2954
     27 C          60.1884   88.7392    6.7564 C.2     1  UNL1        0.2840
     28 O          59.1322   88.1366    7.0867 O.2     1  UNL1       -0.2665
     29 N          61.3334   88.7283    7.6259 N.am    1  UNL1       -0.2763
     30 H          62.1753   89.2823    7.3574 H       1  UNL1        0.1553
     31 C          57.6554   89.8639    5.0860 C.3     1  UNL1        0.0345
     32 C          59.1124   89.9416    4.7441 C.ar    1  UNL1        0.0202
     33 C          60.2083   89.4712    5.4783 C.ar    1  UNL1        0.1946
     34 O          61.3342   89.7937    4.8663 O.2     1  UNL1       -0.4492
     35 C          61.0247   90.4270    3.7612 C.ar    1  UNL1        0.1452
     36 C          61.8971   90.9424    2.8091 C.ar    1  UNL1        0.0375
     37 C          61.3449   91.5927    1.6915 C.ar    1  UNL1        0.0031
     38 C          59.9368   91.7181    1.5433 C.ar    1  UNL1        0.0002
     39 C          59.0844   91.1795    2.5369 C.ar    1  UNL1        0.0028
     40 C          59.6673   90.5397    3.6307 C.ar    1  UNL1        0.0337
     41 C          59.3647   92.4070    0.3587 C.ar    1  UNL1        0.0000
     42 C          57.9943   92.2923    0.0565 C.ar    1  UNL1        0.0000
     43 C          57.4586   92.9413   -1.0603 C.ar    1  UNL1        0.0000
     44 C          58.2816   93.7107   -1.8858 C.ar    1  UNL1        0.0000
     45 C          59.6423   93.8325   -1.5965 C.ar    1  UNL1        0.0000
     46 C          60.1838   93.1850   -0.4818 C.ar    1  UNL1        0.0000
@<TRIPOS>BOND
     1    31    32    1
     2    32    33   ar
     3    33    27    1
     4    27    28    2
     5    27    29   am
     6    29     1    1
     7     1     2   ar
     8     2     3   ar
     9     3     4   ar
    10     4     9    1
    11     9    10    1
    12    10    11    1
    13    11    12    1
    14    12    15    1
    15    15    16    1
    16    16    17    1
    17    17    18   ar
    18    18    19   ar
    19    19    20   ar
    20    20    21   ar
    21    21    23    1
    22    23    24    2
    23    23    25    1
    24    21    22   ar
    25    12    13    1
    26    13    14    1
    27     4     5   ar
    28     5     6   ar
    29     6     7    1
    30    33    34   ar
    31    34    35   ar
    32    35    36   ar
    33    36    37   ar
    34    37    38   ar
    35    38    41    1
    36    41    42   ar
    37    42    43   ar
    38    43    44   ar
    39    44    45   ar
    40    45    46   ar
    41    38    39   ar
    42    39    40   ar
    43    40    32   ar
    44     6     1   ar
    45    40    35   ar
    46    14     9    1
    47    46    41   ar
    48    22    17   ar
    49    29    30    1
    50    25    26    1
    51     7     8    1
@<TRIPOS>MOLECULE
*****
 46 51 0 0 0
SMALL
GASTEIGER

@<TRIPOS>ATOM
      1 C          61.1851   87.9795    8.8318 C.ar    1  UNL1        0.0756
      2 C          61.4653   88.6145   10.0508 C.ar    1  UNL1        0.1154
      3 N          61.4933   87.9002   11.2057 N.ar    1  UNL1       -0.2278
      4 C          61.2628   86.5582   11.2415 C.ar    1  UNL1        0.1323
      5 C          60.9921   85.8831   10.0387 C.ar    1  UNL1        0.0414
      6 C          60.9614   86.5918    8.8341 C.ar    1  UNL1        0.0393
      7 S          60.5946   85.7060    7.3164 S.3     1  UNL1       -0.1401
      8 H          61.9572   85.4517    7.0725 H       1  UNL1        0.1072
      9 N          61.3038   85.8574   12.5051 N.pl3   1  UNL1       -0.2932
     10 C          60.0658   85.6226   13.2686 C.3     1  UNL1        0.0923
     11 C          60.2497   84.5125   14.3083 C.3     1  UNL1        0.0252
     12 C          61.4390   84.8102   15.2451 C.3     1  UNL1        0.0472
     13 C          62.6823   85.3592   14.4880 C.3     1  UNL1        0.0252
     14 C          62.5627   85.2495   12.9637 C.3     1  UNL1        0.0923
     15 C          61.7861   83.5527   16.0674 C.3     1  UNL1        0.2054
     16 O          62.7636   82.7519   15.4000 O.3     1  UNL1       -0.4755
     17 C          62.5117   81.8674   14.3380 C.ar    1  UNL1        0.1388
     18 C          61.6300   80.8056   14.5639 C.ar    1  UNL1        0.0369
     19 C          61.3469   79.8909   13.5489 C.ar    1  UNL1        0.0033
     20 C          61.9397   80.0309   12.2929 C.ar    1  UNL1        0.0066
     21 C          62.8224   81.0943   12.0364 C.ar    1  UNL1        0.0785
     22 C          63.1151   82.0030   13.0709 C.ar    1  UNL1        0.0433
     23 C          63.4457   81.2313   10.6976 C.2     1  UNL1        0.3381
     24 O          62.8289   80.8259    9.6765 O.2     1  UNL1       -0.2451
     25 O          64.7000   81.8170   10.5283 O.3     1  UNL1       -0.4771
     26 H          65.2018   82.2596   11.2874 H       1  UNL1        0.2954
     27 C          60.0208   88.9093    6.7828 C.2     1  UNL1        0.2840
     28 O          58.8955   88.5011    7.1766 O.2     1  UNL1       -0.2665
     29 N          61.1895   88.7169    7.5979 N.am    1  UNL1       -0.2763
     30 H          62.0986   89.1147    7.2771 H       1  UNL1        0.1553
     31 C          57.5876   90.1935    5.0793 C.3     1  UNL1        0.0345
     32 C          59.0465   90.1461    4.7398 C.ar    1  UNL1        0.0202
     33 C          60.1004   89.6069    5.4880 C.ar    1  UNL1        0.1946
     34 O          61.2492   89.8237    4.8718 O.2     1  UNL1       -0.4492
     35 C          60.9924   90.4534    3.7512 C.ar    1  UNL1        0.1452
     36 C          61.9043   90.8746    2.7897 C.ar    1  UNL1        0.0375
     37 C          61.4070   91.5405    1.6556 C.ar    1  UNL1        0.0031
     38 C          60.0136   91.7747    1.5004 C.ar    1  UNL1        0.0002
     39 C          59.1198   91.3298    2.5040 C.ar    1  UNL1        0.0028
     40 C          59.6486   90.6713    3.6142 C.ar    1  UNL1        0.0337
     41 C          59.4996   92.4790    0.2984 C.ar    1  UNL1        0.0000
     42 C          60.3768   93.1835   -0.5482 C.ar    1  UNL1        0.0000
     43 C          59.8897   93.8467   -1.6788 C.ar    1  UNL1        0.0000
     44 C          58.5258   93.8141   -1.9774 C.ar    1  UNL1        0.0000
     45 C          57.6456   93.1185   -1.1458 C.ar    1  UNL1        0.0000
     46 C          58.1268   92.4543   -0.0133 C.ar    1  UNL1        0.0000
@<TRIPOS>BOND
     1    31    32    1
     2    32    33   ar
     3    33    27    1
     4    27    28    2
     5    27    29   am
     6    29     1    1
     7     1     2   ar
     8     2     3   ar
     9     3     4   ar
    10     4     9    1
    11     9    10    1
    12    10    11    1
    13    11    12    1
    14    12    15    1
    15    15    16    1
    16    16    17    1
    17    17    18   ar
    18    18    19   ar
    19    19    20   ar
    20    20    21   ar
    21    21    23    1
    22    23    24    2
    23    23    25    1
    24    21    22   ar
    25    12    13    1
    26    13    14    1
    27     4     5   ar
    28     5     6   ar
    29     6     7    1
    30    33    34   ar
    31    34    35   ar
    32    35    36   ar
    33    36    37   ar
    34    37    38   ar
    35    38    41    1
    36    41    42   ar
    37    42    43   ar
    38    43    44   ar
    39    44    45   ar
    40    45    46   ar
    41    38    39   ar
    42    39    40   ar
    43    40    32   ar
    44     6     1   ar
    45    40    35   ar
    46    14     9    1
    47    46    41   ar
    48    22    17   ar
    49    29    30    1
    50    25    26    1
    51     7     8    1
@<TRIPOS>MOLECULE
*****
 46 51 0 0 0
SMALL
GASTEIGER

@<TRIPOS>ATOM
      1 C          60.1816   87.7491    8.5318 C.ar    1  UNL1        0.0756
      2 C          60.7635   88.5141    9.5534 C.ar    1  UNL1        0.1154
      3 N          60.9324   87.9869   10.7938 N.ar    1  UNL1       -0.2278
      4 C          60.5606   86.7138   11.1042 C.ar    1  UNL1        0.1323
      5 C          59.9865   85.9106   10.1037 C.ar    1  UNL1        0.0414
      6 C          59.8047   86.4252    8.8167 C.ar    1  UNL1        0.0393
      7 S          59.0518   85.3823    7.5645 S.3     1  UNL1       -0.1401
      8 H          60.3030   84.8986    7.1386 H       1  UNL1        0.1072
      9 N          60.7647   86.2143   12.4453 N.pl3   1  UNL1       -0.2932
     10 C          61.2904   84.8554   12.6633 C.3     1  UNL1        0.0923
     11 C          61.8429   84.6884   14.0825 C.3     1  UNL1        0.0252
     12 C          60.7870   85.0591   15.1447 C.3     1  UNL1        0.0472
     13 C          59.9912   86.3460   14.7830 C.3     1  UNL1        0.0252
     14 C          60.5843   87.1134   13.5958 C.3     1  UNL1        0.0923
     15 C          61.4555   85.1768   16.5294 C.3     1  UNL1        0.2054
     16 O          62.7908   85.6734   16.4185 O.3     1  UNL1       -0.4755
     17 C          63.1653   86.8929   15.8299 C.ar    1  UNL1        0.1388
     18 C          63.8566   86.8498   14.6150 C.ar    1  UNL1        0.0369
     19 C          64.2605   88.0285   13.9870 C.ar    1  UNL1        0.0033
     20 C          63.9730   89.2659   14.5655 C.ar    1  UNL1        0.0066
     21 C          63.2715   89.3379   15.7815 C.ar    1  UNL1        0.0785
     22 C          62.8821   88.1435   16.4165 C.ar    1  UNL1        0.0433
     23 C          62.9728   90.6590   16.3856 C.2     1  UNL1        0.3381
     24 O          61.8071   90.9116   16.7915 O.2     1  UNL1       -0.2451
     25 O          63.9563   91.6363   16.5367 O.3     1  UNL1       -0.4771
     26 H          64.9323   91.4634   16.3331 H       1  UNL1        0.2954
     27 C          60.8936   89.2912    6.6521 C.2     1  UNL1        0.2840
     28 O          61.8979   89.6945    7.2975 O.2     1  UNL1       -0.2665
     29 N          60.0316   88.2822    7.2053 N.am    1  UNL1       -0.2763
     30 H          59.2407   87.9233    6.6279 H       1  UNL1        0.1553
     31 C          58.0498   90.1545    5.3719 C.3     1  UNL1        0.0345
     32 C          59.4130   90.2135    4.7520 C.ar    1  UNL1        0.0202
     33 C          60.6448   89.8575    5.3153 C.ar    1  UNL1        0.1946
     34 O          61.6227   90.1198    4.4659 O.2     1  UNL1       -0.4492
     35 C          61.0868   90.6043    3.3722 C.ar    1  UNL1        0.1452
     36 C          61.7445   91.0110    2.2166 C.ar    1  UNL1        0.0375
     37 C          60.9674   91.5067    1.1548 C.ar    1  UNL1        0.0031
     38 C          59.5525   91.5885    1.2634 C.ar    1  UNL1        0.0002
     39 C          58.9231   91.1643    2.4584 C.ar    1  UNL1        0.0028
     40 C          59.7255   90.6766    3.4899 C.ar    1  UNL1        0.0337
     41 C          58.7418   92.1137    0.1355 C.ar    1  UNL1        0.0000
     42 C          57.6425   91.3844   -0.3564 C.ar    1  UNL1        0.0000
     43 C          56.8816   91.8809   -1.4193 C.ar    1  UNL1        0.0000
     44 C          57.2073   93.1079   -2.0016 C.ar    1  UNL1        0.0000
     45 C          58.2951   93.8409   -1.5225 C.ar    1  UNL1        0.0000
     46 C          59.0602   93.3489   -0.4606 C.ar    1  UNL1        0.0000
@<TRIPOS>BOND
     1    31    32    1
     2    32    33   ar
     3    33    27    1
     4    27    28    2
     5    27    29   am
     6    29     1    1
     7     1     2   ar
     8     2     3   ar
     9     3     4   ar
    10     4     9    1
    11     9    10    1
    12    10    11    1
    13    11    12    1
    14    12    15    1
    15    15    16    1
    16    16    17    1
    17    17    18   ar
    18    18    19   ar
    19    19    20   ar
    20    20    21   ar
    21    21    23    1
    22    23    24    2
    23    23    25    1
    24    21    22   ar
    25    12    13    1
    26    13    14    1
    27     4     5   ar
    28     5     6   ar
    29     6     7    1
    30    33    34   ar
    31    34    35   ar
    32    35    36   ar
    33    36    37   ar
    34    37    38   ar
    35    38    41    1
    36    41    42   ar
    37    42    43   ar
    38    43    44   ar
    39    44    45   ar
    40    45    46   ar
    41    38    39   ar
    42    39    40   ar
    43    40    32   ar
    44     6     1   ar
    45    40    35   ar
    46    14     9    1
    47    46    41   ar
    48    22    17   ar
    49    29    30    1
    50    25    26    1
    51     7     8    1
@<TRIPOS>MOLECULE
*****
 46 51 0 0 0
SMALL
GASTEIGER

@<TRIPOS>ATOM
      1 C          61.3246   86.7223    8.3547 C.ar    1  UNL1        0.0756
      2 C          61.2137   87.2999    9.6282 C.ar    1  UNL1        0.1154
      3 N          61.2900   86.5257   10.7416 N.ar    1  UNL1       -0.2278
      4 C          61.4808   85.1782   10.6837 C.ar    1  UNL1        0.1323
      5 C          61.6107   84.5638    9.4262 C.ar    1  UNL1        0.0414
      6 C          61.5407   85.3364    8.2632 C.ar    1  UNL1        0.0393
      7 S          61.6912   84.5215    6.6708 S.3     1  UNL1       -0.1401
      8 H          63.0863   84.7062    6.6480 H       1  UNL1        0.1072
      9 N          61.5493   84.4109   11.9068 N.pl3   1  UNL1       -0.2932
     10 C          60.5314   84.5886   12.9570 C.3     1  UNL1        0.0923
     11 C          60.5204   83.4079   13.9334 C.3     1  UNL1        0.0252
     12 C          61.9180   83.1673   14.5411 C.3     1  UNL1        0.0472
     13 C          63.0611   83.2779   13.4916 C.3     1  UNL1        0.0252
     14 C          62.5543   83.3455   12.0464 C.3     1  UNL1        0.0923
     15 C          61.9463   81.8077   15.2684 C.3     1  UNL1        0.2054
     16 O          62.3061   80.7512   14.3759 O.3     1  UNL1       -0.4755
     17 C          61.4436   80.1191   13.4645 C.ar    1  UNL1        0.1388
     18 C          60.2144   79.6520   13.9408 C.ar    1  UNL1        0.0369
     19 C          59.3199   79.0098   13.0839 C.ar    1  UNL1        0.0033
     20 C          59.6431   78.8314   11.7377 C.ar    1  UNL1        0.0066
     21 C          60.8679   79.2994   11.2312 C.ar    1  UNL1        0.0785
     22 C          61.7715   79.9316   12.1061 C.ar    1  UNL1        0.0433
     23 C          61.1991   79.1030    9.7989 C.2     1  UNL1        0.3381
     24 O          60.5489   79.7238    8.9161 O.2     1  UNL1       -0.2451
     25 O          62.2308   78.2566    9.3934 O.3     1  UNL1       -0.4771
     26 H          62.8608   77.8125   10.0488 H       1  UNL1        0.2954
     27 C          60.2747   88.5300    6.9235 C.2     1  UNL1        0.2840
     28 O          59.4138   88.7960    7.8044 O.2     1  UNL1       -0.2665
     29 N          61.2831   87.5352    7.1699 N.am    1  UNL1       -0.2763
     30 H          62.0190   87.3743    6.4487 H       1  UNL1        0.1553
     31 C          57.6600   89.5330    5.3020 C.3     1  UNL1        0.0345
     32 C          59.1056   89.6969    4.9424 C.ar    1  UNL1        0.0202
     33 C          60.2361   89.2790    5.6557 C.ar    1  UNL1        0.1946
     34 O          61.3337   89.6724    5.0338 O.2     1  UNL1       -0.4492
     35 C          60.9741   90.3020    3.9419 C.ar    1  UNL1        0.1452
     36 C          61.8032   90.8783    2.9859 C.ar    1  UNL1        0.0375
     37 C          61.2003   91.5115    1.8849 C.ar    1  UNL1        0.0031
     38 C          59.7855   91.5596    1.7566 C.ar    1  UNL1        0.0002
     39 C          58.9781   90.9608    2.7535 C.ar    1  UNL1        0.0028
     40 C          59.6109   90.3401    3.8305 C.ar    1  UNL1        0.0337
     41 C          59.1595   92.2311    0.5894 C.ar    1  UNL1        0.0000
     42 C          59.8627   93.2141   -0.1329 C.ar    1  UNL1        0.0000
     43 C          59.2703   93.8455   -1.2309 C.ar    1  UNL1        0.0000
     44 C          57.9732   93.5039   -1.6204 C.ar    1  UNL1        0.0000
     45 C          57.2655   92.5302   -0.9123 C.ar    1  UNL1        0.0000
     46 C          57.8524   91.8962    0.1870 C.ar    1  UNL1        0.0000
@<TRIPOS>BOND
     1    31    32    1
     2    32    33   ar
     3    33    27    1
     4    27    28    2
     5    27    29   am
     6    29     1    1
     7     1     2   ar
     8     2     3   ar
     9     3     4   ar
    10     4     9    1
    11     9    10    1
    12    10    11    1
    13    11    12    1
    14    12    15    1
    15    15    16    1
    16    16    17    1
    17    17    18   ar
    18    18    19   ar
    19    19    20   ar
    20    20    21   ar
    21    21    23    1
    22    23    24    2
    23    23    25    1
    24    21    22   ar
    25    12    13    1
    26    13    14    1
    27     4     5   ar
    28     5     6   ar
    29     6     7    1
    30    33    34   ar
    31    34    35   ar
    32    35    36   ar
    33    36    37   ar
    34    37    38   ar
    35    38    41    1
    36    41    42   ar
    37    42    43   ar
    38    43    44   ar
    39    44    45   ar
    40    45    46   ar
    41    38    39   ar
    42    39    40   ar
    43    40    32   ar
    44     6     1   ar
    45    40    35   ar
    46    14     9    1
    47    46    41   ar
    48    22    17   ar
    49    29    30    1
    50    25    26    1
    51     7     8    1
