@<TRIPOS>MOLECULE
*****
 35 40 0 0 0
SMALL
GASTEIGER

@<TRIPOS>ATOM
      1 C          61.9658   88.2419   12.7494 C.ar    1  UNL1        0.1534
      2 N          62.7045   89.1976   12.1320 N.ar    1  UNL1       -0.1329
      3 N          63.5955   89.9352   12.7918 N.ar    1  UNL1       -0.1468
      4 C          63.8210   89.7796   14.1225 C.ar    1  UNL1        0.1029
      5 C          63.1009   88.7885   14.8295 C.ar    1  UNL1        0.0221
      6 C          63.3256   88.5232   16.1971 C.ar    1  UNL1        0.0016
      7 C          62.5769   87.5509   16.8625 C.ar    1  UNL1        0.0001
      8 C          61.6029   86.8252   16.1790 C.ar    1  UNL1        0.0001
      9 C          61.3838   87.0521   14.8200 C.ar    1  UNL1        0.0029
     10 C          62.1400   88.0179   14.1278 C.ar    1  UNL1        0.0349
     11 C          62.4270   87.0174    9.9835 C.3     1  UNL1        0.0233
     12 C          61.5084   86.4249   11.0584 C.3     1  UNL1        0.0941
     13 C          60.3263   85.6851   10.4010 C.3     1  UNL1        0.1134
     14 N          59.2780   85.4081   11.3955 N.am    1  UNL1       -0.2726
     15 C          58.6876   84.0982   11.5043 C.2     1  UNL1        0.2491
     16 O          58.3742   83.6556   12.6432 O.2     1  UNL1       -0.2699
     17 C          58.8300   86.4664   12.3138 C.3     1  UNL1        0.1152
     18 C          59.6001   87.7702   12.0889 C.3     1  UNL1        0.1137
     19 N          61.0307   87.4783   11.9732 N.pl3   1  UNL1       -0.2900
     20 C          58.4296   83.2581   10.3122 C.ar    1  UNL1        0.0536
     21 C          57.8275   83.8176    9.1717 C.ar    1  UNL1        0.0049
     22 C          57.5908   83.0319    8.0396 C.ar    1  UNL1        0.0059
     23 C          57.9627   81.6845    8.0307 C.ar    1  UNL1        0.0301
     24 I          57.6061   80.5018    6.3213 I       1  UNL1       -0.0425
     25 C          58.5780   81.1238    9.1535 C.ar    1  UNL1        0.0059
     26 C          58.8158   81.9063   10.2875 C.ar    1  UNL1        0.0049
     27 C          64.8042   90.6772   14.7645 C.ar    1  UNL1        0.0194
     28 C          64.4180   91.5381   15.8020 C.ar    1  UNL1        0.0012
     29 C          65.3452   92.4085   16.3819 C.ar    1  UNL1       -0.0042
     30 C          66.6796   92.4449   15.9213 C.ar    1  UNL1       -0.0225
     31 C          67.0494   91.5949   14.8662 C.ar    1  UNL1       -0.0042
     32 C          66.1204   90.7256   14.2881 C.ar    1  UNL1        0.0012
     33 C          67.7474   93.3598   16.4976 C.3     1  UNL1        0.0224
     34 C          68.6698   94.0637   15.5115 C.3     1  UNL1        0.0047
     35 C          69.1965   92.9130   16.3604 C.3     1  UNL1        0.0047
@<TRIPOS>BOND
     1    11    12    1
     2    12    13    1
     3    13    14    1
     4    14    15   am
     5    15    16    2
     6    15    20    1
     7    20    21   ar
     8    21    22   ar
     9    22    23   ar
    10    23    24    1
    11    23    25   ar
    12    25    26   ar
    13    14    17    1
    14    17    18    1
    15    18    19    1
    16    19     1    1
    17     1     2   ar
    18     2     3   ar
    19     3     4   ar
    20     4    27    1
    21    27    28   ar
    22    28    29   ar
    23    29    30   ar
    24    30    33    1
    25    33    34    1
    26    34    35    1
    27    30    31   ar
    28    31    32   ar
    29     4     5   ar
    30     5     6   ar
    31     6     7   ar
    32     7     8   ar
    33     8     9   ar
    34     9    10   ar
    35    19    12    1
    36    10     1   ar
    37    26    20   ar
    38    32    27   ar
    39    10     5   ar
    40    35    33    1
@<TRIPOS>MOLECULE
*****
 35 40 0 0 0
SMALL
GASTEIGER

@<TRIPOS>ATOM
      1 C          62.3469   88.6031   12.2726 C.ar    1  UNL1        0.1534
      2 N          62.7603   88.2970   13.5278 N.ar    1  UNL1       -0.1329
      3 N          63.6386   89.0527   14.1842 N.ar    1  UNL1       -0.1468
      4 C          64.1769   90.1754   13.6404 C.ar    1  UNL1        0.1029
      5 C          63.7783   90.5680   12.3413 C.ar    1  UNL1        0.0221
      6 C          64.2428   91.7546   11.7353 C.ar    1  UNL1        0.0016
      7 C          63.8413   92.0938   10.4420 C.ar    1  UNL1        0.0001
      8 C          62.9692   91.2656    9.7377 C.ar    1  UNL1        0.0001
      9 C          62.4760   90.1020   10.3288 C.ar    1  UNL1        0.0029
     10 C          62.8573   89.7511   11.6384 C.ar    1  UNL1        0.0349
     11 C          62.5360   87.4056    9.4631 C.3     1  UNL1        0.0233
     12 C          61.8352   86.7374   10.6517 C.3     1  UNL1        0.0941
     13 C          60.6492   85.8837   10.1601 C.3     1  UNL1        0.1134
     14 N          59.7794   85.5165   11.2884 N.am    1  UNL1       -0.2726
     15 C          59.3368   84.1575   11.4711 C.2     1  UNL1        0.2491
     16 O          59.2271   83.6963   12.6400 O.2     1  UNL1       -0.2699
     17 C          59.3640   86.5348   12.2654 C.3     1  UNL1        0.1152
     18 C          59.9683   87.9039   11.9429 C.3     1  UNL1        0.1137
     19 N          61.3904   87.7480   11.6291 N.pl3   1  UNL1       -0.2900
     20 C          58.9977   83.2871   10.3217 C.ar    1  UNL1        0.0536
     21 C          57.8674   83.5672    9.5340 C.ar    1  UNL1        0.0049
     22 C          57.5480   82.7550    8.4415 C.ar    1  UNL1        0.0059
     23 C          58.3591   81.6635    8.1181 C.ar    1  UNL1        0.0301
     24 I          57.8762   80.4409    6.4689 I       1  UNL1       -0.0425
     25 C          59.4948   81.3876    8.8848 C.ar    1  UNL1        0.0059
     26 C          59.8170   82.1972    9.9783 C.ar    1  UNL1        0.0049
     27 C          65.1722   90.9197   14.4404 C.ar    1  UNL1        0.0194
     28 C          64.7765   91.6751   15.5537 C.ar    1  UNL1        0.0012
     29 C          65.7183   92.4038   16.2857 C.ar    1  UNL1       -0.0042
     30 C          67.0783   92.4026   15.9059 C.ar    1  UNL1       -0.0225
     31 C          67.4593   91.6612   14.7756 C.ar    1  UNL1       -0.0042
     32 C          66.5159   90.9335   14.0453 C.ar    1  UNL1        0.0012
     33 C          68.1630   93.1660   16.6473 C.3     1  UNL1        0.0224
     34 C          68.9166   94.2381   15.8718 C.3     1  UNL1        0.0047
     35 C          69.6038   92.9231   16.2188 C.3     1  UNL1        0.0047
@<TRIPOS>BOND
     1    11    12    1
     2    12    13    1
     3    13    14    1
     4    14    15   am
     5    15    16    2
     6    15    20    1
     7    20    21   ar
     8    21    22   ar
     9    22    23   ar
    10    23    24    1
    11    23    25   ar
    12    25    26   ar
    13    14    17    1
    14    17    18    1
    15    18    19    1
    16    19     1    1
    17     1     2   ar
    18     2     3   ar
    19     3     4   ar
    20     4    27    1
    21    27    28   ar
    22    28    29   ar
    23    29    30   ar
    24    30    33    1
    25    33    34    1
    26    34    35    1
    27    30    31   ar
    28    31    32   ar
    29     4     5   ar
    30     5     6   ar
    31     6     7   ar
    32     7     8   ar
    33     8     9   ar
    34     9    10   ar
    35    19    12    1
    36    10     1   ar
    37    26    20   ar
    38    32    27   ar
    39    10     5   ar
    40    35    33    1
@<TRIPOS>MOLECULE
*****
 35 40 0 0 0
SMALL
GASTEIGER

@<TRIPOS>ATOM
      1 C          62.7777   88.0150   12.6707 C.ar    1  UNL1        0.1534
      2 N          63.3175   87.8506   13.9043 N.ar    1  UNL1       -0.1329
      3 N          64.0971   88.7756   14.4612 N.ar    1  UNL1       -0.1468
      4 C          64.4022   89.9401   13.8313 C.ar    1  UNL1        0.1029
      5 C          63.8595   90.1896   12.5491 C.ar    1  UNL1        0.0221
      6 C          64.0773   91.4015   11.8598 C.ar    1  UNL1        0.0016
      7 C          63.5411   91.5983   10.5860 C.ar    1  UNL1        0.0001
      8 C          62.7768   90.6003    9.9842 C.ar    1  UNL1        0.0001
      9 C          62.5259   89.4056   10.6596 C.ar    1  UNL1        0.0029
     10 C          63.0453   89.1948   11.9518 C.ar    1  UNL1        0.0349
     11 C          63.5997   85.1549   11.9588 C.3     1  UNL1        0.0233
     12 C          62.2086   85.5656   12.4551 C.3     1  UNL1        0.0941
     13 C          61.1319   84.6461   11.8450 C.3     1  UNL1        0.1134
     14 N          59.7934   85.2254   12.0386 N.am    1  UNL1       -0.2726
     15 C          58.7066   84.4265   12.5455 C.2     1  UNL1        0.2491
     16 O          57.8638   84.9533   13.3221 O.2     1  UNL1       -0.2699
     17 C          59.5494   86.6440   11.7358 C.3     1  UNL1        0.1152
     18 C          60.8242   87.3454   11.2598 C.3     1  UNL1        0.1137
     19 N          61.9388   86.9800   12.1368 N.pl3   1  UNL1       -0.2900
     20 C          58.5461   83.0022   12.1722 C.ar    1  UNL1        0.0536
     21 C          58.1598   82.6546   10.8659 C.ar    1  UNL1        0.0049
     22 C          58.0166   81.3113   10.5048 C.ar    1  UNL1        0.0059
     23 C          58.2682   80.3030   11.4396 C.ar    1  UNL1        0.0301
     24 I          58.0529   78.2778   10.8920 I       1  UNL1       -0.0425
     25 C          58.6698   80.6386   12.7357 C.ar    1  UNL1        0.0059
     26 C          58.8136   81.9806   13.1005 C.ar    1  UNL1        0.0049
     27 C          65.3081   90.8811   14.5231 C.ar    1  UNL1        0.0194
     28 C          64.8592   91.6341   15.6177 C.ar    1  UNL1        0.0012
     29 C          65.7109   92.5469   16.2461 C.ar    1  UNL1       -0.0042
     30 C          67.0299   92.7355   15.7786 C.ar    1  UNL1       -0.0225
     31 C          67.4613   91.9929   14.6673 C.ar    1  UNL1       -0.0042
     32 C          66.6078   91.0809   14.0406 C.ar    1  UNL1        0.0012
     33 C          68.0176   93.7056   16.4052 C.3     1  UNL1        0.0224
     34 C          69.1310   94.2407   15.5148 C.3     1  UNL1        0.0047
     35 C          69.4468   93.2176   16.5991 C.3     1  UNL1        0.0047
@<TRIPOS>BOND
     1    11    12    1
     2    12    13    1
     3    13    14    1
     4    14    15   am
     5    15    16    2
     6    15    20    1
     7    20    21   ar
     8    21    22   ar
     9    22    23   ar
    10    23    24    1
    11    23    25   ar
    12    25    26   ar
    13    14    17    1
    14    17    18    1
    15    18    19    1
    16    19     1    1
    17     1     2   ar
    18     2     3   ar
    19     3     4   ar
    20     4    27    1
    21    27    28   ar
    22    28    29   ar
    23    29    30   ar
    24    30    33    1
    25    33    34    1
    26    34    35    1
    27    30    31   ar
    28    31    32   ar
    29     4     5   ar
    30     5     6   ar
    31     6     7   ar
    32     7     8   ar
    33     8     9   ar
    34     9    10   ar
    35    19    12    1
    36    10     1   ar
    37    26    20   ar
    38    32    27   ar
    39    10     5   ar
    40    35    33    1
@<TRIPOS>MOLECULE
*****
 35 40 0 0 0
SMALL
GASTEIGER

@<TRIPOS>ATOM
      1 C          61.4480   87.8303   11.6721 C.ar    1  UNL1        0.1534
      2 N          62.0059   87.1182   10.6613 N.ar    1  UNL1       -0.1329
      3 N          61.3675   86.1065   10.0761 N.ar    1  UNL1       -0.1468
      4 C          60.1200   85.7226   10.4531 C.ar    1  UNL1        0.1029
      5 C          59.4671   86.4316   11.4884 C.ar    1  UNL1        0.0221
      6 C          58.1477   86.1347   11.8913 C.ar    1  UNL1        0.0016
      7 C          57.5482   86.8448   12.9330 C.ar    1  UNL1        0.0001
      8 C          58.2459   87.8621   13.5817 C.ar    1  UNL1        0.0001
      9 C          59.5412   88.1906   13.1807 C.ar    1  UNL1        0.0029
     10 C          60.1570   87.4959   12.1215 C.ar    1  UNL1        0.0349
     11 C          63.2083   87.7369   14.1730 C.3     1  UNL1        0.0233
     12 C          63.4518   88.6525   12.9677 C.3     1  UNL1        0.0941
     13 C          64.1127   89.9689   13.4230 C.3     1  UNL1        0.1134
     14 N          64.0447   90.9742   12.3509 N.am    1  UNL1       -0.2726
     15 C          65.2097   91.7325   11.9713 C.2     1  UNL1        0.2491
     16 O          65.3866   92.0250   10.7571 O.2     1  UNL1       -0.2699
     17 C          62.7827   91.2056   11.6315 C.3     1  UNL1        0.1152
     18 C          61.6716   90.2787   12.1313 C.3     1  UNL1        0.1137
     19 N          62.1907   88.9142   12.2496 N.pl3   1  UNL1       -0.2900
     20 C          66.2036   92.1869   12.9709 C.ar    1  UNL1        0.0536
     21 C          65.7997   92.9872   14.0539 C.ar    1  UNL1        0.0049
     22 C          66.7317   93.4108   15.0063 C.ar    1  UNL1        0.0059
     23 C          68.0721   93.0308   14.8935 C.ar    1  UNL1        0.0301
     24 I          69.4756   93.6696   16.3322 I       1  UNL1       -0.0425
     25 C          68.4797   92.2206   13.8299 C.ar    1  UNL1        0.0059
     26 C          67.5507   91.7956   12.8753 C.ar    1  UNL1        0.0049
     27 C          59.5181   84.5621    9.7635 C.ar    1  UNL1        0.0194
     28 C          58.5984   83.7343   10.4235 C.ar    1  UNL1        0.0012
     29 C          58.0586   82.6189    9.7767 C.ar    1  UNL1       -0.0042
     30 C          58.4432   82.3006    8.4558 C.ar    1  UNL1       -0.0225
     31 C          59.3825   83.1233    7.8129 C.ar    1  UNL1       -0.0042
     32 C          59.9207   84.2379    8.4617 C.ar    1  UNL1        0.0012
     33 C          57.9036   81.1086    7.6830 C.3     1  UNL1        0.0224
     34 C          58.8105   80.4936    6.6256 C.3     1  UNL1        0.0047
     35 C          57.5980   81.3156    6.2058 C.3     1  UNL1        0.0047
@<TRIPOS>BOND
     1    11    12    1
     2    12    13    1
     3    13    14    1
     4    14    15   am
     5    15    16    2
     6    15    20    1
     7    20    21   ar
     8    21    22   ar
     9    22    23   ar
    10    23    24    1
    11    23    25   ar
    12    25    26   ar
    13    14    17    1
    14    17    18    1
    15    18    19    1
    16    19     1    1
    17     1     2   ar
    18     2     3   ar
    19     3     4   ar
    20     4    27    1
    21    27    28   ar
    22    28    29   ar
    23    29    30   ar
    24    30    33    1
    25    33    34    1
    26    34    35    1
    27    30    31   ar
    28    31    32   ar
    29     4     5   ar
    30     5     6   ar
    31     6     7   ar
    32     7     8   ar
    33     8     9   ar
    34     9    10   ar
    35    19    12    1
    36    10     1   ar
    37    26    20   ar
    38    32    27   ar
    39    10     5   ar
    40    35    33    1
@<TRIPOS>MOLECULE
*****
 35 40 0 0 0
SMALL
GASTEIGER

@<TRIPOS>ATOM
      1 C          61.6957   88.0586   10.8418 C.ar    1  UNL1        0.1534
      2 N          61.8331   86.7986   11.3252 N.ar    1  UNL1       -0.1329
      3 N          61.2461   85.7535   10.7450 N.ar    1  UNL1       -0.1468
      4 C          60.4731   85.8812    9.6350 C.ar    1  UNL1        0.1029
      5 C          60.2999   87.1632    9.0630 C.ar    1  UNL1        0.0221
      6 C          59.5660   87.3671    7.8751 C.ar    1  UNL1        0.0016
      7 C          59.4008   88.6525    7.3562 C.ar    1  UNL1        0.0001
      8 C          59.9671   89.7491    8.0035 C.ar    1  UNL1        0.0001
      9 C          60.7200   89.5667    9.1639 C.ar    1  UNL1        0.0029
     10 C          60.9109   88.2758    9.6940 C.ar    1  UNL1        0.0349
     11 C          63.1160   87.9491   13.5498 C.3     1  UNL1        0.0233
     12 C          63.5205   88.8642   12.3882 C.3     1  UNL1        0.0941
     13 C          64.1263   90.1750   12.9281 C.3     1  UNL1        0.1134
     14 N          64.2053   91.1821   11.8584 N.am    1  UNL1       -0.2726
     15 C          65.4151   91.9321   11.6347 C.2     1  UNL1        0.2491
     16 O          65.7502   92.2246   10.4543 O.2     1  UNL1       -0.2699
     17 C          63.0489   91.4238   10.9818 C.3     1  UNL1        0.1152
     18 C          61.8756   90.5046   11.3314 C.3     1  UNL1        0.1137
     19 N          62.3651   89.1362   11.5131 N.pl3   1  UNL1       -0.2900
     20 C          66.2742   92.3779   12.7558 C.ar    1  UNL1        0.0536
     21 C          67.5727   91.8585   12.8993 C.ar    1  UNL1        0.0049
     22 C          68.3920   92.2832   13.9498 C.ar    1  UNL1        0.0059
     23 C          67.9280   93.2377   14.8595 C.ar    1  UNL1        0.0301
     24 I          69.1663   93.8777   16.4421 I       1  UNL1       -0.0425
     25 C          66.6449   93.7728   14.7145 C.ar    1  UNL1        0.0059
     26 C          65.8226   93.3502   13.6657 C.ar    1  UNL1        0.0049
     27 C          59.8367   84.6617    9.0943 C.ar    1  UNL1        0.0194
     28 C          60.4961   83.8714    8.1418 C.ar    1  UNL1        0.0012
     29 C          59.8748   82.7382    7.6095 C.ar    1  UNL1       -0.0042
     30 C          58.5688   82.3816    8.0111 C.ar    1  UNL1       -0.0225
     31 C          57.9091   83.1934    8.9482 C.ar    1  UNL1       -0.0042
     32 C          58.5324   84.3259    9.4789 C.ar    1  UNL1        0.0012
     33 C          57.8246   81.1669    7.4821 C.3     1  UNL1        0.0224
     34 C          58.5802   80.2420    6.5373 C.3     1  UNL1        0.0047
     35 C          57.4817   81.1506    5.9987 C.3     1  UNL1        0.0047
@<TRIPOS>BOND
     1    11    12    1
     2    12    13    1
     3    13    14    1
     4    14    15   am
     5    15    16    2
     6    15    20    1
     7    20    21   ar
     8    21    22   ar
     9    22    23   ar
    10    23    24    1
    11    23    25   ar
    12    25    26   ar
    13    14    17    1
    14    17    18    1
    15    18    19    1
    16    19     1    1
    17     1     2   ar
    18     2     3   ar
    19     3     4   ar
    20     4    27    1
    21    27    28   ar
    22    28    29   ar
    23    29    30   ar
    24    30    33    1
    25    33    34    1
    26    34    35    1
    27    30    31   ar
    28    31    32   ar
    29     4     5   ar
    30     5     6   ar
    31     6     7   ar
    32     7     8   ar
    33     8     9   ar
    34     9    10   ar
    35    19    12    1
    36    10     1   ar
    37    26    20   ar
    38    32    27   ar
    39    10     5   ar
    40    35    33    1
@<TRIPOS>MOLECULE
*****
 35 40 0 0 0
SMALL
GASTEIGER

@<TRIPOS>ATOM
      1 C          62.0264   87.0549   13.1813 C.ar    1  UNL1        0.1534
      2 N          61.5047   86.2183   14.1130 N.ar    1  UNL1       -0.1329
      3 N          60.8805   85.0909   13.7770 N.ar    1  UNL1       -0.1468
      4 C          60.7254   84.7072   12.4830 C.ar    1  UNL1        0.1029
      5 C          61.2607   85.5205   11.4569 C.ar    1  UNL1        0.0221
      6 C          61.1970   85.1572   10.0949 C.ar    1  UNL1        0.0016
      7 C          61.7186   86.0000    9.1117 C.ar    1  UNL1        0.0001
      8 C          62.3161   87.2079    9.4673 C.ar    1  UNL1        0.0001
      9 C          62.4145   87.5732   10.8102 C.ar    1  UNL1        0.0029
     10 C          61.9081   86.7289   11.8174 C.ar    1  UNL1        0.0349
     11 C          64.2053   87.2771   15.3180 C.3     1  UNL1        0.0233
     12 C          64.0893   88.1892   14.0912 C.3     1  UNL1        0.0941
     13 C          64.6214   89.5979   14.4220 C.3     1  UNL1        0.1134
     14 N          64.2134   90.5568   13.3834 N.am    1  UNL1       -0.2726
     15 C          65.1662   91.4665   12.7995 C.2     1  UNL1        0.2491
     16 O          65.0753   91.7524   11.5743 O.2     1  UNL1       -0.2699
     17 C          62.8218   90.5858   12.9075 C.3     1  UNL1        0.1152
     18 C          61.9679   89.5200   13.5993 C.3     1  UNL1        0.1137
     19 N          62.6943   88.2483   13.6166 N.pl3   1  UNL1       -0.2900
     20 C          66.2473   92.0838   13.6020 C.ar    1  UNL1        0.0536
     21 C          65.9317   92.8774   14.7187 C.ar    1  UNL1        0.0049
     22 C          66.9483   93.4544   15.4861 C.ar    1  UNL1        0.0059
     23 C          68.2882   93.2359   15.1534 C.ar    1  UNL1        0.0301
     24 I          69.8197   94.1059   16.3134 I       1  UNL1       -0.0425
     25 C          68.6119   92.4338   14.0553 C.ar    1  UNL1        0.0059
     26 C          67.5981   91.8557   13.2854 C.ar    1  UNL1        0.0049
     27 C          59.9824   83.4570   12.2191 C.ar    1  UNL1        0.0194
     28 C          58.6943   83.4921   11.6658 C.ar    1  UNL1        0.0012
     29 C          57.9838   82.3078   11.4502 C.ar    1  UNL1       -0.0042
     30 C          58.5461   81.0608   11.8006 C.ar    1  UNL1       -0.0225
     31 C          59.8273   81.0394   12.3754 C.ar    1  UNL1       -0.0042
     32 C          60.5356   82.2248   12.5900 C.ar    1  UNL1        0.0012
     33 C          57.8413   79.7298   11.5984 C.3     1  UNL1        0.0224
     34 C          58.7164   78.4954   11.4277 C.3     1  UNL1        0.0047
     35 C          57.9707   79.0729   10.2308 C.3     1  UNL1        0.0047
@<TRIPOS>BOND
     1    11    12    1
     2    12    13    1
     3    13    14    1
     4    14    15   am
     5    15    16    2
     6    15    20    1
     7    20    21   ar
     8    21    22   ar
     9    22    23   ar
    10    23    24    1
    11    23    25   ar
    12    25    26   ar
    13    14    17    1
    14    17    18    1
    15    18    19    1
    16    19     1    1
    17     1     2   ar
    18     2     3   ar
    19     3     4   ar
    20     4    27    1
    21    27    28   ar
    22    28    29   ar
    23    29    30   ar
    24    30    33    1
    25    33    34    1
    26    34    35    1
    27    30    31   ar
    28    31    32   ar
    29     4     5   ar
    30     5     6   ar
    31     6     7   ar
    32     7     8   ar
    33     8     9   ar
    34     9    10   ar
    35    19    12    1
    36    10     1   ar
    37    26    20   ar
    38    32    27   ar
    39    10     5   ar
    40    35    33    1
