@<TRIPOS>MOLECULE
*****
 60 65 0 0 0
SMALL
GASTEIGER

@<TRIPOS>ATOM
      1 C          13.4129   82.7885   25.0233 C.ar    1  UNL1        0.0503
      2 C          14.0453   81.5362   25.0278 C.ar    1  UNL1        0.0147
      3 C          13.2968   80.3579   24.9791 C.ar    1  UNL1        0.0013
      4 C          11.8940   80.4068   24.9293 C.ar    1  UNL1        0.0001
      5 C          11.2577   81.6584   24.9242 C.ar    1  UNL1        0.0013
      6 C          12.0068   82.8366   24.9803 C.ar    1  UNL1        0.0147
      7 C          11.0972   79.1565   24.8857 C.ar    1  UNL1        0.0001
      8 C          10.0591   79.0063   23.9512 C.ar    1  UNL1        0.0013
      9 C           9.3357   77.8134   23.8793 C.ar    1  UNL1        0.0147
     10 C           9.6245   76.7506   24.7552 C.ar    1  UNL1        0.0503
     11 C          10.6556   76.9047   25.6928 C.ar    1  UNL1        0.0147
     12 C          11.3845   78.0949   25.7600 C.ar    1  UNL1        0.0013
     13 N           8.9531   75.4825   24.6523 N.am    1  UNL1       -0.2826
     14 C           7.5266   75.3348   24.6309 C.2     1  UNL1        0.2442
     15 O           6.8119   75.9795   25.4447 O.2     1  UNL1       -0.2730
     16 H           9.5314   74.6319   24.4680 H       1  UNL1        0.1549
     17 C           6.8751   74.3817   23.6642 C.3     1  UNL1        0.1521
     18 C           7.8784   73.3791   23.0921 C.3     1  UNL1        0.0310
     19 C           8.1672   73.8352   21.6637 C.3     1  UNL1        0.0237
     20 C           7.0293   74.7715   21.2760 C.3     1  UNL1        0.0939
     21 N           6.3491   75.1090   22.5168 N.am    1  UNL1       -0.2714
     22 C           5.2558   76.0438   22.6183 C.2     1  UNL1        0.2482
     23 O           4.6081   76.1229   23.6986 O.2     1  UNL1       -0.2727
     24 C           4.8478   76.9105   21.4486 C.3     1  UNL1        0.1743
     25 C           3.4697   77.4955   21.6782 C.ar    1  UNL1        0.0044
     26 C           2.3136   76.7952   21.2828 C.ar    1  UNL1       -0.0022
     27 C           1.0460   77.3431   21.4999 C.ar    1  UNL1       -0.0003
     28 C           0.9179   78.5904   22.1153 C.ar    1  UNL1       -0.0000
     29 C           2.0573   79.2914   22.5172 C.ar    1  UNL1       -0.0003
     30 C           3.3275   78.7477   22.3032 C.ar    1  UNL1       -0.0022
     31 N           5.8288   77.9803   21.2281 N.am    1  UNL1       -0.2606
     32 C           6.2106   78.4090   19.9151 C.2     1  UNL1        0.4023
     33 O           5.6731   77.8950   18.8956 O.2     1  UNL1       -0.2264
     34 H           6.3281   78.4064   22.0416 H       1  UNL1        0.1535
     35 O           7.1810   79.4052   19.7762 O.3     1  UNL1       -0.4306
     36 C           7.7535   79.7492   18.5199 C.3     1  UNL1        0.2573
     37 C          13.8032   85.3077   24.7931 C.2     1  UNL1        0.2442
     38 O          12.8267   85.4872   24.0172 O.2     1  UNL1       -0.2730
     39 N          14.2196   83.9764   25.1470 N.am    1  UNL1       -0.2826
     40 H          15.1956   83.8557   25.4992 H       1  UNL1        0.1549
     41 C          14.5731   88.0044   23.1290 C.2     1  UNL1        0.2482
     42 O          14.3571   89.1621   22.6744 O.2     1  UNL1       -0.2727
     43 N          14.2191   87.7115   24.4961 N.am    1  UNL1       -0.2714
     44 C          13.5550   88.6930   25.3403 C.3     1  UNL1        0.0939
     45 C          13.3522   88.0158   26.6880 C.3     1  UNL1        0.0237
     46 C          14.3186   86.8369   26.7038 C.3     1  UNL1        0.0310
     47 C          14.5995   86.5109   25.2352 C.3     1  UNL1        0.1521
     48 C          15.1541   86.9579   22.1999 C.3     1  UNL1        0.1743
     49 C          14.2217   86.5769   21.0603 C.ar    1  UNL1        0.0044
     50 C          12.9372   87.1505   21.0241 C.ar    1  UNL1       -0.0022
     51 C          12.0241   86.7928   20.0277 C.ar    1  UNL1       -0.0003
     52 C          12.3801   85.8576   19.0544 C.ar    1  UNL1       -0.0000
     53 C          13.6446   85.2674   19.0846 C.ar    1  UNL1       -0.0003
     54 C          14.5577   85.6110   20.0865 C.ar    1  UNL1       -0.0022
     55 C          17.5340   87.7959   22.4848 C.2     1  UNL1        0.4023
     56 O          17.4602   87.6575   23.7372 O.2     1  UNL1       -0.2264
     57 N          16.4262   87.4368   21.6509 N.am    1  UNL1       -0.2606
     58 H          16.5031   87.6281   20.6258 H       1  UNL1        0.1535
     59 C          18.6766   89.3842   20.9715 C.3     1  UNL1        0.2573
     60 O          18.6954   88.3034   21.8962 O.3     1  UNL1       -0.4306
@<TRIPOS>BOND
     1    59    60    1
     2    60    55    1
     3    55    56    2
     4    55    57   am
     5    57    48    1
     6    48    41    1
     7    41    42    2
     8    41    43   am
     9    43    44    1
    10    44    45    1
    11    45    46    1
    12    46    47    1
    13    47    37    1
    14    37    38    2
    15    37    39   am
    16    39     1    1
    17     1     2   ar
    18     2     3   ar
    19     3     4   ar
    20     4     7    1
    21     7     8   ar
    22     8     9   ar
    23     9    10   ar
    24    10    13    1
    25    13    14   am
    26    14    15    2
    27    14    17    1
    28    17    18    1
    29    18    19    1
    30    19    20    1
    31    20    21    1
    32    21    22   am
    33    22    23    2
    34    22    24    1
    35    24    31    1
    36    31    32   am
    37    32    33    2
    38    32    35    1
    39    35    36    1
    40    24    25    1
    41    25    26   ar
    42    26    27   ar
    43    27    28   ar
    44    28    29   ar
    45    29    30   ar
    46    10    11   ar
    47    11    12   ar
    48     4     5   ar
    49     5     6   ar
    50    48    49    1
    51    49    50   ar
    52    50    51   ar
    53    51    52   ar
    54    52    53   ar
    55    53    54   ar
    56    47    43    1
    57     6     1   ar
    58    54    49   ar
    59    12     7   ar
    60    21    17    1
    61    30    25   ar
    62    57    58    1
    63    39    40    1
    64    13    16    1
    65    31    34    1
@<TRIPOS>MOLECULE
*****
 60 65 0 0 0
SMALL
GASTEIGER

@<TRIPOS>ATOM
      1 C          13.5601   82.9721   25.1652 C.ar    1  UNL1        0.0503
      2 C          12.2016   83.1243   24.8497 C.ar    1  UNL1        0.0147
      3 C          11.4085   82.0134   24.5532 C.ar    1  UNL1        0.0013
      4 C          11.9602   80.7218   24.5613 C.ar    1  UNL1        0.0001
      5 C          13.3193   80.5657   24.8770 C.ar    1  UNL1        0.0013
      6 C          14.1140   81.6781   25.1663 C.ar    1  UNL1        0.0147
      7 C          11.1214   79.5418   24.2388 C.ar    1  UNL1        0.0001
      8 C           9.9428   79.6900   23.4888 C.ar    1  UNL1        0.0013
      9 C           9.1740   78.5749   23.1468 C.ar    1  UNL1        0.0147
     10 C           9.5596   77.2877   23.5647 C.ar    1  UNL1        0.0503
     11 C          10.7320   77.1420   24.3200 C.ar    1  UNL1        0.0147
     12 C          11.5053   78.2563   24.6559 C.ar    1  UNL1        0.0013
     13 N           8.8344   76.1129   23.1608 N.am    1  UNL1       -0.2826
     14 C           8.9470   74.8418   23.8155 C.2     1  UNL1        0.2442
     15 O          10.0811   74.3916   24.1318 O.2     1  UNL1       -0.2730
     16 H           8.1003   76.2155   22.4243 H       1  UNL1        0.1549
     17 C           7.7174   74.0189   24.0953 C.3     1  UNL1        0.1521
     18 C           6.9280   73.7252   22.8187 C.3     1  UNL1        0.0310
     19 C           5.7068   74.6412   22.8543 C.3     1  UNL1        0.0237
     20 C           5.5527   75.0917   24.3018 C.3     1  UNL1        0.0939
     21 N           6.8051   74.7545   24.9607 N.am    1  UNL1       -0.2714
     22 C           7.1205   75.0845   26.3285 C.2     1  UNL1        0.2482
     23 O           8.1464   74.5820   26.8651 O.2     1  UNL1       -0.2727
     24 C           6.2325   75.9958   27.1450 C.3     1  UNL1        0.1743
     25 C           5.4392   75.1950   28.1568 C.ar    1  UNL1        0.0044
     26 C           4.9262   75.8052   29.3176 C.ar    1  UNL1       -0.0022
     27 C           4.1944   75.0578   30.2450 C.ar    1  UNL1       -0.0003
     28 C           3.9639   73.6981   30.0234 C.ar    1  UNL1       -0.0000
     29 C           4.4628   73.0835   28.8725 C.ar    1  UNL1       -0.0003
     30 C           5.1946   73.8265   27.9412 C.ar    1  UNL1       -0.0022
     31 N           7.0286   77.0289   27.8192 N.am    1  UNL1       -0.2606
     32 C           7.6121   78.1289   27.1099 C.2     1  UNL1        0.4023
     33 O           7.4192   78.2617   25.8699 O.2     1  UNL1       -0.2264
     34 H           7.2470   76.9378   28.8373 H       1  UNL1        0.1535
     35 O           8.3930   79.0550   27.8070 O.3     1  UNL1       -0.4306
     36 C           9.6825   78.7403   28.3193 C.3     1  UNL1        0.2573
     37 C          13.9628   85.4985   25.0826 C.2     1  UNL1        0.2442
     38 O          13.0333   85.7187   24.2608 O.2     1  UNL1       -0.2730
     39 N          14.3580   84.1503   25.3942 N.am    1  UNL1       -0.2826
     40 H          15.3118   84.0098   25.7965 H       1  UNL1        0.1549
     41 C          14.7863   88.2924   23.6161 C.2     1  UNL1        0.2482
     42 O          14.5827   89.4743   23.2220 O.2     1  UNL1       -0.2727
     43 N          14.3758   87.9173   24.9469 N.am    1  UNL1       -0.2714
     44 C          13.6698   88.8443   25.8183 C.3     1  UNL1        0.0939
     45 C          13.4137   88.0874   27.1134 C.3     1  UNL1        0.0237
     46 C          14.3860   86.9133   27.1011 C.3     1  UNL1        0.0310
     47 C          14.7318   86.6764   25.6293 C.3     1  UNL1        0.1521
     48 C          15.4133   87.3052   22.6526 C.3     1  UNL1        0.1743
     49 C          14.5060   86.9371   21.4888 C.ar    1  UNL1        0.0044
     50 C          13.1608   87.3480   21.5309 C.ar    1  UNL1       -0.0022
     51 C          12.2733   86.9898   20.5117 C.ar    1  UNL1       -0.0003
     52 C          12.7160   86.2164   19.4372 C.ar    1  UNL1       -0.0000
     53 C          14.0433   85.7873   19.3876 C.ar    1  UNL1       -0.0003
     54 C          14.9325   86.1310   20.4107 C.ar    1  UNL1       -0.0022
     55 C          17.8624   87.9146   22.9314 C.2     1  UNL1        0.4023
     56 O          17.8723   87.4461   24.1033 O.2     1  UNL1       -0.2264
     57 N          16.6724   87.8507   22.1369 N.am    1  UNL1       -0.2606
     58 H          16.6865   88.3084   21.1968 H       1  UNL1        0.1535
     59 C          18.9766   89.3433   21.2474 C.3     1  UNL1        0.2573
     60 O          19.0106   88.5038   22.3953 O.3     1  UNL1       -0.4306
@<TRIPOS>BOND
     1    59    60    1
     2    60    55    1
     3    55    56    2
     4    55    57   am
     5    57    48    1
     6    48    41    1
     7    41    42    2
     8    41    43   am
     9    43    44    1
    10    44    45    1
    11    45    46    1
    12    46    47    1
    13    47    37    1
    14    37    38    2
    15    37    39   am
    16    39     1    1
    17     1     2   ar
    18     2     3   ar
    19     3     4   ar
    20     4     7    1
    21     7     8   ar
    22     8     9   ar
    23     9    10   ar
    24    10    13    1
    25    13    14   am
    26    14    15    2
    27    14    17    1
    28    17    18    1
    29    18    19    1
    30    19    20    1
    31    20    21    1
    32    21    22   am
    33    22    23    2
    34    22    24    1
    35    24    31    1
    36    31    32   am
    37    32    33    2
    38    32    35    1
    39    35    36    1
    40    24    25    1
    41    25    26   ar
    42    26    27   ar
    43    27    28   ar
    44    28    29   ar
    45    29    30   ar
    46    10    11   ar
    47    11    12   ar
    48     4     5   ar
    49     5     6   ar
    50    48    49    1
    51    49    50   ar
    52    50    51   ar
    53    51    52   ar
    54    52    53   ar
    55    53    54   ar
    56    47    43    1
    57     6     1   ar
    58    54    49   ar
    59    12     7   ar
    60    21    17    1
    61    30    25   ar
    62    57    58    1
    63    39    40    1
    64    13    16    1
    65    31    34    1
@<TRIPOS>MOLECULE
*****
 60 65 0 0 0
SMALL
GASTEIGER

@<TRIPOS>ATOM
      1 C          13.4256   82.7955   25.0188 C.ar    1  UNL1        0.0503
      2 C          14.0391   81.5342   24.9881 C.ar    1  UNL1        0.0147
      3 C          13.2749   80.3710   24.8698 C.ar    1  UNL1        0.0013
      4 C          11.8749   80.4442   24.7840 C.ar    1  UNL1        0.0001
      5 C          11.2575   81.7049   24.8141 C.ar    1  UNL1        0.0013
      6 C          12.0221   82.8678   24.9398 C.ar    1  UNL1        0.0147
      7 C          11.0613   79.2096   24.6666 C.ar    1  UNL1        0.0001
      8 C          11.6185   78.0387   24.1263 C.ar    1  UNL1        0.0013
      9 C          10.8679   76.8628   24.0545 C.ar    1  UNL1        0.0147
     10 C           9.5352   76.8390   24.5058 C.ar    1  UNL1        0.0503
     11 C           8.9776   78.0105   25.0375 C.ar    1  UNL1        0.0147
     12 C           9.7305   79.1849   25.1165 C.ar    1  UNL1        0.0013
     13 N           8.7635   75.6251   24.5201 N.am    1  UNL1       -0.2826
     14 C           7.3814   75.5631   24.8984 C.2     1  UNL1        0.2442
     15 O           6.9776   76.1790   25.9214 O.2     1  UNL1       -0.2730
     16 H           9.1973   74.7604   24.1253 H       1  UNL1        0.1549
     17 C           6.4111   74.7326   24.1008 C.3     1  UNL1        0.1521
     18 C           7.0465   73.4301   23.6121 C.3     1  UNL1        0.0310
     19 C           7.3228   73.6248   22.1230 C.3     1  UNL1        0.0237
     20 C           6.4561   74.7962   21.6773 C.3     1  UNL1        0.0939
     21 N           6.0063   75.4476   22.8978 N.am    1  UNL1       -0.2714
     22 C           5.2249   76.6590   22.9342 C.2     1  UNL1        0.2482
     23 O           4.7212   77.0372   24.0279 O.2     1  UNL1       -0.2727
     24 C           4.9694   77.4707   21.6847 C.3     1  UNL1        0.1743
     25 C           6.2755   77.9643   21.0975 C.ar    1  UNL1        0.0044
     26 C           6.3302   78.4725   19.7853 C.ar    1  UNL1       -0.0022
     27 C           7.5403   78.9266   19.2527 C.ar    1  UNL1       -0.0003
     28 C           8.7051   78.8822   20.0223 C.ar    1  UNL1       -0.0000
     29 C           8.6617   78.3858   21.3273 C.ar    1  UNL1       -0.0003
     30 C           7.4539   77.9312   21.8652 C.ar    1  UNL1       -0.0022
     31 N           4.2283   76.6799   20.6942 N.am    1  UNL1       -0.2606
     32 C           2.8017   76.5500   20.7318 C.2     1  UNL1        0.4023
     33 O           2.1297   77.1565   21.6111 O.2     1  UNL1       -0.2264
     34 H           4.7466   76.1290   19.9728 H       1  UNL1        0.1535
     35 O           2.1628   75.7481   19.7820 O.3     1  UNL1       -0.4306
     36 C           2.8192   75.2723   18.6128 C.3     1  UNL1        0.2573
     37 C          13.8427   85.3199   24.9482 C.2     1  UNL1        0.2442
     38 O          12.8646   85.5593   24.1907 O.2     1  UNL1       -0.2730
     39 N          14.2460   83.9643   25.2140 N.am    1  UNL1       -0.2826
     40 H          15.2222   83.8108   25.5525 H       1  UNL1        0.1549
     41 C          14.5316   88.1607   23.5026 C.2     1  UNL1        0.2482
     42 O          14.2927   89.3532   23.1642 O.2     1  UNL1       -0.2727
     43 N          14.2387   87.7434   24.8518 N.am    1  UNL1       -0.2714
     44 C          13.6096   88.6405   25.8092 C.3     1  UNL1        0.0939
     45 C          13.4680   87.8432   27.0977 C.3     1  UNL1        0.0237
     46 C          14.4373   86.6741   26.9650 C.3     1  UNL1        0.0310
     47 C          14.6544   86.4837   25.4622 C.3     1  UNL1        0.1521
     48 C          15.0740   87.2060   22.4584 C.3     1  UNL1        0.1743
     49 C          14.0618   86.8505   21.3803 C.ar    1  UNL1        0.0044
     50 C          14.4816   86.0455   20.3053 C.ar    1  UNL1       -0.0022
     51 C          13.6044   85.7344   19.2620 C.ar    1  UNL1       -0.0003
     52 C          12.2968   86.2230   19.2772 C.ar    1  UNL1       -0.0000
     53 C          11.8687   87.0357   20.3281 C.ar    1  UNL1       -0.0003
     54 C          12.7453   87.3614   21.3678 C.ar    1  UNL1       -0.0022
     55 C          17.5605   87.7205   22.4512 C.2     1  UNL1        0.4023
     56 O          17.7164   87.1093   23.5444 O.2     1  UNL1       -0.2264
     57 N          16.2689   87.7831   21.8353 N.am    1  UNL1       -0.2606
     58 H          16.1689   88.3541   20.9651 H       1  UNL1        0.1535
     59 C          18.4851   89.4135   20.9028 C.3     1  UNL1        0.2573
     60 O          18.6445   88.3460   21.8294 O.3     1  UNL1       -0.4306
@<TRIPOS>BOND
     1    59    60    1
     2    60    55    1
     3    55    56    2
     4    55    57   am
     5    57    48    1
     6    48    41    1
     7    41    42    2
     8    41    43   am
     9    43    44    1
    10    44    45    1
    11    45    46    1
    12    46    47    1
    13    47    37    1
    14    37    38    2
    15    37    39   am
    16    39     1    1
    17     1     2   ar
    18     2     3   ar
    19     3     4   ar
    20     4     7    1
    21     7     8   ar
    22     8     9   ar
    23     9    10   ar
    24    10    13    1
    25    13    14   am
    26    14    15    2
    27    14    17    1
    28    17    18    1
    29    18    19    1
    30    19    20    1
    31    20    21    1
    32    21    22   am
    33    22    23    2
    34    22    24    1
    35    24    31    1
    36    31    32   am
    37    32    33    2
    38    32    35    1
    39    35    36    1
    40    24    25    1
    41    25    26   ar
    42    26    27   ar
    43    27    28   ar
    44    28    29   ar
    45    29    30   ar
    46    10    11   ar
    47    11    12   ar
    48     4     5   ar
    49     5     6   ar
    50    48    49    1
    51    49    50   ar
    52    50    51   ar
    53    51    52   ar
    54    52    53   ar
    55    53    54   ar
    56    47    43    1
    57     6     1   ar
    58    54    49   ar
    59    12     7   ar
    60    21    17    1
    61    30    25   ar
    62    57    58    1
    63    39    40    1
    64    13    16    1
    65    31    34    1
@<TRIPOS>MOLECULE
*****
 60 65 0 0 0
SMALL
GASTEIGER

@<TRIPOS>ATOM
      1 C           8.7936   77.6431   26.3114 C.ar    1  UNL1        0.0503
      2 C           9.5757   77.5323   25.1519 C.ar    1  UNL1        0.0147
      3 C          10.4786   78.5384   24.8007 C.ar    1  UNL1        0.0013
      4 C          10.6161   79.6836   25.6021 C.ar    1  UNL1        0.0001
      5 C           9.8353   79.7977   26.7635 C.ar    1  UNL1        0.0013
      6 C           8.9269   78.7942   27.1104 C.ar    1  UNL1        0.0147
      7 C          11.5685   80.7568   25.2264 C.ar    1  UNL1        0.0001
      8 C          11.1022   82.0438   24.9105 C.ar    1  UNL1        0.0013
      9 C          12.0001   83.0675   24.5985 C.ar    1  UNL1        0.0147
     10 C          13.3850   82.8194   24.5780 C.ar    1  UNL1        0.0503
     11 C          13.8488   81.5323   24.8856 C.ar    1  UNL1        0.0147
     12 C          12.9515   80.5100   25.2052 C.ar    1  UNL1        0.0013
     13 N          14.3379   83.8706   24.3403 N.am    1  UNL1       -0.2826
     14 C          14.4419   84.5878   23.1026 C.2     1  UNL1        0.2442
     15 O          14.4129   83.9655   22.0068 O.2     1  UNL1       -0.2730
     16 H          14.9088   84.2101   25.1468 H       1  UNL1        0.1549
     17 C          14.6249   86.0824   23.1027 C.3     1  UNL1        0.1521
     18 C          13.7956   86.7559   24.1971 C.3     1  UNL1        0.0310
     19 C          12.6096   87.4083   23.4903 C.3     1  UNL1        0.0237
     20 C          12.9928   87.5112   22.0191 C.3     1  UNL1        0.0939
     21 N          14.1511   86.6481   21.8466 N.am    1  UNL1       -0.2714
     22 C          14.7895   86.3848   20.5807 C.2     1  UNL1        0.2482
     23 O          15.8982   85.7821   20.5608 O.2     1  UNL1       -0.2727
     24 C          14.1749   86.8418   19.2772 C.3     1  UNL1        0.1743
     25 C          14.3136   85.7658   18.2202 C.ar    1  UNL1        0.0044
     26 C          14.7304   86.0870   16.9140 C.ar    1  UNL1       -0.0022
     27 C          14.8563   85.0866   15.9457 C.ar    1  UNL1       -0.0003
     28 C          14.5722   83.7580   16.2700 C.ar    1  UNL1       -0.0000
     29 C          14.1638   83.4267   17.5641 C.ar    1  UNL1       -0.0003
     30 C          14.0370   84.4232   18.5366 C.ar    1  UNL1       -0.0022
     31 N          12.7628   87.1969   19.4653 N.am    1  UNL1       -0.2606
     32 C          12.1755   88.3496   18.8489 C.2     1  UNL1        0.4023
     33 O          12.8608   89.0806   18.0819 O.2     1  UNL1       -0.2264
     34 H          12.1686   86.6430   20.1230 H       1  UNL1        0.1535
     35 O          10.8349   88.6526   19.1031 O.3     1  UNL1       -0.4306
     36 C          10.0414   89.4287   18.2130 C.3     1  UNL1        0.2573
     37 C           6.4152   76.8323   26.7985 C.2     1  UNL1        0.2442
     38 O           5.9790   77.9782   27.0890 O.2     1  UNL1       -0.2730
     39 N           7.8237   76.6162   26.5979 N.am    1  UNL1       -0.2826
     40 H           8.1782   75.6381   26.6923 H       1  UNL1        0.1549
     41 C           6.1173   74.3918   24.6560 C.2     1  UNL1        0.2482
     42 O           6.4103   73.2668   24.1641 O.2     1  UNL1       -0.2727
     43 N           5.9898   74.5187   26.0871 N.am    1  UNL1       -0.2714
     44 C           6.2604   73.4023   26.9801 C.3     1  UNL1        0.0939
     45 C           6.0204   73.9265   28.3885 C.3     1  UNL1        0.0237
     46 C           5.1792   75.1864   28.2192 C.3     1  UNL1        0.0310
     47 C           5.4463   75.6753   26.7938 C.3     1  UNL1        0.1521
     48 C           5.9578   75.5726   23.7200 C.3     1  UNL1        0.1743
     49 C           7.2133   75.8835   22.9197 C.ar    1  UNL1        0.0044
     50 C           8.2589   74.9419   22.9196 C.ar    1  UNL1       -0.0022
     51 C           9.4543   75.2035   22.2434 C.ar    1  UNL1       -0.0003
     52 C           9.6226   76.4083   21.5588 C.ar    1  UNL1       -0.0000
     53 C           8.6014   77.3599   21.5617 C.ar    1  UNL1       -0.0003
     54 C           7.4086   77.1098   22.2473 C.ar    1  UNL1       -0.0022
     55 C           3.6759   76.1593   22.7732 C.2     1  UNL1        0.4023
     56 O           3.6003   77.1763   23.5169 O.2     1  UNL1       -0.2264
     57 N           4.8415   75.3274   22.8019 N.am    1  UNL1       -0.2606
     58 H           4.8373   74.4590   22.2196 H       1  UNL1        0.1535
     59 C           2.2546   76.6433   20.8075 C.3     1  UNL1        0.2573
     60 O           2.6232   75.8303   21.9151 O.3     1  UNL1       -0.4306
@<TRIPOS>BOND
     1    59    60    1
     2    60    55    1
     3    55    56    2
     4    55    57   am
     5    57    48    1
     6    48    41    1
     7    41    42    2
     8    41    43   am
     9    43    44    1
    10    44    45    1
    11    45    46    1
    12    46    47    1
    13    47    37    1
    14    37    38    2
    15    37    39   am
    16    39     1    1
    17     1     2   ar
    18     2     3   ar
    19     3     4   ar
    20     4     7    1
    21     7     8   ar
    22     8     9   ar
    23     9    10   ar
    24    10    13    1
    25    13    14   am
    26    14    15    2
    27    14    17    1
    28    17    18    1
    29    18    19    1
    30    19    20    1
    31    20    21    1
    32    21    22   am
    33    22    23    2
    34    22    24    1
    35    24    31    1
    36    31    32   am
    37    32    33    2
    38    32    35    1
    39    35    36    1
    40    24    25    1
    41    25    26   ar
    42    26    27   ar
    43    27    28   ar
    44    28    29   ar
    45    29    30   ar
    46    10    11   ar
    47    11    12   ar
    48     4     5   ar
    49     5     6   ar
    50    48    49    1
    51    49    50   ar
    52    50    51   ar
    53    51    52   ar
    54    52    53   ar
    55    53    54   ar
    56    47    43    1
    57     6     1   ar
    58    54    49   ar
    59    12     7   ar
    60    21    17    1
    61    30    25   ar
    62    57    58    1
    63    39    40    1
    64    13    16    1
    65    31    34    1
@<TRIPOS>MOLECULE
*****
 60 65 0 0 0
SMALL
GASTEIGER

@<TRIPOS>ATOM
      1 C          13.6245   83.6073   24.9689 C.ar    1  UNL1        0.0503
      2 C          13.6576   82.9082   26.1848 C.ar    1  UNL1        0.0147
      3 C          12.8971   81.7504   26.3637 C.ar    1  UNL1        0.0013
      4 C          12.0804   81.2675   25.3281 C.ar    1  UNL1        0.0001
      5 C          12.0451   81.9645   24.1098 C.ar    1  UNL1        0.0013
      6 C          12.8005   83.1268   23.9339 C.ar    1  UNL1        0.0147
      7 C          11.2659   80.0428   25.5192 C.ar    1  UNL1        0.0001
      8 C          10.0101   80.1136   26.1450 C.ar    1  UNL1        0.0013
      9 C           9.2222   78.9689   26.2873 C.ar    1  UNL1        0.0147
     10 C           9.6834   77.7236   25.8220 C.ar    1  UNL1        0.0503
     11 C          10.9405   77.6527   25.2047 C.ar    1  UNL1        0.0147
     12 C          11.7256   78.7988   25.0553 C.ar    1  UNL1        0.0013
     13 N           8.8629   76.5435   25.8807 N.am    1  UNL1       -0.2826
     14 C           7.8482   76.3262   26.8709 C.2     1  UNL1        0.2442
     15 O           8.0827   76.5805   28.0830 O.2     1  UNL1       -0.2730
     16 H           8.9280   75.8580   25.0948 H       1  UNL1        0.1549
     17 C           6.5107   75.7575   26.4771 C.3     1  UNL1        0.1521
     18 C           5.8467   75.0131   27.6364 C.3     1  UNL1        0.0310
     19 C           6.0028   73.5251   27.3307 C.3     1  UNL1        0.0237
     20 C           6.3160   73.4252   25.8428 C.3     1  UNL1        0.0939
     21 N           6.6751   74.7698   25.4189 N.am    1  UNL1       -0.2714
     22 C           7.1267   75.1126   24.0930 C.2     1  UNL1        0.2482
     23 O           7.2268   76.3282   23.7689 O.2     1  UNL1       -0.2727
     24 C           7.4539   74.0475   23.0712 C.3     1  UNL1        0.1743
     25 C           6.4313   74.0534   21.9539 C.ar    1  UNL1        0.0044
     26 C           5.1034   74.4565   22.1933 C.ar    1  UNL1       -0.0022
     27 C           4.1672   74.4595   21.1552 C.ar    1  UNL1       -0.0003
     28 C           4.5451   74.0649   19.8698 C.ar    1  UNL1       -0.0000
     29 C           5.8610   73.6689   19.6191 C.ar    1  UNL1       -0.0003
     30 C           6.8017   73.6649   20.6535 C.ar    1  UNL1       -0.0022
     31 N           8.8049   74.2439   22.5310 N.am    1  UNL1       -0.2606
     32 C           9.7029   73.1511   22.3010 C.2     1  UNL1        0.4023
     33 O           9.3336   71.9652   22.5241 O.2     1  UNL1       -0.2264
     34 H           9.1667   75.2111   22.3692 H       1  UNL1        0.1535
     35 O          10.9900   73.4126   21.8232 O.3     1  UNL1       -0.4306
     36 C          12.0599   72.4836   21.9519 C.3     1  UNL1        0.2573
     37 C          13.8387   86.0909   24.3876 C.2     1  UNL1        0.2442
     38 O          12.7745   86.1255   23.7138 O.2     1  UNL1       -0.2730
     39 N          14.3688   84.8361   24.8517 N.am    1  UNL1       -0.2826
     40 H          15.3828   84.8052   25.1007 H       1  UNL1        0.1549
     41 C          14.6884   88.3487   22.1933 C.2     1  UNL1        0.2482
     42 O          14.4935   89.3689   21.4758 O.2     1  UNL1       -0.2727
     43 N          14.2626   88.3698   23.5712 N.am    1  UNL1       -0.2714
     44 C          13.5512   89.5077   24.1336 C.3     1  UNL1        0.0939
     45 C          13.2786   89.1524   25.5880 C.3     1  UNL1        0.0237
     46 C          14.2463   88.0230   25.9224 C.3     1  UNL1        0.0310
     47 C          14.6066   87.3752   24.5835 C.3     1  UNL1        0.1521
     48 C          15.3215   87.1269   21.5590 C.3     1  UNL1        0.1743
     49 C          14.3959   86.3964   20.5984 C.ar    1  UNL1        0.0044
     50 C          14.9040   85.2958   19.8838 C.ar    1  UNL1       -0.0022
     51 C          14.1100   84.6237   18.9497 C.ar    1  UNL1       -0.0003
     52 C          12.7985   85.0410   18.7159 C.ar    1  UNL1       -0.0000
     53 C          12.2838   86.1405   19.4047 C.ar    1  UNL1       -0.0003
     54 C          13.0774   86.8252   20.3305 C.ar    1  UNL1       -0.0022
     55 C          17.5769   88.2908   21.4807 C.2     1  UNL1        0.4023
     56 O          17.4765   88.6230   22.6943 O.2     1  UNL1       -0.2264
     57 N          16.5476   87.5154   20.8556 N.am    1  UNL1       -0.2606
     58 H          16.6372   87.3172   19.8328 H       1  UNL1        0.1535
     59 C          19.9413   89.0012   21.3277 C.3     1  UNL1        0.2573
     60 O          18.6912   88.6774   20.7312 O.3     1  UNL1       -0.4306
@<TRIPOS>BOND
     1    59    60    1
     2    60    55    1
     3    55    56    2
     4    55    57   am
     5    57    48    1
     6    48    41    1
     7    41    42    2
     8    41    43   am
     9    43    44    1
    10    44    45    1
    11    45    46    1
    12    46    47    1
    13    47    37    1
    14    37    38    2
    15    37    39   am
    16    39     1    1
    17     1     2   ar
    18     2     3   ar
    19     3     4   ar
    20     4     7    1
    21     7     8   ar
    22     8     9   ar
    23     9    10   ar
    24    10    13    1
    25    13    14   am
    26    14    15    2
    27    14    17    1
    28    17    18    1
    29    18    19    1
    30    19    20    1
    31    20    21    1
    32    21    22   am
    33    22    23    2
    34    22    24    1
    35    24    31    1
    36    31    32   am
    37    32    33    2
    38    32    35    1
    39    35    36    1
    40    24    25    1
    41    25    26   ar
    42    26    27   ar
    43    27    28   ar
    44    28    29   ar
    45    29    30   ar
    46    10    11   ar
    47    11    12   ar
    48     4     5   ar
    49     5     6   ar
    50    48    49    1
    51    49    50   ar
    52    50    51   ar
    53    51    52   ar
    54    52    53   ar
    55    53    54   ar
    56    47    43    1
    57     6     1   ar
    58    54    49   ar
    59    12     7   ar
    60    21    17    1
    61    30    25   ar
    62    57    58    1
    63    39    40    1
    64    13    16    1
    65    31    34    1
@<TRIPOS>MOLECULE
*****
 60 65 0 0 0
SMALL
GASTEIGER

@<TRIPOS>ATOM
      1 C          13.5611   82.7854   25.2723 C.ar    1  UNL1        0.0503
      2 C          12.1969   82.9082   24.9690 C.ar    1  UNL1        0.0147
      3 C          11.4379   81.7871   24.6254 C.ar    1  UNL1        0.0013
      4 C          12.0304   80.5147   24.5729 C.ar    1  UNL1        0.0001
      5 C          13.3954   80.3880   24.8762 C.ar    1  UNL1        0.0013
      6 C          14.1558   81.5110   25.2128 C.ar    1  UNL1        0.0147
      7 C          11.2279   79.3243   24.2003 C.ar    1  UNL1        0.0001
      8 C           9.9286   79.4740   23.6873 C.ar    1  UNL1        0.0013
      9 C           9.1872   78.3569   23.2951 C.ar    1  UNL1        0.0147
     10 C           9.7244   77.0629   23.4256 C.ar    1  UNL1        0.0503
     11 C          11.0183   76.9143   23.9453 C.ar    1  UNL1        0.0147
     12 C          11.7632   78.0318   24.3306 C.ar    1  UNL1        0.0013
     13 N           9.0188   75.9005   22.9562 N.am    1  UNL1       -0.2826
     14 C           9.0945   74.6136   23.5850 C.2     1  UNL1        0.2442
     15 O          10.2097   74.1523   23.9487 O.2     1  UNL1       -0.2730
     16 H           8.3242   76.0233   22.1853 H       1  UNL1        0.1549
     17 C           7.8504   73.7883   23.7804 C.3     1  UNL1        0.1521
     18 C           7.3462   73.2001   22.4618 C.3     1  UNL1        0.0310
     19 C           6.1256   74.0281   22.0665 C.3     1  UNL1        0.0237
     20 C           5.6685   74.7457   23.3307 C.3     1  UNL1        0.0939
     21 N           6.7652   74.6230   24.2785 N.am    1  UNL1       -0.2714
     22 C           6.7863   75.2358   25.5837 C.2     1  UNL1        0.2482
     23 O           7.6899   74.9133   26.4037 O.2     1  UNL1       -0.2727
     24 C           5.7315   76.2342   26.0034 C.3     1  UNL1        0.1743
     25 C           6.3392   77.3097   26.8799 C.ar    1  UNL1        0.0044
     26 C           7.5182   77.9752   26.4925 C.ar    1  UNL1       -0.0022
     27 C           8.0709   78.9673   27.3078 C.ar    1  UNL1       -0.0003
     28 C           7.4531   79.3079   28.5133 C.ar    1  UNL1       -0.0000
     29 C           6.2799   78.6587   28.9049 C.ar    1  UNL1       -0.0003
     30 C           5.7224   77.6664   28.0929 C.ar    1  UNL1       -0.0022
     31 N           5.0871   76.8337   24.8283 N.am    1  UNL1       -0.2606
     32 C           3.6671   77.0044   24.7387 C.2     1  UNL1        0.4023
     33 O           2.9235   76.6738   25.7031 O.2     1  UNL1       -0.2264
     34 H           5.6596   77.0853   23.9908 H       1  UNL1        0.1535
     35 O           3.1156   77.5449   23.5737 O.3     1  UNL1       -0.4306
     36 C           2.2343   78.6618   23.5884 C.3     1  UNL1        0.2573
     37 C          13.9083   85.3212   25.2479 C.2     1  UNL1        0.2442
     38 O          13.0057   85.5351   24.3950 O.2     1  UNL1       -0.2730
     39 N          14.3224   83.9769   25.5516 N.am    1  UNL1       -0.2826
     40 H          15.2632   83.8507   25.9876 H       1  UNL1        0.1549
     41 C          14.3371   88.3122   24.0212 C.2     1  UNL1        0.2482
     42 O          13.9952   89.5029   23.7786 O.2     1  UNL1       -0.2727
     43 N          14.1006   87.7697   25.3365 N.am    1  UNL1       -0.2714
     44 C          13.4142   88.5348   26.3663 C.3     1  UNL1        0.0939
     45 C          13.3589   87.6321   27.5902 C.3     1  UNL1        0.0237
     46 C          14.4196   86.5620   27.3584 C.3     1  UNL1        0.0310
     47 C          14.6286   86.5061   25.8434 C.3     1  UNL1        0.1521
     48 C          14.9407   87.4892   22.9012 C.3     1  UNL1        0.1743
     49 C          13.9592   87.1811   21.7809 C.ar    1  UNL1        0.0044
     50 C          14.4349   86.5135   20.6371 C.ar    1  UNL1       -0.0022
     51 C          13.5853   86.2543   19.5575 C.ar    1  UNL1       -0.0003
     52 C          12.2499   86.6583   19.6044 C.ar    1  UNL1       -0.0000
     53 C          11.7656   87.3353   20.7249 C.ar    1  UNL1       -0.0003
     54 C          12.6138   87.6093   21.8024 C.ar    1  UNL1       -0.0022
     55 C          17.4500   87.7897   22.6553 C.2     1  UNL1        0.4023
     56 O          17.6680   86.7790   23.3791 O.2     1  UNL1       -0.2264
     57 N          16.1075   88.1853   22.3507 N.am    1  UNL1       -0.2606
     58 H          15.9689   89.0652   21.8031 H       1  UNL1        0.1535
     59 C          19.5799   89.0100   22.9599 C.3     1  UNL1        0.2573
     60 O          18.5146   88.5371   22.1444 O.3     1  UNL1       -0.4306
@<TRIPOS>BOND
     1    59    60    1
     2    60    55    1
     3    55    56    2
     4    55    57   am
     5    57    48    1
     6    48    41    1
     7    41    42    2
     8    41    43   am
     9    43    44    1
    10    44    45    1
    11    45    46    1
    12    46    47    1
    13    47    37    1
    14    37    38    2
    15    37    39   am
    16    39     1    1
    17     1     2   ar
    18     2     3   ar
    19     3     4   ar
    20     4     7    1
    21     7     8   ar
    22     8     9   ar
    23     9    10   ar
    24    10    13    1
    25    13    14   am
    26    14    15    2
    27    14    17    1
    28    17    18    1
    29    18    19    1
    30    19    20    1
    31    20    21    1
    32    21    22   am
    33    22    23    2
    34    22    24    1
    35    24    31    1
    36    31    32   am
    37    32    33    2
    38    32    35    1
    39    35    36    1
    40    24    25    1
    41    25    26   ar
    42    26    27   ar
    43    27    28   ar
    44    28    29   ar
    45    29    30   ar
    46    10    11   ar
    47    11    12   ar
    48     4     5   ar
    49     5     6   ar
    50    48    49    1
    51    49    50   ar
    52    50    51   ar
    53    51    52   ar
    54    52    53   ar
    55    53    54   ar
    56    47    43    1
    57     6     1   ar
    58    54    49   ar
    59    12     7   ar
    60    21    17    1
    61    30    25   ar
    62    57    58    1
    63    39    40    1
    64    13    16    1
    65    31    34    1
@<TRIPOS>MOLECULE
*****
 60 65 0 0 0
SMALL
GASTEIGER

@<TRIPOS>ATOM
      1 C           8.2238   77.9851   27.2697 C.ar    1  UNL1        0.0503
      2 C           8.5314   78.0115   25.9012 C.ar    1  UNL1        0.0147
      3 C           9.4734   78.9119   25.3982 C.ar    1  UNL1        0.0013
      4 C          10.1272   79.8118   26.2557 C.ar    1  UNL1        0.0001
      5 C           9.8221   79.7879   27.6260 C.ar    1  UNL1        0.0013
      6 C           8.8743   78.8919   28.1274 C.ar    1  UNL1        0.0147
      7 C          11.1218   80.7741   25.7221 C.ar    1  UNL1        0.0001
      8 C          10.8529   81.4984   24.5487 C.ar    1  UNL1        0.0013
      9 C          11.7692   82.4368   24.0680 C.ar    1  UNL1        0.0147
     10 C          12.9844   82.6572   24.7426 C.ar    1  UNL1        0.0503
     11 C          13.2551   81.9279   25.9092 C.ar    1  UNL1        0.0147
     12 C          12.3355   80.9946   26.3946 C.ar    1  UNL1        0.0013
     13 N          13.9109   83.6727   24.3188 N.am    1  UNL1       -0.2826
     14 C          13.6503   85.0799   24.4142 C.2     1  UNL1        0.2442
     15 O          12.5304   85.5407   24.0643 O.2     1  UNL1       -0.2730
     16 H          14.8708   83.3758   24.0323 H       1  UNL1        0.1549
     17 C          14.7227   86.0211   24.8954 C.3     1  UNL1        0.1521
     18 C          14.2664   86.8272   26.1123 C.3     1  UNL1        0.0310
     19 C          13.9670   88.2348   25.6015 C.3     1  UNL1        0.0237
     20 C          14.6703   88.3593   24.2555 C.3     1  UNL1        0.0939
     21 N          15.0291   87.0045   23.8652 N.am    1  UNL1       -0.2714
     22 C          15.6424   86.6544   22.6080 C.2     1  UNL1        0.2482
     23 O          16.0909   85.4863   22.4429 O.2     1  UNL1       -0.2727
     24 C          15.7878   87.6648   21.4928 C.3     1  UNL1        0.1743
     25 C          17.1574   88.3102   21.5382 C.ar    1  UNL1        0.0044
     26 C          17.9158   88.3104   22.7248 C.ar    1  UNL1       -0.0022
     27 C          19.1793   88.9079   22.7564 C.ar    1  UNL1       -0.0003
     28 C          19.7000   89.5067   21.6070 C.ar    1  UNL1       -0.0000
     29 C          18.9593   89.5072   20.4227 C.ar    1  UNL1       -0.0003
     30 C          17.6955   88.9104   20.3853 C.ar    1  UNL1       -0.0022
     31 N          15.5618   87.0329   20.1870 N.am    1  UNL1       -0.2606
     32 C          14.3430   87.2076   19.4537 C.2     1  UNL1        0.4023
     33 O          13.4312   87.9557   19.9024 O.2     1  UNL1       -0.2264
     34 H          16.2728   86.3741   19.7960 H       1  UNL1        0.1535
     35 O          14.1772   86.5441   18.2348 O.3     1  UNL1       -0.4306
     36 C          14.5911   85.1982   18.0311 C.3     1  UNL1        0.2573
     37 C           5.8719   77.4816   28.1454 C.2     1  UNL1        0.2442
     38 O           5.6290   78.6761   28.4650 O.2     1  UNL1       -0.2730
     39 N           7.1944   77.0899   27.7349 N.am    1  UNL1       -0.2826
     40 H           7.4384   76.0765   27.8029 H       1  UNL1        0.1549
     41 C           5.5767   74.5208   26.8110 C.2     1  UNL1        0.2482
     42 O           5.7973   73.2803   26.7327 O.2     1  UNL1       -0.2727
     43 N           5.2738   75.0985   28.0974 N.am    1  UNL1       -0.2714
     44 C           5.2870   74.3017   29.3148 C.3     1  UNL1        0.0939
     45 C           4.9239   75.2565   30.4427 C.3     1  UNL1        0.0237
     46 C           4.2690   76.4569   29.7688 C.3     1  UNL1        0.0310
     47 C           4.7817   76.4540   28.3269 C.3     1  UNL1        0.1521
     48 C           5.6862   75.3571   25.5522 C.3     1  UNL1        0.1743
     49 C           6.7047   74.8217   24.5575 C.ar    1  UNL1        0.0044
     50 C           6.2351   74.2039   23.3836 C.ar    1  UNL1       -0.0022
     51 C           7.1291   73.6485   22.4633 C.ar    1  UNL1       -0.0003
     52 C           8.5034   73.7015   22.7022 C.ar    1  UNL1       -0.0000
     53 C           8.9854   74.2968   23.8691 C.ar    1  UNL1       -0.0003
     54 C           8.0957   74.8423   24.7999 C.ar    1  UNL1       -0.0022
     55 C           3.6819   76.6943   24.7512 C.2     1  UNL1        0.4023
     56 O           4.2177   77.7728   25.1293 O.2     1  UNL1       -0.2264
     57 N           4.3739   75.4499   24.9055 N.am    1  UNL1       -0.2606
     58 H           3.8693   74.5732   24.6404 H       1  UNL1        0.1535
     59 C           1.9670   77.7247   23.2965 C.3     1  UNL1        0.2573
     60 O           2.4064   76.7001   24.1801 O.3     1  UNL1       -0.4306
@<TRIPOS>BOND
     1    59    60    1
     2    60    55    1
     3    55    56    2
     4    55    57   am
     5    57    48    1
     6    48    41    1
     7    41    42    2
     8    41    43   am
     9    43    44    1
    10    44    45    1
    11    45    46    1
    12    46    47    1
    13    47    37    1
    14    37    38    2
    15    37    39   am
    16    39     1    1
    17     1     2   ar
    18     2     3   ar
    19     3     4   ar
    20     4     7    1
    21     7     8   ar
    22     8     9   ar
    23     9    10   ar
    24    10    13    1
    25    13    14   am
    26    14    15    2
    27    14    17    1
    28    17    18    1
    29    18    19    1
    30    19    20    1
    31    20    21    1
    32    21    22   am
    33    22    23    2
    34    22    24    1
    35    24    31    1
    36    31    32   am
    37    32    33    2
    38    32    35    1
    39    35    36    1
    40    24    25    1
    41    25    26   ar
    42    26    27   ar
    43    27    28   ar
    44    28    29   ar
    45    29    30   ar
    46    10    11   ar
    47    11    12   ar
    48     4     5   ar
    49     5     6   ar
    50    48    49    1
    51    49    50   ar
    52    50    51   ar
    53    51    52   ar
    54    52    53   ar
    55    53    54   ar
    56    47    43    1
    57     6     1   ar
    58    54    49   ar
    59    12     7   ar
    60    21    17    1
    61    30    25   ar
    62    57    58    1
    63    39    40    1
    64    13    16    1
    65    31    34    1
@<TRIPOS>MOLECULE
*****
 60 65 0 0 0
SMALL
GASTEIGER

@<TRIPOS>ATOM
      1 C          13.3517   83.0009   24.3537 C.ar    1  UNL1        0.0503
      2 C          13.9904   81.8117   24.7360 C.ar    1  UNL1        0.0147
      3 C          13.2530   80.7289   25.2203 C.ar    1  UNL1        0.0013
      4 C          11.8559   80.8140   25.3376 C.ar    1  UNL1        0.0001
      5 C          11.2134   82.0024   24.9555 C.ar    1  UNL1        0.0013
      6 C          11.9524   83.0880   24.4779 C.ar    1  UNL1        0.0147
      7 C          11.0721   79.6680   25.8594 C.ar    1  UNL1        0.0001
      8 C           9.8915   79.8865   26.5888 C.ar    1  UNL1        0.0013
      9 C           9.1285   78.8085   27.0441 C.ar    1  UNL1        0.0147
     10 C           9.5416   77.4867   26.7943 C.ar    1  UNL1        0.0503
     11 C          10.7243   77.2700   26.0730 C.ar    1  UNL1        0.0147
     12 C          11.4838   78.3479   25.6109 C.ar    1  UNL1        0.0013
     13 N           8.7371   76.3579   27.1789 N.am    1  UNL1       -0.2826
     14 C           8.0970   76.2330   28.4563 C.2     1  UNL1        0.2442
     15 O           8.7282   76.5155   29.5102 O.2     1  UNL1       -0.2730
     16 H           8.5108   75.6430   26.4513 H       1  UNL1        0.1549
     17 C           6.6817   75.7277   28.5516 C.3     1  UNL1        0.1521
     18 C           6.6059   74.3854   29.2806 C.3     1  UNL1        0.0310
     19 C           6.3749   73.3290   28.2024 C.3     1  UNL1        0.0237
     20 C           5.8677   74.0755   26.9746 C.3     1  UNL1        0.0939
     21 N           6.1436   75.4826   27.2202 N.am    1  UNL1       -0.2714
     22 C           5.8982   76.5388   26.2697 C.2     1  UNL1        0.2482
     23 O           5.9873   77.7408   26.6442 O.2     1  UNL1       -0.2727
     24 C           5.5061   76.2387   24.8408 C.3     1  UNL1        0.1743
     25 C           4.1791   76.8888   24.5080 C.ar    1  UNL1        0.0044
     26 C           3.2114   77.1062   25.5076 C.ar    1  UNL1       -0.0022
     27 C           1.9899   77.7078   25.1907 C.ar    1  UNL1       -0.0003
     28 C           1.7228   78.1014   23.8775 C.ar    1  UNL1       -0.0000
     29 C           2.6776   77.8964   22.8787 C.ar    1  UNL1       -0.0003
     30 C           3.9012   77.2959   23.1904 C.ar    1  UNL1       -0.0022
     31 N           6.5472   76.6927   23.9104 N.am    1  UNL1       -0.2606
     32 C           7.8281   76.0558   23.8262 C.2     1  UNL1        0.4023
     33 O           8.0843   75.0439   24.5352 O.2     1  UNL1       -0.2264
     34 H           6.3932   77.5504   23.3332 H       1  UNL1        0.1535
     35 O           8.7884   76.5647   22.9474 O.3     1  UNL1       -0.4306
     36 C           8.7139   77.8784   22.4062 C.3     1  UNL1        0.2573
     37 C          13.7170   85.4865   23.8634 C.2     1  UNL1        0.2442
     38 O          12.4878   85.7626   23.8382 O.2     1  UNL1       -0.2730
     39 N          14.1569   84.1178   23.9273 N.am    1  UNL1       -0.2826
     40 H          15.1322   83.9112   23.6154 H       1  UNL1        0.1549
     41 C          13.3973   88.3039   22.2527 C.2     1  UNL1        0.2482
     42 O          13.0392   89.5076   22.1245 O.2     1  UNL1       -0.2727
     43 N          14.0420   87.8913   23.4752 N.am    1  UNL1       -0.2714
     44 C          14.2245   88.8086   24.5898 C.3     1  UNL1        0.0939
     45 C          14.9300   88.0103   25.6764 C.3     1  UNL1        0.0237
     46 C          15.5337   86.8015   24.9704 C.3     1  UNL1        0.0310
     47 C          14.7091   86.6112   23.6953 C.3     1  UNL1        0.1521
     48 C          13.0905   87.3332   21.1303 C.3     1  UNL1        0.1743
     49 C          12.5109   88.0027   19.8937 C.ar    1  UNL1        0.0044
     50 C          13.3928   88.4084   18.8750 C.ar    1  UNL1       -0.0022
     51 C          12.9159   89.0754   17.7426 C.ar    1  UNL1       -0.0003
     52 C          11.5529   89.3471   17.6118 C.ar    1  UNL1       -0.0000
     53 C          10.6664   88.9654   18.6202 C.ar    1  UNL1       -0.0003
     54 C          11.1390   88.3098   19.7614 C.ar    1  UNL1       -0.0022
     55 C          14.2789   85.4359   19.9324 C.2     1  UNL1        0.4023
     56 O          13.1899   85.0305   19.4396 O.2     1  UNL1       -0.2264
     57 N          14.3068   86.6012   20.7647 N.am    1  UNL1       -0.2606
     58 H          15.2171   86.8655   21.2061 H       1  UNL1        0.1535
     59 C          15.7229   84.0909   18.4409 C.3     1  UNL1        0.2573
     60 O          15.4701   84.7520   19.6748 O.3     1  UNL1       -0.4306
@<TRIPOS>BOND
     1    59    60    1
     2    60    55    1
     3    55    56    2
     4    55    57   am
     5    57    48    1
     6    48    41    1
     7    41    42    2
     8    41    43   am
     9    43    44    1
    10    44    45    1
    11    45    46    1
    12    46    47    1
    13    47    37    1
    14    37    38    2
    15    37    39   am
    16    39     1    1
    17     1     2   ar
    18     2     3   ar
    19     3     4   ar
    20     4     7    1
    21     7     8   ar
    22     8     9   ar
    23     9    10   ar
    24    10    13    1
    25    13    14   am
    26    14    15    2
    27    14    17    1
    28    17    18    1
    29    18    19    1
    30    19    20    1
    31    20    21    1
    32    21    22   am
    33    22    23    2
    34    22    24    1
    35    24    31    1
    36    31    32   am
    37    32    33    2
    38    32    35    1
    39    35    36    1
    40    24    25    1
    41    25    26   ar
    42    26    27   ar
    43    27    28   ar
    44    28    29   ar
    45    29    30   ar
    46    10    11   ar
    47    11    12   ar
    48     4     5   ar
    49     5     6   ar
    50    48    49    1
    51    49    50   ar
    52    50    51   ar
    53    51    52   ar
    54    52    53   ar
    55    53    54   ar
    56    47    43    1
    57     6     1   ar
    58    54    49   ar
    59    12     7   ar
    60    21    17    1
    61    30    25   ar
    62    57    58    1
    63    39    40    1
    64    13    16    1
    65    31    34    1
@<TRIPOS>MOLECULE
*****
 60 65 0 0 0
SMALL
GASTEIGER

@<TRIPOS>ATOM
      1 C           8.2392   77.9636   26.7724 C.ar    1  UNL1        0.0503
      2 C           8.9192   78.7800   27.6886 C.ar    1  UNL1        0.0147
      3 C           9.8796   79.6960   27.2531 C.ar    1  UNL1        0.0013
      4 C          10.1851   79.8124   25.8871 C.ar    1  UNL1        0.0001
      5 C           9.5062   78.9972   24.9674 C.ar    1  UNL1        0.0013
      6 C           8.5508   78.0759   25.4044 C.ar    1  UNL1        0.0147
      7 C          11.2104   80.7788   25.4237 C.ar    1  UNL1        0.0001
      8 C          10.8426   82.0820   25.0495 C.ar    1  UNL1        0.0013
      9 C          11.8116   83.0073   24.6541 C.ar    1  UNL1        0.0147
     10 C          13.1696   82.6414   24.6071 C.ar    1  UNL1        0.0503
     11 C          13.5345   81.3380   24.9732 C.ar    1  UNL1        0.0147
     12 C          12.5665   80.4145   25.3760 C.ar    1  UNL1        0.0013
     13 N          14.1981   83.5933   24.2827 N.am    1  UNL1       -0.2826
     14 C          14.2077   84.3794   23.0830 C.2     1  UNL1        0.2442
     15 O          13.9448   83.8425   21.9732 O.2     1  UNL1       -0.2730
     16 H          14.9169   83.8094   25.0096 H       1  UNL1        0.1549
     17 C          14.5686   85.8403   23.1339 C.3     1  UNL1        0.1521
     18 C          13.8379   86.5668   24.2641 C.3     1  UNL1        0.0310
     19 C          12.7311   87.3821   23.5993 C.3     1  UNL1        0.0237
     20 C          13.1079   87.4933   22.1270 C.3     1  UNL1        0.0939
     21 N          14.1524   86.5051   21.9061 N.am    1  UNL1       -0.2714
     22 C          14.7409   86.2149   20.6221 C.2     1  UNL1        0.2482
     23 O          15.7691   85.4854   20.5638 O.2     1  UNL1       -0.2727
     24 C          14.1715   86.7904   19.3453 C.3     1  UNL1        0.1743
     25 C          14.3167   85.8011   18.2075 C.ar    1  UNL1        0.0044
     26 C          14.0468   84.4328   18.4023 C.ar    1  UNL1       -0.0022
     27 C          14.1827   83.5277   17.3456 C.ar    1  UNL1       -0.0003
     28 C          14.5848   83.9770   16.0857 C.ar    1  UNL1       -0.0000
     29 C          14.8494   85.3329   15.8791 C.ar    1  UNL1       -0.0003
     30 C          14.7142   86.2426   16.9323 C.ar    1  UNL1       -0.0022
     31 N          12.7624   87.1610   19.5259 N.am    1  UNL1       -0.2606
     32 C          12.1784   88.2915   18.8667 C.2     1  UNL1        0.4023
     33 O          12.8638   88.9872   18.0676 O.2     1  UNL1       -0.2264
     34 H          12.1685   86.6374   20.2083 H       1  UNL1        0.1535
     35 O          10.8409   88.6122   19.1151 O.3     1  UNL1       -0.4306
     36 C          10.0737   89.4329   18.2422 C.3     1  UNL1        0.2573
     37 C           6.0721   77.2743   27.9472 C.2     1  UNL1        0.2442
     38 O           5.8796   78.4053   28.4683 O.2     1  UNL1       -0.2730
     39 N           7.3085   76.9826   27.2711 N.am    1  UNL1       -0.2826
     40 H           7.5665   75.9772   27.1536 H       1  UNL1        0.1549
     41 C           5.9068   74.2763   26.6746 C.2     1  UNL1        0.2482
     42 O           6.1860   73.0465   26.6185 O.2     1  UNL1       -0.2727
     43 N           5.5888   74.8647   27.9525 N.am    1  UNL1       -0.2714
     44 C           5.6520   74.0942   29.1852 C.3     1  UNL1        0.0939
     45 C           5.2542   75.0532   30.2978 C.3     1  UNL1        0.0237
     46 C           4.5360   76.2069   29.6073 C.3     1  UNL1        0.0310
     47 C           5.0344   76.1995   28.1604 C.3     1  UNL1        0.1521
     48 C           5.9639   75.0913   25.3985 C.3     1  UNL1        0.1743
     49 C           6.8609   74.4821   24.3319 C.ar    1  UNL1        0.0044
     50 C           8.2516   74.6678   24.4390 C.ar    1  UNL1       -0.0022
     51 C           9.1150   74.1735   23.4566 C.ar    1  UNL1       -0.0003
     52 C           8.6022   73.4879   22.3540 C.ar    1  UNL1       -0.0000
     53 C           7.2240   73.3085   22.2243 C.ar    1  UNL1       -0.0003
     54 C           6.3543   73.8121   23.1967 C.ar    1  UNL1       -0.0022
     55 C           4.0886   76.5422   24.4899 C.2     1  UNL1        0.4023
     56 O           4.8125   77.5731   24.5703 O.2     1  UNL1       -0.2264
     57 N           4.6109   75.2610   24.8603 N.am    1  UNL1       -0.2606
     58 H           3.9597   74.4432   24.8417 H       1  UNL1        0.1535
     59 C           1.9820   77.8098   24.2185 C.3     1  UNL1        0.2573
     60 O           2.7685   76.6378   24.0414 O.3     1  UNL1       -0.4306
@<TRIPOS>BOND
     1    59    60    1
     2    60    55    1
     3    55    56    2
     4    55    57   am
     5    57    48    1
     6    48    41    1
     7    41    42    2
     8    41    43   am
     9    43    44    1
    10    44    45    1
    11    45    46    1
    12    46    47    1
    13    47    37    1
    14    37    38    2
    15    37    39   am
    16    39     1    1
    17     1     2   ar
    18     2     3   ar
    19     3     4   ar
    20     4     7    1
    21     7     8   ar
    22     8     9   ar
    23     9    10   ar
    24    10    13    1
    25    13    14   am
    26    14    15    2
    27    14    17    1
    28    17    18    1
    29    18    19    1
    30    19    20    1
    31    20    21    1
    32    21    22   am
    33    22    23    2
    34    22    24    1
    35    24    31    1
    36    31    32   am
    37    32    33    2
    38    32    35    1
    39    35    36    1
    40    24    25    1
    41    25    26   ar
    42    26    27   ar
    43    27    28   ar
    44    28    29   ar
    45    29    30   ar
    46    10    11   ar
    47    11    12   ar
    48     4     5   ar
    49     5     6   ar
    50    48    49    1
    51    49    50   ar
    52    50    51   ar
    53    51    52   ar
    54    52    53   ar
    55    53    54   ar
    56    47    43    1
    57     6     1   ar
    58    54    49   ar
    59    12     7   ar
    60    21    17    1
    61    30    25   ar
    62    57    58    1
    63    39    40    1
    64    13    16    1
    65    31    34    1
