@<TRIPOS>MOLECULE
*****
 53 59 0 0 0
SMALL
GASTEIGER

@<TRIPOS>ATOM
      1 C          59.8722   85.2042    9.0860 C.ar    1  UNL1        0.0481
      2 C          58.4680   85.1929    9.1733 C.ar    1  UNL1        0.0176
      3 C          57.7366   84.0848    8.7377 C.ar    1  UNL1        0.0382
      4 C          58.3842   82.9714    8.1938 C.ar    1  UNL1        0.1388
      5 C          59.7900   82.9629    8.1322 C.ar    1  UNL1        0.0382
      6 C          60.5232   84.0654    8.5763 C.ar    1  UNL1        0.0176
      7 N          62.1827   88.5189   10.4312 N.pl3   1  UNL1       -0.3043
      8 C          62.8092   87.5629    9.5114 C.3     1  UNL1        0.1122
      9 C          61.7666   86.8295    8.6569 C.3     1  UNL1        0.1122
     10 N          60.6248   86.3788    9.4721 N.pl3   1  UNL1       -0.3041
     11 C          60.1122   87.2336   10.5587 C.3     1  UNL1        0.1122
     12 C          60.7271   88.6317   10.5110 C.3     1  UNL1        0.1122
     13 C          63.4601   89.2314   12.4326 C.ar    1  UNL1       -0.0074
     14 C          64.2634   90.1954   13.0664 C.ar    1  UNL1        0.0147
     15 C          64.6293   91.3801   12.4048 C.ar    1  UNL1        0.0696
     16 C          64.1644   91.6030   11.0997 C.ar    1  UNL1        0.0190
     17 C          63.3622   90.6559   10.4627 C.ar    1  UNL1        0.0157
     18 C          63.0060   89.4708   11.1167 C.ar    1  UNL1        0.0440
     19 N          65.4517   92.3649   13.0600 N.ar    1  UNL1       -0.2398
     20 C          65.7450   93.6122   12.6307 C.ar    1  UNL1        0.2073
     21 N          66.5654   94.2529   13.4903 N.ar    1  UNL1       -0.1442
     22 N          66.8024   93.4135   14.4877 N.ar    1  UNL1       -0.2024
     23 C          66.1380   92.2698   14.2161 C.ar    1  UNL1        0.3522
     24 O          66.1910   91.2285   14.9240 O.2     1  UNL1       -0.2444
     25 C          67.7123   93.7298   15.5995 C.3     1  UNL1        0.1099
     26 C          67.3501   92.9793   16.8902 C.3     1  UNL1        0.0265
     27 C          69.1921   93.5588   15.1925 C.3     1  UNL1        0.0245
     28 C          69.4955   92.2798   14.4098 C.3     1  UNL1        0.0021
     29 C          63.9171   87.8261   14.4531 C.3     1  UNL1        0.0051
     30 C          63.0628   87.9918   13.2002 C.3     1  UNL1        0.0277
     31 O          57.5944   81.9044    7.7333 O.3     1  UNL1       -0.4727
     32 C          57.4274   80.6480    8.3933 C.3     1  UNL1        0.2374
     33 C          58.4718   80.4701    9.5073 C.3     1  UNL1        0.1909
     34 C          58.0293   79.4723   10.5524 C.3     1  UNL1        0.1783
     35 O          57.9417   80.1747   11.7522 O.3     1  UNL1       -0.3271
     36 C          58.6858   81.3580   11.5588 C.3     1  UNL1        0.2232
     37 O          58.6886   81.6733   10.1818 O.3     1  UNL1       -0.3258
     38 C          60.1183   81.1549   12.0781 C.ar    1  UNL1        0.0404
     39 C          61.2127   81.6267   11.3200 C.ar    1  UNL1        0.0021
     40 C          62.5213   81.4878   11.7849 C.ar    1  UNL1        0.0113
     41 C          62.7666   80.8885   13.0193 C.ar    1  UNL1        0.0585
     42 CL         64.4126   80.7195   13.6016 Cl      1  UNL1       -0.0822
     43 C          61.7003   80.4346   13.7962 C.ar    1  UNL1        0.0226
     44 C          60.3815   80.5681   13.3442 C.ar    1  UNL1        0.0591
     45 CL         59.1038   80.0036   14.4178 Cl      1  UNL1       -0.0824
     46 C          57.9868   82.5123   12.3242 C.3     1  UNL1        0.1338
     47 N          58.6648   83.8158   12.1235 N.3     1  UNL1       -0.2659
     48 C          59.9505   83.8591   12.8561 C.3     1  UNL1        0.0898
     49 C          60.4794   85.2964   12.9655 C.3     1  UNL1        0.0897
     50 N          59.5388   86.1940   13.6823 N.3     1  UNL1       -0.2691
     51 C          60.0031   86.4814   15.0483 C.3     1  UNL1        0.0897
     52 C          58.1479   85.6919   13.7117 C.3     1  UNL1        0.0897
     53 C          57.7858   84.9812   12.4007 C.3     1  UNL1        0.0898
@<TRIPOS>BOND
     1    29    30    1
     2    30    13    1
     3    13    14   ar
     4    14    15   ar
     5    15    19    1
     6    19    20   ar
     7    20    21   ar
     8    21    22   ar
     9    22    25    1
    10    25    26    1
    11    25    27    1
    12    27    28    1
    13    22    23   ar
    14    23    24    2
    15    15    16   ar
    16    16    17   ar
    17    17    18   ar
    18    18     7    1
    19     7     8    1
    20     8     9    1
    21     9    10    1
    22    10     1    1
    23     1     2   ar
    24     2     3   ar
    25     3     4   ar
    26     4    31    1
    27    31    32    1
    28    32    33    1
    29    33    34    1
    30    34    35    1
    31    35    36    1
    32    36    46    1
    33    46    47    1
    34    47    48    1
    35    48    49    1
    36    49    50    1
    37    50    51    1
    38    50    52    1
    39    52    53    1
    40    36    38    1
    41    38    39   ar
    42    39    40   ar
    43    40    41   ar
    44    41    42    1
    45    41    43   ar
    46    43    44   ar
    47    44    45    1
    48    36    37    1
    49     4     5   ar
    50     5     6   ar
    51    10    11    1
    52    11    12    1
    53    18    13   ar
    54    12     7    1
    55    23    19   ar
    56     6     1   ar
    57    37    33    1
    58    53    47    1
    59    44    38   ar
@<TRIPOS>MOLECULE
*****
 53 59 0 0 0
SMALL
GASTEIGER

@<TRIPOS>ATOM
      1 C          60.6372   87.7483   10.9776 C.ar    1  UNL1        0.0481
      2 C          59.7684   86.7880   11.5275 C.ar    1  UNL1        0.0176
      3 C          60.1155   86.0978   12.6919 C.ar    1  UNL1        0.0382
      4 C          61.3385   86.3375   13.3257 C.ar    1  UNL1        0.1388
      5 C          62.1986   87.3188   12.7990 C.ar    1  UNL1        0.0382
      6 C          61.8490   88.0167   11.6410 C.ar    1  UNL1        0.0176
      7 N          59.9363   89.7287    7.2733 N.pl3   1  UNL1       -0.3043
      8 C          60.0926   88.2701    7.2625 C.3     1  UNL1        0.1122
      9 C          59.7252   87.6489    8.6169 C.3     1  UNL1        0.1122
     10 N          60.3090   88.4123    9.7341 N.pl3   1  UNL1       -0.3041
     11 C          60.3656   89.8843    9.6706 C.3     1  UNL1        0.1122
     12 C          59.5500   90.4277    8.4982 C.3     1  UNL1        0.1122
     13 C          58.8008   90.8299    5.3645 C.ar    1  UNL1       -0.0074
     14 C          58.8968   91.5292    4.1489 C.ar    1  UNL1        0.0147
     15 C          60.1484   91.8608    3.6023 C.ar    1  UNL1        0.0696
     16 C          61.3131   91.4661    4.2781 C.ar    1  UNL1        0.0190
     17 C          61.2301   90.7669    5.4824 C.ar    1  UNL1        0.0157
     18 C          59.9841   90.4455    6.0332 C.ar    1  UNL1        0.0440
     19 N          60.2404   92.5766    2.3554 N.ar    1  UNL1       -0.2398
     20 C          59.2367   92.8829    1.5041 C.ar    1  UNL1        0.2073
     21 N          59.6910   93.5441    0.4184 N.ar    1  UNL1       -0.1442
     22 N          61.0012   93.6705    0.5702 N.ar    1  UNL1       -0.2024
     23 C          61.3296   93.0726    1.7355 C.ar    1  UNL1        0.3522
     24 O          62.5073   92.9481    2.1664 O.2     1  UNL1       -0.2444
     25 C          61.8678   94.2868   -0.4462 C.3     1  UNL1        0.1099
     26 C          63.1474   94.8881    0.1553 C.3     1  UNL1        0.0265
     27 C          62.1437   93.3235   -1.6213 C.3     1  UNL1        0.0245
     28 C          63.6039   93.2713   -2.0748 C.3     1  UNL1        0.0021
     29 C          56.3330   91.1239    5.0650 C.3     1  UNL1        0.0051
     30 C          57.4325   90.4637    5.8911 C.3     1  UNL1        0.0277
     31 O          61.6519   85.5831   14.4689 O.3     1  UNL1       -0.4727
     32 C          62.6213   84.5352   14.5338 C.3     1  UNL1        0.2374
     33 C          62.0684   83.2373   13.9228 C.3     1  UNL1        0.1909
     34 C          63.0651   82.1034   13.9897 C.3     1  UNL1        0.1783
     35 O          63.3387   81.7442   12.6720 O.3     1  UNL1       -0.3271
     36 C          62.2872   82.2843   11.9013 C.3     1  UNL1        0.2232
     37 O          61.7665   83.4138   12.5710 O.3     1  UNL1       -0.3258
     38 C          61.1994   81.2177   11.6969 C.ar    1  UNL1        0.0404
     39 C          59.9306   81.3865   12.2941 C.ar    1  UNL1        0.0021
     40 C          58.9135   80.4517   12.0953 C.ar    1  UNL1        0.0113
     41 C          59.1339   79.3370   11.2879 C.ar    1  UNL1        0.0585
     42 CL         57.8515   78.1666   11.0376 Cl      1  UNL1       -0.0822
     43 C          60.3720   79.1602   10.6694 C.ar    1  UNL1        0.0226
     44 C          61.4021   80.0901   10.8577 C.ar    1  UNL1        0.0591
     45 CL         62.9125   79.8000    9.9986 Cl      1  UNL1       -0.0824
     46 C          62.8615   82.7460   10.5360 C.3     1  UNL1        0.1338
     47 N          61.9807   83.7248    9.8540 N.3     1  UNL1       -0.2659
     48 C          61.1670   83.0627    8.8095 C.3     1  UNL1        0.0898
     49 C          60.5363   84.0922    7.8609 C.3     1  UNL1        0.0897
     50 N          61.5535   84.9181    7.1627 N.3     1  UNL1       -0.2691
     51 C          61.7112   84.5065    5.7592 C.3     1  UNL1        0.0897
     52 C          62.8682   84.9351    7.8399 C.3     1  UNL1        0.0897
     53 C          62.7075   84.9253    9.3660 C.3     1  UNL1        0.0898
@<TRIPOS>BOND
     1    29    30    1
     2    30    13    1
     3    13    14   ar
     4    14    15   ar
     5    15    19    1
     6    19    20   ar
     7    20    21   ar
     8    21    22   ar
     9    22    25    1
    10    25    26    1
    11    25    27    1
    12    27    28    1
    13    22    23   ar
    14    23    24    2
    15    15    16   ar
    16    16    17   ar
    17    17    18   ar
    18    18     7    1
    19     7     8    1
    20     8     9    1
    21     9    10    1
    22    10     1    1
    23     1     2   ar
    24     2     3   ar
    25     3     4   ar
    26     4    31    1
    27    31    32    1
    28    32    33    1
    29    33    34    1
    30    34    35    1
    31    35    36    1
    32    36    46    1
    33    46    47    1
    34    47    48    1
    35    48    49    1
    36    49    50    1
    37    50    51    1
    38    50    52    1
    39    52    53    1
    40    36    38    1
    41    38    39   ar
    42    39    40   ar
    43    40    41   ar
    44    41    42    1
    45    41    43   ar
    46    43    44   ar
    47    44    45    1
    48    36    37    1
    49     4     5   ar
    50     5     6   ar
    51    10    11    1
    52    11    12    1
    53    18    13   ar
    54    12     7    1
    55    23    19   ar
    56     6     1   ar
    57    37    33    1
    58    53    47    1
    59    44    38   ar
@<TRIPOS>MOLECULE
*****
 53 59 0 0 0
SMALL
GASTEIGER

@<TRIPOS>ATOM
      1 C          59.4609   86.1070   10.2977 C.ar    1  UNL1        0.0481
      2 C          58.4218   85.4091   10.9400 C.ar    1  UNL1        0.0176
      3 C          57.6773   84.4482   10.2508 C.ar    1  UNL1        0.0382
      4 C          57.9407   84.1712    8.9059 C.ar    1  UNL1        0.1388
      5 C          58.9987   84.8429    8.2659 C.ar    1  UNL1        0.0382
      6 C          59.7504   85.7963    8.9560 C.ar    1  UNL1        0.0176
      7 N          61.8029   89.0097   12.3531 N.pl3   1  UNL1       -0.3043
      8 C          61.8887   88.9577   10.8895 C.3     1  UNL1        0.1122
      9 C          60.6206   88.3584   10.2666 C.3     1  UNL1        0.1122
     10 N          60.1855   87.1509   10.9907 N.pl3   1  UNL1       -0.3041
     11 C          60.2967   87.0926   12.4598 C.3     1  UNL1        0.1122
     12 C          60.6427   88.4584   13.0516 C.3     1  UNL1        0.1122
     13 C          63.0026   89.5355   14.4577 C.ar    1  UNL1       -0.0074
     14 C          63.9646   90.3062   15.1334 C.ar    1  UNL1        0.0147
     15 C          64.7080   91.2893   14.4581 C.ar    1  UNL1        0.0696
     16 C          64.4647   91.5101   13.0938 C.ar    1  UNL1        0.0190
     17 C          63.5086   90.7550   12.4141 C.ar    1  UNL1        0.0157
     18 C          62.7753   89.7682   13.0832 C.ar    1  UNL1        0.0440
     19 N          65.6918   92.0770   15.1562 N.ar    1  UNL1       -0.2398
     20 C          65.5595   92.6896   16.3534 C.ar    1  UNL1        0.2073
     21 N          66.6801   93.3610   16.6939 N.ar    1  UNL1       -0.1442
     22 N          67.5477   93.1780   15.7092 N.ar    1  UNL1       -0.2024
     23 C          66.9407   92.4127   14.7769 C.ar    1  UNL1        0.3522
     24 O          67.4543   92.0936   13.6712 O.2     1  UNL1       -0.2444
     25 C          68.8753   93.8110   15.6858 C.3     1  UNL1        0.1099
     26 C          69.0326   94.8923   16.7657 C.3     1  UNL1        0.0265
     27 C          70.0084   92.7620   15.7072 C.3     1  UNL1        0.0245
     28 C          70.4112   92.2288   14.3310 C.3     1  UNL1        0.0021
     29 C          62.8320   88.2547   16.6017 C.3     1  UNL1        0.0051
     30 C          62.2028   88.5174   15.2371 C.3     1  UNL1        0.0277
     31 O          57.1317   83.2260    8.2529 O.3     1  UNL1       -0.4727
     32 C          57.6022   82.1417    7.4498 C.3     1  UNL1        0.2374
     33 C          58.4933   81.1963    8.2717 C.3     1  UNL1        0.1909
     34 C          57.9275   80.9283    9.6471 C.3     1  UNL1        0.1783
     35 O          58.8627   81.4160   10.5571 O.3     1  UNL1       -0.3271
     36 C          60.0670   81.5509    9.8340 C.3     1  UNL1        0.2232
     37 O          59.7582   81.7533    8.4704 O.3     1  UNL1       -0.3258
     38 C          60.9230   80.2879   10.0210 C.ar    1  UNL1        0.0404
     39 C          62.0272   80.0568    9.1711 C.ar    1  UNL1        0.0021
     40 C          62.8425   78.9369    9.3418 C.ar    1  UNL1        0.0113
     41 C          62.5835   78.0315   10.3695 C.ar    1  UNL1        0.0585
     42 CL         63.6131   76.6274   10.5829 Cl      1  UNL1       -0.0822
     43 C          61.5117   78.2503   11.2355 C.ar    1  UNL1        0.0226
     44 C          60.6854   79.3700   11.0782 C.ar    1  UNL1        0.0591
     45 CL         59.3861   79.5798   12.2494 Cl      1  UNL1       -0.0824
     46 C          60.8200   82.8025   10.3566 C.3     1  UNL1        0.1338
     47 N          61.7175   82.4882   11.4945 N.3     1  UNL1       -0.2659
     48 C          61.0510   82.7731   12.7853 C.3     1  UNL1        0.0898
     49 C          62.0648   82.8087   13.9380 C.3     1  UNL1        0.0897
     50 N          63.1059   83.8497   13.7458 N.3     1  UNL1       -0.2691
     51 C          62.8725   85.0126   14.6161 C.3     1  UNL1        0.0897
     52 C          63.2540   84.2862   12.3405 C.3     1  UNL1        0.0897
     53 C          63.0599   83.1128   11.3707 C.3     1  UNL1        0.0898
@<TRIPOS>BOND
     1    29    30    1
     2    30    13    1
     3    13    14   ar
     4    14    15   ar
     5    15    19    1
     6    19    20   ar
     7    20    21   ar
     8    21    22   ar
     9    22    25    1
    10    25    26    1
    11    25    27    1
    12    27    28    1
    13    22    23   ar
    14    23    24    2
    15    15    16   ar
    16    16    17   ar
    17    17    18   ar
    18    18     7    1
    19     7     8    1
    20     8     9    1
    21     9    10    1
    22    10     1    1
    23     1     2   ar
    24     2     3   ar
    25     3     4   ar
    26     4    31    1
    27    31    32    1
    28    32    33    1
    29    33    34    1
    30    34    35    1
    31    35    36    1
    32    36    46    1
    33    46    47    1
    34    47    48    1
    35    48    49    1
    36    49    50    1
    37    50    51    1
    38    50    52    1
    39    52    53    1
    40    36    38    1
    41    38    39   ar
    42    39    40   ar
    43    40    41   ar
    44    41    42    1
    45    41    43   ar
    46    43    44   ar
    47    44    45    1
    48    36    37    1
    49     4     5   ar
    50     5     6   ar
    51    10    11    1
    52    11    12    1
    53    18    13   ar
    54    12     7    1
    55    23    19   ar
    56     6     1   ar
    57    37    33    1
    58    53    47    1
    59    44    38   ar
@<TRIPOS>MOLECULE
*****
 53 59 0 0 0
SMALL
GASTEIGER

@<TRIPOS>ATOM
      1 C          60.6144   87.4432   10.7624 C.ar    1  UNL1        0.0481
      2 C          59.5985   86.7483   11.4439 C.ar    1  UNL1        0.0176
      3 C          59.8993   85.9579   12.5563 C.ar    1  UNL1        0.0382
      4 C          61.2171   85.8308   13.0058 C.ar    1  UNL1        0.1388
      5 C          62.2340   86.5476   12.3483 C.ar    1  UNL1        0.0382
      6 C          61.9338   87.3459   11.2425 C.ar    1  UNL1        0.0176
      7 N          59.9895   89.6713    7.1876 N.pl3   1  UNL1       -0.3043
      8 C          59.9048   88.2084    7.1181 C.3     1  UNL1        0.1122
      9 C          59.5363   87.5952    8.4758 C.3     1  UNL1        0.1122
     10 N          60.3131   88.2052    9.5694 N.pl3   1  UNL1       -0.3041
     11 C          60.6043   89.6505    9.5491 C.3     1  UNL1        0.1122
     12 C          59.8085   90.3686    8.4600 C.3     1  UNL1        0.1122
     13 C          58.9019   90.9014    5.3303 C.ar    1  UNL1       -0.0074
     14 C          59.0268   91.6340    4.1371 C.ar    1  UNL1        0.0147
     15 C          60.2901   91.9085    3.5859 C.ar    1  UNL1        0.0696
     16 C          61.4362   91.4227    4.2337 C.ar    1  UNL1        0.0190
     17 C          61.3242   90.6899    5.4154 C.ar    1  UNL1        0.0157
     18 C          60.0671   90.4251    5.9711 C.ar    1  UNL1        0.0440
     19 N          60.4117   92.6588    2.3620 N.ar    1  UNL1       -0.2398
     20 C          59.5422   93.5625    1.8587 C.ar    1  UNL1        0.2073
     21 N          59.9683   94.0566    0.6769 N.ar    1  UNL1       -0.1442
     22 N          61.1269   93.4697    0.4144 N.ar    1  UNL1       -0.2024
     23 C          61.3834   92.6166    1.4290 C.ar    1  UNL1        0.3522
     24 O          62.3767   91.8423    1.4764 O.2     1  UNL1       -0.2444
     25 C          61.8781   93.7041   -0.8284 C.3     1  UNL1        0.1099
     26 C          60.9599   93.9442   -2.0366 C.3     1  UNL1        0.0265
     27 C          62.9475   94.8039   -0.6504 C.3     1  UNL1        0.0245
     28 C          64.0461   94.8048   -1.7151 C.3     1  UNL1        0.0021
     29 C          56.4460   91.2545    4.9980 C.3     1  UNL1        0.0051
     30 C          57.5197   90.6000    5.8618 C.3     1  UNL1        0.0277
     31 O          61.4650   84.9887   14.1029 O.3     1  UNL1       -0.4727
     32 C          62.7090   84.3497   14.3965 C.3     1  UNL1        0.2374
     33 C          62.9209   83.1213   13.4967 C.3     1  UNL1        0.1909
     34 C          64.1785   83.2306   12.6660 C.3     1  UNL1        0.1783
     35 O          63.7700   83.2238   11.3343 O.3     1  UNL1       -0.3271
     36 C          62.4565   82.7079   11.3389 C.3     1  UNL1        0.2232
     37 O          61.8659   82.9795   12.5931 O.3     1  UNL1       -0.3258
     38 C          62.4973   81.1954   11.0677 C.ar    1  UNL1        0.0404
     39 C          63.1764   80.7048    9.9305 C.ar    1  UNL1        0.0021
     40 C          63.2598   79.3344    9.6798 C.ar    1  UNL1        0.0113
     41 C          62.6805   78.4239   10.5622 C.ar    1  UNL1        0.0585
     42 CL         62.7910   76.7022   10.2453 Cl      1  UNL1       -0.0822
     43 C          62.0234   78.8837   11.7039 C.ar    1  UNL1        0.0226
     44 C          61.9326   80.2556   11.9702 C.ar    1  UNL1        0.0591
     45 CL         61.1213   80.7323   13.4595 Cl      1  UNL1       -0.0824
     46 C          61.6352   83.4365   10.2428 C.3     1  UNL1        0.1338
     47 N          60.4270   82.6757    9.8421 N.3     1  UNL1       -0.2659
     48 C          60.0130   83.0312    8.4659 C.3     1  UNL1        0.0898
     49 C          58.5857   82.5473    8.1727 C.3     1  UNL1        0.0897
     50 N          57.5850   83.1398    9.0957 N.3     1  UNL1       -0.2691
     51 C          56.7980   84.1920    8.4342 C.3     1  UNL1        0.0897
     52 C          58.1709   83.6551   10.3521 C.3     1  UNL1        0.0897
     53 C          59.3241   82.7646   10.8337 C.3     1  UNL1        0.0898
@<TRIPOS>BOND
     1    29    30    1
     2    30    13    1
     3    13    14   ar
     4    14    15   ar
     5    15    19    1
     6    19    20   ar
     7    20    21   ar
     8    21    22   ar
     9    22    25    1
    10    25    26    1
    11    25    27    1
    12    27    28    1
    13    22    23   ar
    14    23    24    2
    15    15    16   ar
    16    16    17   ar
    17    17    18   ar
    18    18     7    1
    19     7     8    1
    20     8     9    1
    21     9    10    1
    22    10     1    1
    23     1     2   ar
    24     2     3   ar
    25     3     4   ar
    26     4    31    1
    27    31    32    1
    28    32    33    1
    29    33    34    1
    30    34    35    1
    31    35    36    1
    32    36    46    1
    33    46    47    1
    34    47    48    1
    35    48    49    1
    36    49    50    1
    37    50    51    1
    38    50    52    1
    39    52    53    1
    40    36    38    1
    41    38    39   ar
    42    39    40   ar
    43    40    41   ar
    44    41    42    1
    45    41    43   ar
    46    43    44   ar
    47    44    45    1
    48    36    37    1
    49     4     5   ar
    50     5     6   ar
    51    10    11    1
    52    11    12    1
    53    18    13   ar
    54    12     7    1
    55    23    19   ar
    56     6     1   ar
    57    37    33    1
    58    53    47    1
    59    44    38   ar
