@<TRIPOS>MOLECULE
*****
 42 46 0 0 0
SMALL
GASTEIGER

@<TRIPOS>ATOM
      1 C         -28.1803   51.2837   -6.6144 C.ar    1  UNL1        0.0043
      2 C         -28.1712   51.2126   -8.0468 C.ar    1  UNL1        0.0848
      3 C         -29.3217   50.7145   -8.7020 C.ar    1  UNL1        0.1398
      4 C         -30.4297   50.2904   -8.0182 C.ar    1  UNL1        0.0325
      5 C         -30.4319   50.3593   -6.6348 C.ar    1  UNL1        0.0752
      6 N         -31.4032   50.0357   -5.7738 N.ar    1  UNL1       -0.3255
      7 C         -30.8670   50.3405   -4.5678 C.ar    1  UNL1        0.1984
      8 N         -29.6076   50.8512   -4.6335 N.ar    1  UNL1       -0.2140
      9 C         -29.3498   50.8455   -5.9553 C.ar    1  UNL1        0.0957
     10 C         -31.4803   49.8227   -8.9567 C.3     1  UNL1        0.0709
     11 C         -30.7980   50.0348  -10.3500 C.3     1  UNL1        0.1375
     12 C         -31.5830   51.0359  -11.2079 C.3     1  UNL1        0.0439
     13 C         -30.6315   48.7048  -11.0969 C.3     1  UNL1        0.0439
     14 O         -29.5043   50.5765  -10.0626 O.3     1  UNL1       -0.4824
     15 H         -32.3517   49.6514   -5.9821 H       1  UNL1        0.1686
     16 C         -27.0240   51.6585   -8.8591 C.2     1  UNL1        0.2522
     17 O         -27.0718   52.7824   -9.4289 O.2     1  UNL1       -0.2697
     18 N         -25.9037   50.7881   -9.0721 N.am    1  UNL1       -0.2806
     19 H         -26.0431   49.7671   -8.8997 H       1  UNL1        0.1552
     20 C         -24.6268   51.2456   -9.5533 C.ar    1  UNL1        0.0465
     21 C         -23.5903   51.5235   -8.6466 C.ar    1  UNL1        0.0143
     22 C         -22.3351   51.9288   -9.1018 C.ar    1  UNL1        0.0051
     23 C         -22.0770   52.0359  -10.4765 C.ar    1  UNL1        0.0712
     24 C         -23.1135   51.7745  -11.3874 C.ar    1  UNL1        0.0008
     25 C         -24.3848   51.3759  -10.9395 C.ar    1  UNL1       -0.0084
     26 C         -25.4665   51.0885  -11.9459 C.3     1  UNL1        0.0323
     27 C         -20.7334   52.5146  -10.9676 C.3     1  UNL1        0.4186
     28 F         -19.9675   51.4528  -11.4174 F       1  UNL1       -0.1659
     29 F         -20.0678   53.1425   -9.9315 F       1  UNL1       -0.1659
     30 F         -20.8869   53.4090  -12.0129 F       1  UNL1       -0.1659
     31 C         -26.3950   50.8915   -4.9080 C.3     1  UNL1        0.0051
     32 C         -27.0625   51.9184   -5.8167 C.3     1  UNL1        0.0282
     33 N         -31.5839   50.1746   -3.3389 N.pl3   1  UNL1       -0.2816
     34 H         -32.3784   50.8238   -3.1414 H       1  UNL1        0.1551
     35 C         -31.1005   49.3406   -2.2770 C.ar    1  UNL1        0.0889
     36 C         -31.1233   49.8246   -0.9590 C.ar    1  UNL1        0.1543
     37 F         -31.5834   51.0739   -0.6974 F       1  UNL1       -0.2028
     38 C         -30.6520   49.0318    0.0915 C.ar    1  UNL1        0.0310
     39 C         -30.1687   47.7468   -0.1628 C.ar    1  UNL1        0.0033
     40 C         -30.1655   47.2461   -1.4668 C.ar    1  UNL1        0.0128
     41 C         -30.6349   48.0316   -2.5265 C.ar    1  UNL1        0.0733
     42 CL        -30.6979   47.3208   -4.1351 Cl      1  UNL1       -0.0809
@<TRIPOS>BOND
     1    31    32    1
     2    32     1    1
     3     1     2   ar
     4     2    16    1
     5    16    17    2
     6    16    18   am
     7    18    20    1
     8    20    21   ar
     9    21    22   ar
    10    22    23   ar
    11    23    27    1
    12    27    28    1
    13    27    29    1
    14    27    30    1
    15    23    24   ar
    16    24    25   ar
    17    25    26    1
    18     2     3   ar
    19     3     4   ar
    20     4     5   ar
    21     5     6   ar
    22     6     7   ar
    23     7    33    1
    24    33    35    1
    25    35    36   ar
    26    36    37    1
    27    36    38   ar
    28    38    39   ar
    29    39    40   ar
    30    40    41   ar
    31    41    42    1
    32     7     8   ar
    33     8     9   ar
    34     4    10    1
    35    10    11    1
    36    11    12    1
    37    11    13    1
    38    11    14    1
    39     9     1   ar
    40    25    20   ar
    41    14     3    1
    42     9     5   ar
    43    41    35   ar
    44    18    19    1
    45     6    15    1
    46    33    34    1
@<TRIPOS>MOLECULE
*****
 42 46 0 0 0
SMALL
GASTEIGER

@<TRIPOS>ATOM
      1 C         -26.1023   50.5565   -8.5427 C.ar    1  UNL1        0.0043
      2 C         -27.5212   50.4542   -8.7250 C.ar    1  UNL1        0.0848
      3 C         -28.0599   50.7697   -9.9945 C.ar    1  UNL1        0.1398
      4 C         -27.2785   51.1779  -11.0423 C.ar    1  UNL1        0.0325
      5 C         -25.9091   51.2772  -10.8596 C.ar    1  UNL1        0.0752
      6 N         -24.9614   51.6190  -11.7397 N.ar    1  UNL1       -0.3255
      7 C         -23.8160   51.5092  -11.0250 C.ar    1  UNL1        0.1984
      8 N         -24.0008   51.1031   -9.7396 N.ar    1  UNL1       -0.2140
      9 C         -25.3382   50.9705   -9.6558 C.ar    1  UNL1        0.0957
     10 C         -28.1067   51.4376  -12.2464 C.3     1  UNL1        0.0709
     11 C         -29.5501   51.1170  -11.7311 C.3     1  UNL1        0.1375
     12 C         -30.1764   49.9563  -12.5154 C.3     1  UNL1        0.0439
     13 C         -30.4529   52.3560  -11.7965 C.3     1  UNL1        0.0439
     14 O         -29.3887   50.7259  -10.3633 O.3     1  UNL1       -0.4824
     15 H         -25.0760   51.8933  -12.7409 H       1  UNL1        0.1686
     16 C         -28.4321   50.0121   -7.6529 C.2     1  UNL1        0.2522
     17 O         -29.1907   49.0254   -7.8561 O.2     1  UNL1       -0.2697
     18 N         -28.5193   50.7490   -6.4251 N.am    1  UNL1       -0.2806
     19 H         -28.1647   51.7318   -6.4230 H       1  UNL1        0.1552
     20 C         -29.1103   50.2189   -5.2247 C.ar    1  UNL1        0.0465
     21 C         -28.4834   49.1674   -4.5354 C.ar    1  UNL1        0.0143
     22 C         -29.0240   48.6711   -3.3487 C.ar    1  UNL1        0.0051
     23 C         -30.1879   49.2355   -2.8060 C.ar    1  UNL1        0.0712
     24 C         -30.8278   50.2765   -3.4983 C.ar    1  UNL1        0.0008
     25 C         -30.2979   50.7769   -4.7001 C.ar    1  UNL1       -0.0084
     26 C         -31.0024   51.9044   -5.4057 C.3     1  UNL1        0.0323
     27 C         -30.7959   48.6716   -1.5458 C.3     1  UNL1        0.4186
     28 F         -31.5838   47.5697   -1.8305 F       1  UNL1       -0.1659
     29 F         -31.5776   49.6406   -0.9451 F       1  UNL1       -0.1659
     30 F         -29.8067   48.2777   -0.6613 F       1  UNL1       -0.1659
     31 C         -25.3149   48.5997   -7.1997 C.3     1  UNL1        0.0051
     32 C         -25.4040   50.1204   -7.2736 C.3     1  UNL1        0.0282
     33 N         -22.5246   51.7613  -11.5909 N.pl3   1  UNL1       -0.2816
     34 H         -22.2968   51.3228  -12.5115 H       1  UNL1        0.1551
     35 C         -21.4633   52.3647  -10.8383 C.ar    1  UNL1        0.0889
     36 C         -20.2886   51.6331  -10.5996 C.ar    1  UNL1        0.1543
     37 F         -20.1677   50.3638  -11.0635 F       1  UNL1       -0.2028
     38 C         -19.2431   52.1985   -9.8637 C.ar    1  UNL1        0.0310
     39 C         -19.3558   53.5010   -9.3736 C.ar    1  UNL1        0.0033
     40 C         -20.5094   54.2465   -9.6273 C.ar    1  UNL1        0.0128
     41 C         -21.5628   53.6900  -10.3630 C.ar    1  UNL1        0.0733
     42 CL        -22.9534   54.7019  -10.7357 Cl      1  UNL1       -0.0809
@<TRIPOS>BOND
     1    31    32    1
     2    32     1    1
     3     1     2   ar
     4     2    16    1
     5    16    17    2
     6    16    18   am
     7    18    20    1
     8    20    21   ar
     9    21    22   ar
    10    22    23   ar
    11    23    27    1
    12    27    28    1
    13    27    29    1
    14    27    30    1
    15    23    24   ar
    16    24    25   ar
    17    25    26    1
    18     2     3   ar
    19     3     4   ar
    20     4     5   ar
    21     5     6   ar
    22     6     7   ar
    23     7    33    1
    24    33    35    1
    25    35    36   ar
    26    36    37    1
    27    36    38   ar
    28    38    39   ar
    29    39    40   ar
    30    40    41   ar
    31    41    42    1
    32     7     8   ar
    33     8     9   ar
    34     4    10    1
    35    10    11    1
    36    11    12    1
    37    11    13    1
    38    11    14    1
    39     9     1   ar
    40    25    20   ar
    41    14     3    1
    42     9     5   ar
    43    41    35   ar
    44    18    19    1
    45     6    15    1
    46    33    34    1
@<TRIPOS>MOLECULE
*****
 42 46 0 0 0
SMALL
GASTEIGER

@<TRIPOS>ATOM
      1 C         -27.5266   48.6747   -5.5921 C.ar    1  UNL1        0.0043
      2 C         -27.1514   48.4731   -6.9616 C.ar    1  UNL1        0.0848
      3 C         -28.0156   47.7208   -7.7912 C.ar    1  UNL1        0.1398
      4 C         -29.1829   47.1733   -7.3299 C.ar    1  UNL1        0.0325
      5 C         -29.5390   47.3694   -6.0058 C.ar    1  UNL1        0.0752
      6 N         -30.6345   46.9611   -5.3557 N.ar    1  UNL1       -0.3255
      7 C         -30.4664   47.4668   -4.1104 C.ar    1  UNL1        0.1984
      8 N         -29.3207   48.1835   -3.9525 N.ar    1  UNL1       -0.2140
      9 C         -28.7446   48.1003   -5.1669 C.ar    1  UNL1        0.0957
     10 C         -29.8856   46.4420   -8.4138 C.3     1  UNL1        0.0709
     11 C         -28.9178   46.6405   -9.6287 C.3     1  UNL1        0.1375
     12 C         -29.6050   47.4029  -10.7693 C.3     1  UNL1        0.0439
     13 C         -28.3749   45.2970  -10.1335 C.3     1  UNL1        0.0439
     14 O         -27.8316   47.4265   -9.1266 O.3     1  UNL1       -0.4824
     15 H         -31.4334   46.3976   -5.7232 H       1  UNL1        0.1686
     16 C         -25.9179   49.0369   -7.5406 C.2     1  UNL1        0.2522
     17 O         -24.9162   48.2889   -7.7057 O.2     1  UNL1       -0.2697
     18 N         -25.8275   50.4389   -7.8308 N.am    1  UNL1       -0.2806
     19 H         -26.5121   51.0759   -7.3647 H       1  UNL1        0.1552
     20 C         -24.8185   51.0063   -8.6859 C.ar    1  UNL1        0.0465
     21 C         -23.5333   51.2678   -8.1820 C.ar    1  UNL1        0.0143
     22 C         -22.5340   51.7800   -9.0102 C.ar    1  UNL1        0.0051
     23 C         -22.7869   52.0135  -10.3702 C.ar    1  UNL1        0.0712
     24 C         -24.0738   51.7687  -10.8764 C.ar    1  UNL1        0.0008
     25 C         -25.0911   51.2630  -10.0486 C.ar    1  UNL1       -0.0084
     26 C         -26.4537   50.9975  -10.6301 C.3     1  UNL1        0.0323
     27 C         -21.7196   52.6066  -11.2560 C.3     1  UNL1        0.4186
     28 F         -20.9079   51.6149  -11.7793 F       1  UNL1       -0.1659
     29 F         -20.9444   53.4773  -10.5133 F       1  UNL1       -0.1659
     30 F         -22.2903   53.2981  -12.3106 F       1  UNL1       -0.1659
     31 C         -27.1899   51.0211   -4.7962 C.3     1  UNL1        0.0051
     32 C         -26.7495   49.5683   -4.6508 C.3     1  UNL1        0.0282
     33 N         -31.4333   47.2922   -3.0681 N.pl3   1  UNL1       -0.2816
     34 H         -32.4421   47.4247   -3.3058 H       1  UNL1        0.1551
     35 C         -31.0613   47.2010   -1.6860 C.ar    1  UNL1        0.0889
     36 C         -30.8371   48.3795   -0.9560 C.ar    1  UNL1        0.1543
     37 F         -30.9563   49.5896   -1.5579 F       1  UNL1       -0.2028
     38 C         -30.4681   48.3150    0.3908 C.ar    1  UNL1        0.0310
     39 C         -30.3343   47.0769    1.0221 C.ar    1  UNL1        0.0033
     40 C         -30.5800   45.8994    0.3120 C.ar    1  UNL1        0.0128
     41 C         -30.9499   45.9523   -1.0374 C.ar    1  UNL1        0.0733
     42 CL        -31.3400   44.4468   -1.8609 Cl      1  UNL1       -0.0809
@<TRIPOS>BOND
     1    31    32    1
     2    32     1    1
     3     1     2   ar
     4     2    16    1
     5    16    17    2
     6    16    18   am
     7    18    20    1
     8    20    21   ar
     9    21    22   ar
    10    22    23   ar
    11    23    27    1
    12    27    28    1
    13    27    29    1
    14    27    30    1
    15    23    24   ar
    16    24    25   ar
    17    25    26    1
    18     2     3   ar
    19     3     4   ar
    20     4     5   ar
    21     5     6   ar
    22     6     7   ar
    23     7    33    1
    24    33    35    1
    25    35    36   ar
    26    36    37    1
    27    36    38   ar
    28    38    39   ar
    29    39    40   ar
    30    40    41   ar
    31    41    42    1
    32     7     8   ar
    33     8     9   ar
    34     4    10    1
    35    10    11    1
    36    11    12    1
    37    11    13    1
    38    11    14    1
    39     9     1   ar
    40    25    20   ar
    41    14     3    1
    42     9     5   ar
    43    41    35   ar
    44    18    19    1
    45     6    15    1
    46    33    34    1
@<TRIPOS>MOLECULE
*****
 42 46 0 0 0
SMALL
GASTEIGER

@<TRIPOS>ATOM
      1 C         -27.9673   50.5952   -7.6760 C.ar    1  UNL1        0.0043
      2 C         -27.8811   51.1095   -9.0121 C.ar    1  UNL1        0.0848
      3 C         -29.0099   50.9820   -9.8551 C.ar    1  UNL1        0.1398
      4 C         -30.1681   50.3778   -9.4443 C.ar    1  UNL1        0.0325
      5 C         -30.2447   49.8809   -8.1537 C.ar    1  UNL1        0.0752
      6 N         -31.2729   49.2894   -7.5352 N.ar    1  UNL1       -0.3255
      7 C         -30.7943   49.0506   -6.2907 C.ar    1  UNL1        0.1984
      8 N         -29.5164   49.4756   -6.0965 N.ar    1  UNL1       -0.2140
      9 C         -29.1860   49.9914   -7.2958 C.ar    1  UNL1        0.0957
     10 C         -31.1803   50.3873  -10.5299 C.3     1  UNL1        0.0709
     11 C         -30.4148   51.1081  -11.6903 C.3     1  UNL1        0.1375
     12 C         -31.1162   52.4115  -12.0949 C.3     1  UNL1        0.0439
     13 C         -30.2528   50.1873  -12.9070 C.3     1  UNL1        0.0439
     14 O         -29.1212   51.4165  -11.1599 O.3     1  UNL1       -0.4824
     15 H         -32.2210   49.0741   -7.9166 H       1  UNL1        0.1686
     16 C         -26.6760   51.7835   -9.5298 C.2     1  UNL1        0.2522
     17 O         -26.6677   53.0405   -9.6304 O.2     1  UNL1       -0.2697
     18 N         -25.5588   51.0144   -9.9972 N.am    1  UNL1       -0.2806
     19 H         -25.7261   50.0108  -10.2345 H       1  UNL1        0.1552
     20 C         -24.2457   51.5684  -10.1980 C.ar    1  UNL1        0.0465
     21 C         -23.9185   52.1813  -11.4191 C.ar    1  UNL1        0.0143
     22 C         -22.6629   52.7582  -11.6128 C.ar    1  UNL1        0.0051
     23 C         -21.7149   52.7636  -10.5788 C.ar    1  UNL1        0.0712
     24 C         -22.0303   52.1389   -9.3611 C.ar    1  UNL1        0.0008
     25 C         -23.2883   51.5453   -9.1588 C.ar    1  UNL1       -0.0084
     26 C         -23.5965   50.8994   -7.8347 C.3     1  UNL1        0.0323
     27 C         -20.3428   53.3495  -10.8018 C.3     1  UNL1        0.4186
     28 F         -20.2144   54.5632  -10.1486 F       1  UNL1       -0.1659
     29 F         -20.1462   53.5443  -12.1561 F       1  UNL1       -0.1659
     30 F         -19.3644   52.4959  -10.3221 F       1  UNL1       -0.1659
     31 C         -27.2529   51.8876   -5.6581 C.3     1  UNL1        0.0051
     32 C         -26.8745   50.7915   -6.6486 C.3     1  UNL1        0.0282
     33 N         -31.5836   48.4405   -5.2629 N.pl3   1  UNL1       -0.2816
     34 H         -32.6140   48.3599   -5.4165 H       1  UNL1        0.1551
     35 C         -31.0638   48.1784   -3.9522 C.ar    1  UNL1        0.0889
     36 C         -30.5301   46.9114   -3.6658 C.ar    1  UNL1        0.1543
     37 F         -30.5217   45.9426   -4.6157 F       1  UNL1       -0.2028
     38 C         -30.0229   46.6312   -2.3936 C.ar    1  UNL1        0.0310
     39 C         -30.0313   47.6157   -1.4036 C.ar    1  UNL1        0.0033
     40 C         -30.5364   48.8870   -1.6856 C.ar    1  UNL1        0.0128
     41 C         -31.0470   49.1785   -2.9563 C.ar    1  UNL1        0.0733
     42 CL        -31.5840   50.8210   -3.2891 Cl      1  UNL1       -0.0809
@<TRIPOS>BOND
     1    31    32    1
     2    32     1    1
     3     1     2   ar
     4     2    16    1
     5    16    17    2
     6    16    18   am
     7    18    20    1
     8    20    21   ar
     9    21    22   ar
    10    22    23   ar
    11    23    27    1
    12    27    28    1
    13    27    29    1
    14    27    30    1
    15    23    24   ar
    16    24    25   ar
    17    25    26    1
    18     2     3   ar
    19     3     4   ar
    20     4     5   ar
    21     5     6   ar
    22     6     7   ar
    23     7    33    1
    24    33    35    1
    25    35    36   ar
    26    36    37    1
    27    36    38   ar
    28    38    39   ar
    29    39    40   ar
    30    40    41   ar
    31    41    42    1
    32     7     8   ar
    33     8     9   ar
    34     4    10    1
    35    10    11    1
    36    11    12    1
    37    11    13    1
    38    11    14    1
    39     9     1   ar
    40    25    20   ar
    41    14     3    1
    42     9     5   ar
    43    41    35   ar
    44    18    19    1
    45     6    15    1
    46    33    34    1
@<TRIPOS>MOLECULE
*****
 42 46 0 0 0
SMALL
GASTEIGER

@<TRIPOS>ATOM
      1 C         -26.1732   50.5848   -8.5410 C.ar    1  UNL1        0.0043
      2 C         -27.5892   50.4448   -8.7201 C.ar    1  UNL1        0.0848
      3 C         -28.1388   50.7442   -9.9888 C.ar    1  UNL1        0.1398
      4 C         -27.3707   51.1713  -11.0389 C.ar    1  UNL1        0.0325
      5 C         -26.0039   51.3069  -10.8593 C.ar    1  UNL1        0.0752
      6 N         -25.0675   51.6723  -11.7420 N.ar    1  UNL1       -0.3255
      7 C         -23.9181   51.5938  -11.0296 C.ar    1  UNL1        0.1984
      8 N         -24.0893   51.1848   -9.7433 N.ar    1  UNL1       -0.2140
      9 C         -25.4226   51.0171   -9.6564 C.ar    1  UNL1        0.0957
     10 C         -28.2080   51.4073  -12.2416 C.3     1  UNL1        0.0709
     11 C         -29.6414   51.0495  -11.7226 C.3     1  UNL1        0.1375
     12 C         -30.2385   49.8716  -12.5039 C.3     1  UNL1        0.0439
     13 C         -30.5766   52.2642  -11.7878 C.3     1  UNL1        0.0439
     14 O         -29.4667   50.6648  -10.3547 O.3     1  UNL1       -0.4824
     15 H         -25.1915   51.9420  -12.7433 H       1  UNL1        0.1686
     16 C         -28.4859   49.9805   -7.6454 C.2     1  UNL1        0.2522
     17 O         -29.2239   48.9782   -7.8480 O.2     1  UNL1       -0.2697
     18 N         -28.5837   50.7121   -6.4153 N.am    1  UNL1       -0.2806
     19 H         -28.2504   51.7023   -6.4120 H       1  UNL1        0.1552
     20 C         -29.1581   50.1663   -5.2138 C.ar    1  UNL1        0.0465
     21 C         -28.5140   49.1158   -4.5389 C.ar    1  UNL1        0.0143
     22 C         -29.0385   48.6044   -3.3513 C.ar    1  UNL1        0.0051
     23 C         -30.2030   49.1524   -2.7933 C.ar    1  UNL1        0.0712
     24 C         -30.8600   50.1923   -3.4712 C.ar    1  UNL1        0.0008
     25 C         -30.3465   50.7078   -4.6738 C.ar    1  UNL1       -0.0084
     26 C         -31.0690   51.8336   -5.3637 C.3     1  UNL1        0.0323
     27 C         -30.7935   48.5722   -1.5322 C.3     1  UNL1        0.4186
     28 F         -29.7951   48.1732   -0.6603 F       1  UNL1       -0.1659
     29 F         -31.5718   47.4769   -1.8568 F       1  UNL1       -0.1659
     30 F         -31.5810   49.5097   -0.8865 F       1  UNL1       -0.1659
     31 C         -25.4537   48.6509   -7.1286 C.3     1  UNL1        0.0051
     32 C         -25.4609   50.1691   -7.2728 C.3     1  UNL1        0.0282
     33 N         -22.6349   51.8790  -11.5987 N.pl3   1  UNL1       -0.2816
     34 H         -22.3319   51.3249  -12.4311 H       1  UNL1        0.1551
     35 C         -21.6645   52.6954  -10.9289 C.ar    1  UNL1        0.0889
     36 C         -22.0148   53.9982  -10.5390 C.ar    1  UNL1        0.1543
     37 F         -23.2532   54.4826  -10.8083 F       1  UNL1       -0.2028
     38 C         -21.0836   54.8142   -9.8899 C.ar    1  UNL1        0.0310
     39 C         -19.8029   54.3323   -9.6124 C.ar    1  UNL1        0.0033
     40 C         -19.4526   53.0291   -9.9730 C.ar    1  UNL1        0.0128
     41 C         -20.3773   52.2033  -10.6237 C.ar    1  UNL1        0.0733
     42 CL        -19.9188   50.5402  -10.9717 Cl      1  UNL1       -0.0809
@<TRIPOS>BOND
     1    31    32    1
     2    32     1    1
     3     1     2   ar
     4     2    16    1
     5    16    17    2
     6    16    18   am
     7    18    20    1
     8    20    21   ar
     9    21    22   ar
    10    22    23   ar
    11    23    27    1
    12    27    28    1
    13    27    29    1
    14    27    30    1
    15    23    24   ar
    16    24    25   ar
    17    25    26    1
    18     2     3   ar
    19     3     4   ar
    20     4     5   ar
    21     5     6   ar
    22     6     7   ar
    23     7    33    1
    24    33    35    1
    25    35    36   ar
    26    36    37    1
    27    36    38   ar
    28    38    39   ar
    29    39    40   ar
    30    40    41   ar
    31    41    42    1
    32     7     8   ar
    33     8     9   ar
    34     4    10    1
    35    10    11    1
    36    11    12    1
    37    11    13    1
    38    11    14    1
    39     9     1   ar
    40    25    20   ar
    41    14     3    1
    42     9     5   ar
    43    41    35   ar
    44    18    19    1
    45     6    15    1
    46    33    34    1
@<TRIPOS>MOLECULE
*****
 42 46 0 0 0
SMALL
GASTEIGER

@<TRIPOS>ATOM
      1 C         -28.6243   49.4481   -6.8224 C.ar    1  UNL1        0.0043
      2 C         -28.4106   49.3368   -8.2362 C.ar    1  UNL1        0.0848
      3 C         -29.1419   48.3595   -8.9513 C.ar    1  UNL1        0.1398
      4 C         -30.0306   47.5155   -8.3406 C.ar    1  UNL1        0.0325
      5 C         -30.2311   47.6261   -6.9745 C.ar    1  UNL1        0.0752
      6 N         -31.0630   46.9388   -6.1839 N.ar    1  UNL1       -0.3255
      7 C         -30.8635   47.4918   -4.9635 C.ar    1  UNL1        0.1984
      8 N         -29.9526   48.5024   -4.9544 N.ar    1  UNL1       -0.2140
      9 C         -29.5588   48.5634   -6.2407 C.ar    1  UNL1        0.0957
     10 C         -30.6512   46.5993   -9.3299 C.3     1  UNL1        0.0709
     11 C         -29.9642   47.0402  -10.6661 C.3     1  UNL1        0.1375
     12 C         -30.9946   47.5614  -11.6766 C.3     1  UNL1        0.0439
     13 C         -29.1477   45.8937  -11.2772 C.3     1  UNL1        0.0439
     14 O         -29.0791   48.1064  -10.3062 O.3     1  UNL1       -0.4824
     15 H         -31.7178   46.1687   -6.4465 H       1  UNL1        0.1686
     16 C         -27.4808   50.2130   -8.9726 C.2     1  UNL1        0.2522
     17 O         -27.8144   51.4058   -9.2094 O.2     1  UNL1       -0.2697
     18 N         -26.2492   49.6913   -9.4914 N.am    1  UNL1       -0.2806
     19 H         -26.1669   48.6550   -9.5951 H       1  UNL1        0.1552
     20 C         -25.1542   50.5232   -9.9158 C.ar    1  UNL1        0.0465
     21 C         -25.0527   50.9237  -11.2587 C.ar    1  UNL1        0.0143
     22 C         -24.0190   51.7630  -11.6756 C.ar    1  UNL1        0.0051
     23 C         -23.0796   52.2476  -10.7532 C.ar    1  UNL1        0.0712
     24 C         -23.1667   51.8385   -9.4125 C.ar    1  UNL1        0.0008
     25 C         -24.1975   50.9846   -8.9837 C.ar    1  UNL1       -0.0084
     26 C         -24.2683   50.5806   -7.5356 C.3     1  UNL1        0.0323
     27 C         -21.9377   53.1206  -11.2111 C.3     1  UNL1        0.4186
     28 F         -20.8465   52.3512  -11.5763 F       1  UNL1       -0.1659
     29 F         -21.5688   53.9643  -10.1801 F       1  UNL1       -0.1659
     30 F         -22.3141   53.8819  -12.3042 F       1  UNL1       -0.1659
     31 C         -27.3325   49.9509   -4.7413 C.3     1  UNL1        0.0051
     32 C         -27.9989   50.5385   -5.9808 C.3     1  UNL1        0.0282
     33 N         -31.5815   47.0713   -3.7976 N.pl3   1  UNL1       -0.2816
     34 H         -32.5920   46.8277   -3.9034 H       1  UNL1        0.1551
     35 C         -31.0471   47.2181   -2.4749 C.ar    1  UNL1        0.0889
     36 C         -31.0725   48.4805   -1.8602 C.ar    1  UNL1        0.1543
     37 F         -31.5833   49.5512   -2.5186 F       1  UNL1       -0.2028
     38 C         -30.5522   48.6488   -0.5736 C.ar    1  UNL1        0.0310
     39 C         -30.0166   47.5579    0.1137 C.ar    1  UNL1        0.0033
     40 C         -30.0098   46.2929   -0.4785 C.ar    1  UNL1        0.0128
     41 C         -30.5281   46.1130   -1.7666 C.ar    1  UNL1        0.0733
     42 CL        -30.5825   44.4839   -2.4300 Cl      1  UNL1       -0.0809
@<TRIPOS>BOND
     1    31    32    1
     2    32     1    1
     3     1     2   ar
     4     2    16    1
     5    16    17    2
     6    16    18   am
     7    18    20    1
     8    20    21   ar
     9    21    22   ar
    10    22    23   ar
    11    23    27    1
    12    27    28    1
    13    27    29    1
    14    27    30    1
    15    23    24   ar
    16    24    25   ar
    17    25    26    1
    18     2     3   ar
    19     3     4   ar
    20     4     5   ar
    21     5     6   ar
    22     6     7   ar
    23     7    33    1
    24    33    35    1
    25    35    36   ar
    26    36    37    1
    27    36    38   ar
    28    38    39   ar
    29    39    40   ar
    30    40    41   ar
    31    41    42    1
    32     7     8   ar
    33     8     9   ar
    34     4    10    1
    35    10    11    1
    36    11    12    1
    37    11    13    1
    38    11    14    1
    39     9     1   ar
    40    25    20   ar
    41    14     3    1
    42     9     5   ar
    43    41    35   ar
    44    18    19    1
    45     6    15    1
    46    33    34    1
@<TRIPOS>MOLECULE
*****
 42 46 0 0 0
SMALL
GASTEIGER

@<TRIPOS>ATOM
      1 C         -24.8615   51.5184  -10.3266 C.ar    1  UNL1        0.0043
      2 C         -24.4756   51.3135   -8.9606 C.ar    1  UNL1        0.0848
      3 C         -25.4901   51.0699   -8.0052 C.ar    1  UNL1        0.1398
      4 C         -26.8180   51.0358   -8.3376 C.ar    1  UNL1        0.0325
      5 C         -27.1849   51.2367   -9.6580 C.ar    1  UNL1        0.0752
      6 N         -28.4034   51.2146  -10.2095 N.ar    1  UNL1       -0.3255
      7 C         -28.1567   51.4357  -11.5230 C.ar    1  UNL1        0.1984
      8 N         -26.8378   51.5842  -11.8225 N.ar    1  UNL1       -0.2140
      9 C         -26.2415   51.4624  -10.6213 C.ar    1  UNL1        0.0957
     10 C         -27.6529   50.7603   -7.1416 C.3     1  UNL1        0.0709
     11 C         -26.5788   50.6400   -6.0085 C.3     1  UNL1        0.1375
     12 C         -26.5961   49.2444   -5.3707 C.3     1  UNL1        0.0439
     13 C         -26.7760   51.7206   -4.9372 C.3     1  UNL1        0.0439
     14 O         -25.3179   50.8448   -6.6549 O.3     1  UNL1       -0.4824
     15 H         -29.3232   51.0538   -9.7417 H       1  UNL1        0.1686
     16 C         -23.0682   51.3233   -8.5205 C.2     1  UNL1        0.2522
     17 O         -22.7040   50.5404   -7.6015 O.2     1  UNL1       -0.2697
     18 N         -22.1432   52.2732   -9.0684 N.am    1  UNL1       -0.2806
     19 H         -22.5377   53.1171   -9.5414 H       1  UNL1        0.1552
     20 C         -20.7145   52.1424   -8.9544 C.ar    1  UNL1        0.0465
     21 C         -20.0872   52.3235   -7.7104 C.ar    1  UNL1        0.0143
     22 C         -18.7079   52.1600   -7.5775 C.ar    1  UNL1        0.0051
     23 C         -17.9267   51.7806   -8.6792 C.ar    1  UNL1        0.0712
     24 C         -18.5456   51.6131   -9.9287 C.ar    1  UNL1        0.0008
     25 C         -19.9327   51.7858  -10.0763 C.ar    1  UNL1       -0.0084
     26 C         -20.5633   51.5819  -11.4276 C.3     1  UNL1        0.0323
     27 C         -16.4302   51.6449   -8.5456 C.3     1  UNL1        0.4186
     28 F         -15.7957   52.0263   -9.7152 F       1  UNL1       -0.1659
     29 F         -16.1158   50.3269   -8.2721 F       1  UNL1       -0.1659
     30 F         -15.9581   52.4438   -7.5184 F       1  UNL1       -0.1659
     31 C         -23.4889   53.1190  -11.6708 C.3     1  UNL1        0.0051
     32 C         -23.8591   51.6559  -11.4512 C.3     1  UNL1        0.0282
     33 N         -29.1946   51.4688  -12.5096 N.pl3   1  UNL1       -0.2816
     34 H         -29.5768   52.3998  -12.7905 H       1  UNL1        0.1551
     35 C         -29.8934   50.2876  -12.9257 C.ar    1  UNL1        0.0889
     36 C         -29.5255   49.6592  -14.1265 C.ar    1  UNL1        0.1543
     37 F         -28.5301   50.1749  -14.8908 F       1  UNL1       -0.2028
     38 C         -30.1962   48.5100  -14.5551 C.ar    1  UNL1        0.0310
     39 C         -31.2275   47.9717  -13.7831 C.ar    1  UNL1        0.0033
     40 C         -31.5840   48.5741  -12.5744 C.ar    1  UNL1        0.0128
     41 C         -30.9192   49.7256  -12.1356 C.ar    1  UNL1        0.0733
     42 CL        -31.3415   50.3911  -10.5622 Cl      1  UNL1       -0.0809
@<TRIPOS>BOND
     1    31    32    1
     2    32     1    1
     3     1     2   ar
     4     2    16    1
     5    16    17    2
     6    16    18   am
     7    18    20    1
     8    20    21   ar
     9    21    22   ar
    10    22    23   ar
    11    23    27    1
    12    27    28    1
    13    27    29    1
    14    27    30    1
    15    23    24   ar
    16    24    25   ar
    17    25    26    1
    18     2     3   ar
    19     3     4   ar
    20     4     5   ar
    21     5     6   ar
    22     6     7   ar
    23     7    33    1
    24    33    35    1
    25    35    36   ar
    26    36    37    1
    27    36    38   ar
    28    38    39   ar
    29    39    40   ar
    30    40    41   ar
    31    41    42    1
    32     7     8   ar
    33     8     9   ar
    34     4    10    1
    35    10    11    1
    36    11    12    1
    37    11    13    1
    38    11    14    1
    39     9     1   ar
    40    25    20   ar
    41    14     3    1
    42     9     5   ar
    43    41    35   ar
    44    18    19    1
    45     6    15    1
    46    33    34    1
