@<TRIPOS>MOLECULE
*****
 34 38 0 0 0
SMALL
GASTEIGER

@<TRIPOS>ATOM
      1 C         -61.2511  -42.5204  -20.5589 C.2     1  UNL1        0.2491
      2 O         -60.4042  -42.1768  -19.6896 O.2     1  UNL1       -0.2699
      3 N         -60.9102  -43.5485  -21.5064 N.am    1  UNL1       -0.2760
      4 C         -59.5406  -43.6231  -22.0273 C.3     1  UNL1        0.0954
      5 C         -59.4689  -44.4794  -23.3072 C.3     1  UNL1        0.0399
      6 C         -60.7898  -44.4479  -24.1193 C.3     1  UNL1        0.0645
      7 C         -61.9630  -44.9828  -23.2368 C.3     1  UNL1        0.0399
      8 C         -61.8134  -44.6808  -21.7333 C.3     1  UNL1        0.0954
      9 C         -60.6283  -45.3629  -25.3824 C.3     1  UNL1        0.0477
     10 C         -61.7475  -45.1152  -26.3503 C.ar    1  UNL1        0.0220
     11 C         -62.2394  -45.8811  -27.3812 C.ar    1  UNL1        0.0923
     12 N         -63.1404  -45.1296  -28.0638 N.ar    1  UNL1       -0.2534
     13 N         -63.2067  -43.9135  -27.5280 N.ar    1  UNL1       -0.1651
     14 C         -62.3591  -43.9060  -26.4855 C.ar    1  UNL1        0.1515
     15 C         -62.0196  -42.7946  -25.6099 C.2     1  UNL1        0.2650
     16 O         -62.4916  -41.6420  -25.7953 O.2     1  UNL1       -0.2684
     17 N         -61.0952  -43.0552  -24.5413 N.am    1  UNL1       -0.3023
     18 H         -60.6889  -42.2367  -24.0361 H       1  UNL1        0.1497
     19 C         -66.4141  -40.4091  -23.1189 C.ar    1  UNL1        0.2249
     20 C         -66.9762  -39.8160  -21.9837 C.ar    1  UNL1        0.0577
     21 C         -66.2929  -39.8689  -20.7661 C.ar    1  UNL1        0.0063
     22 C         -65.0523  -40.5152  -20.6912 C.ar    1  UNL1        0.0179
     23 C         -64.3347  -40.5846  -19.4895 C.ar    1  UNL1        0.0016
     24 C         -63.0981  -41.2378  -19.4482 C.ar    1  UNL1        0.0046
     25 C         -62.5666  -41.8380  -20.6044 C.ar    1  UNL1        0.0551
     26 C         -63.2841  -41.7529  -21.8101 C.ar    1  UNL1        0.0237
     27 C         -64.5192  -41.1027  -21.8574 C.ar    1  UNL1        0.0845
     28 N         -65.2068  -41.0336  -23.0284 N.ar    1  UNL1       -0.2117
     29 C         -66.4320  -40.2713  -25.5900 C.3     1  UNL1        0.2542
     30 O         -67.0997  -40.3543  -24.3359 O.3     1  UNL1       -0.4561
     31 C         -63.8863  -45.5518  -29.2661 C.3     1  UNL1        0.0867
     32 C         -65.3401  -45.0338  -29.2126 C.3     1  UNL1        0.0244
     33 C         -63.9151  -47.0906  -29.3446 C.3     1  UNL1        0.0244
     34 C         -63.1989  -44.9799  -30.5194 C.3     1  UNL1        0.0244
@<TRIPOS>BOND
     1    29    30    1
     2    30    19    1
     3    19    20   ar
     4    20    21   ar
     5    21    22   ar
     6    22    23   ar
     7    23    24   ar
     8    24    25   ar
     9    25     1    1
    10     1     2    2
    11     1     3   am
    12     3     4    1
    13     4     5    1
    14     5     6    1
    15     6     7    1
    16     7     8    1
    17     6     9    1
    18     9    10    1
    19    10    11   ar
    20    11    12   ar
    21    12    31    1
    22    31    32    1
    23    31    33    1
    24    31    34    1
    25    12    13   ar
    26    13    14   ar
    27    14    15    1
    28    15    16    2
    29    15    17   am
    30    25    26   ar
    31    26    27   ar
    32    27    28   ar
    33    28    19   ar
    34    27    22   ar
    35     8     3    1
    36    14    10   ar
    37    17     6    1
    38    17    18    1
@<TRIPOS>MOLECULE
*****
 34 38 0 0 0
SMALL
GASTEIGER

@<TRIPOS>ATOM
      1 C         -63.4478  -42.8623  -30.9512 C.2     1  UNL1        0.2491
      2 O         -63.3714  -42.1418  -31.9837 O.2     1  UNL1       -0.2699
      3 N         -62.9138  -42.3709  -29.7085 N.am    1  UNL1       -0.2760
      4 C         -61.6843  -41.5704  -29.7188 C.3     1  UNL1        0.0954
      5 C         -61.0449  -41.4990  -28.3178 C.3     1  UNL1        0.0399
      6 C         -61.3495  -42.7546  -27.4598 C.3     1  UNL1        0.0645
      7 C         -62.8944  -42.9112  -27.2861 C.3     1  UNL1        0.0399
      8 C         -63.7208  -42.4077  -28.4851 C.3     1  UNL1        0.0954
      9 C         -60.6817  -42.5786  -26.0520 C.3     1  UNL1        0.0477
     10 C         -60.6775  -43.8836  -25.3119 C.ar    1  UNL1        0.0220
     11 C         -60.5482  -44.1642  -23.9719 C.ar    1  UNL1        0.0923
     12 N         -60.4310  -45.5099  -23.8386 N.ar    1  UNL1       -0.2534
     13 N         -60.4434  -46.0816  -25.0400 N.ar    1  UNL1       -0.1651
     14 C         -60.5937  -45.0913  -25.9355 C.ar    1  UNL1        0.1515
     15 C         -60.6049  -45.1852  -27.3875 C.2     1  UNL1        0.2650
     16 O         -60.4137  -46.2807  -27.9782 O.2     1  UNL1       -0.2684
     17 N         -60.8097  -43.9696  -28.1256 N.am    1  UNL1       -0.3023
     18 H         -60.6204  -43.9836  -29.1523 H       1  UNL1        0.1497
     19 C         -64.4875  -48.6990  -29.3639 C.ar    1  UNL1        0.2249
     20 C         -65.3974  -49.0257  -30.3747 C.ar    1  UNL1        0.0577
     21 C         -65.7548  -48.0617  -31.3209 C.ar    1  UNL1        0.0063
     22 C         -65.2006  -46.7771  -31.2499 C.ar    1  UNL1        0.0179
     23 C         -65.5305  -45.7853  -32.1834 C.ar    1  UNL1        0.0016
     24 C         -64.9593  -44.5118  -32.0844 C.ar    1  UNL1        0.0046
     25 C         -64.0587  -44.2099  -31.0467 C.ar    1  UNL1        0.0551
     26 C         -63.7206  -45.2128  -30.1216 C.ar    1  UNL1        0.0237
     27 C         -64.2878  -46.4857  -30.2150 C.ar    1  UNL1        0.0845
     28 N         -63.9581  -47.4450  -29.3096 N.ar    1  UNL1       -0.2117
     29 C         -63.7838  -49.3369  -27.0783 C.3     1  UNL1        0.2542
     30 O         -64.1313  -49.6654  -28.4188 O.3     1  UNL1       -0.4561
     31 C         -60.2400  -46.2413  -22.5702 C.3     1  UNL1        0.0867
     32 C         -60.5560  -47.7414  -22.7558 C.3     1  UNL1        0.0244
     33 C         -61.1841  -45.6692  -21.4948 C.3     1  UNL1        0.0244
     34 C         -58.7780  -46.0926  -22.1110 C.3     1  UNL1        0.0244
@<TRIPOS>BOND
     1    29    30    1
     2    30    19    1
     3    19    20   ar
     4    20    21   ar
     5    21    22   ar
     6    22    23   ar
     7    23    24   ar
     8    24    25   ar
     9    25     1    1
    10     1     2    2
    11     1     3   am
    12     3     4    1
    13     4     5    1
    14     5     6    1
    15     6     7    1
    16     7     8    1
    17     6     9    1
    18     9    10    1
    19    10    11   ar
    20    11    12   ar
    21    12    31    1
    22    31    32    1
    23    31    33    1
    24    31    34    1
    25    12    13   ar
    26    13    14   ar
    27    14    15    1
    28    15    16    2
    29    15    17   am
    30    25    26   ar
    31    26    27   ar
    32    27    28   ar
    33    28    19   ar
    34    27    22   ar
    35     8     3    1
    36    14    10   ar
    37    17     6    1
    38    17    18    1
@<TRIPOS>MOLECULE
*****
 34 38 0 0 0
SMALL
GASTEIGER

@<TRIPOS>ATOM
      1 C         -60.6015  -46.3386  -22.3976 C.2     1  UNL1        0.2491
      2 O         -59.8611  -46.9860  -21.6078 O.2     1  UNL1       -0.2699
      3 N         -61.2831  -47.0366  -23.4555 N.am    1  UNL1       -0.2760
      4 C         -60.6103  -48.1491  -24.1354 C.3     1  UNL1        0.0954
      5 C         -61.2898  -48.4846  -25.4779 C.3     1  UNL1        0.0399
      6 C         -61.9675  -47.2497  -26.1270 C.3     1  UNL1        0.0645
      7 C         -63.0513  -46.6750  -25.1593 C.3     1  UNL1        0.0399
      8 C         -62.7221  -46.8496  -23.6642 C.3     1  UNL1        0.0954
      9 C         -62.6485  -47.6938  -27.4678 C.3     1  UNL1        0.0477
     10 C         -63.0351  -46.4914  -28.2775 C.ar    1  UNL1        0.0220
     11 C         -63.9411  -46.3423  -29.3013 C.ar    1  UNL1        0.0923
     12 N         -63.7865  -45.0952  -29.8144 N.ar    1  UNL1       -0.2534
     13 N         -62.7973  -44.4698  -29.1813 N.ar    1  UNL1       -0.1651
     14 C         -62.3411  -45.3202  -28.2464 C.ar    1  UNL1        0.1515
     15 C         -61.2243  -45.1371  -27.3319 C.2     1  UNL1        0.2650
     16 O         -60.5032  -44.1055  -27.3709 O.2     1  UNL1       -0.2684
     17 N         -60.9534  -46.1974  -26.4009 N.am    1  UNL1       -0.3023
     18 H         -60.0466  -46.1738  -25.8837 H       1  UNL1        0.1497
     19 C         -62.2413  -41.0945  -19.6631 C.ar    1  UNL1        0.2249
     20 C         -61.7641  -40.2032  -20.6296 C.ar    1  UNL1        0.0577
     21 C         -61.1401  -40.6978  -21.7778 C.ar    1  UNL1        0.0063
     22 C         -60.9965  -42.0804  -21.9516 C.ar    1  UNL1        0.0179
     23 C         -60.3809  -42.6144  -23.0917 C.ar    1  UNL1        0.0016
     24 C         -60.2530  -44.0004  -23.2350 C.ar    1  UNL1        0.0046
     25 C         -60.7298  -44.8702  -22.2373 C.ar    1  UNL1        0.0551
     26 C         -61.3590  -44.3294  -21.1027 C.ar    1  UNL1        0.0237
     27 C         -61.4892  -42.9468  -20.9538 C.ar    1  UNL1        0.0845
     28 N         -62.0934  -42.4360  -19.8481 N.ar    1  UNL1       -0.2117
     29 C         -64.1582  -40.0016  -18.5417 C.3     1  UNL1        0.2542
     30 O         -62.8657  -40.5970  -18.5156 O.3     1  UNL1       -0.4561
     31 C         -64.5377  -44.5274  -30.9518 C.3     1  UNL1        0.0867
     32 C         -65.6599  -43.5933  -30.4490 C.3     1  UNL1        0.0244
     33 C         -65.1759  -45.6657  -31.7715 C.3     1  UNL1        0.0244
     34 C         -63.5781  -43.7189  -31.8439 C.3     1  UNL1        0.0244
@<TRIPOS>BOND
     1    29    30    1
     2    30    19    1
     3    19    20   ar
     4    20    21   ar
     5    21    22   ar
     6    22    23   ar
     7    23    24   ar
     8    24    25   ar
     9    25     1    1
    10     1     2    2
    11     1     3   am
    12     3     4    1
    13     4     5    1
    14     5     6    1
    15     6     7    1
    16     7     8    1
    17     6     9    1
    18     9    10    1
    19    10    11   ar
    20    11    12   ar
    21    12    31    1
    22    31    32    1
    23    31    33    1
    24    31    34    1
    25    12    13   ar
    26    13    14   ar
    27    14    15    1
    28    15    16    2
    29    15    17   am
    30    25    26   ar
    31    26    27   ar
    32    27    28   ar
    33    28    19   ar
    34    27    22   ar
    35     8     3    1
    36    14    10   ar
    37    17     6    1
    38    17    18    1
@<TRIPOS>MOLECULE
*****
 34 38 0 0 0
SMALL
GASTEIGER

@<TRIPOS>ATOM
      1 C         -60.5509  -45.6847  -22.1541 C.2     1  UNL1        0.2491
      2 O         -59.7884  -46.2757  -21.3415 O.2     1  UNL1       -0.2699
      3 N         -61.1009  -46.4172  -23.2639 N.am    1  UNL1       -0.2760
      4 C         -60.2817  -47.4336  -23.9335 C.3     1  UNL1        0.0954
      5 C         -60.8528  -47.7969  -25.3186 C.3     1  UNL1        0.0399
      6 C         -61.6216  -46.6195  -25.9729 C.3     1  UNL1        0.0645
      7 C         -62.8076  -46.1887  -25.0514 C.3     1  UNL1        0.0399
      8 C         -62.5390  -46.3732  -23.5455 C.3     1  UNL1        0.0954
      9 C         -62.1830  -47.0910  -27.3591 C.3     1  UNL1        0.0477
     10 C         -62.6511  -45.9111  -28.1588 C.ar    1  UNL1        0.0220
     11 C         -63.5141  -45.8255  -29.2261 C.ar    1  UNL1        0.0923
     12 N         -63.4646  -44.5543  -29.6995 N.ar    1  UNL1       -0.2534
     13 N         -62.5798  -43.8496  -28.9987 N.ar    1  UNL1       -0.1651
     14 C         -62.0857  -44.6761  -28.0616 C.ar    1  UNL1        0.1515
     15 C         -61.0424  -44.4064  -27.0839 C.2     1  UNL1        0.2650
     16 O         -60.4319  -43.3054  -27.0587 O.2     1  UNL1       -0.2684
     17 N         -60.7103  -45.4606  -26.1658 N.am    1  UNL1       -0.3023
     18 H         -59.8386  -45.3593  -25.6000 H       1  UNL1        0.1497
     19 C         -62.8452  -40.7189  -19.3710 C.ar    1  UNL1        0.2249
     20 C         -62.4257  -39.7560  -20.2946 C.ar    1  UNL1        0.0577
     21 C         -61.7066  -40.1505  -21.4259 C.ar    1  UNL1        0.0063
     22 C         -61.4109  -41.5051  -21.6257 C.ar    1  UNL1        0.0179
     23 C         -60.6965  -41.9399  -22.7502 C.ar    1  UNL1        0.0016
     24 C         -60.4173  -43.3004  -22.9203 C.ar    1  UNL1        0.0046
     25 C         -60.8399  -44.2427  -21.9651 C.ar    1  UNL1        0.0551
     26 C         -61.5685  -43.8025  -20.8464 C.ar    1  UNL1        0.0237
     27 C         -61.8497  -42.4458  -20.6709 C.ar    1  UNL1        0.0845
     28 N         -62.5491  -42.0319  -19.5808 N.ar    1  UNL1       -0.2117
     29 C         -64.7924  -40.9320  -17.8580 C.3     1  UNL1        0.2542
     30 O         -63.5648  -40.3216  -18.2404 O.3     1  UNL1       -0.4561
     31 C         -64.2117  -44.0331  -30.8615 C.3     1  UNL1        0.0867
     32 C         -65.0397  -45.1564  -31.5227 C.3     1  UNL1        0.0244
     33 C         -63.2244  -43.4717  -31.9032 C.3     1  UNL1        0.0244
     34 C         -65.1659  -42.9182  -30.3957 C.3     1  UNL1        0.0244
@<TRIPOS>BOND
     1    29    30    1
     2    30    19    1
     3    19    20   ar
     4    20    21   ar
     5    21    22   ar
     6    22    23   ar
     7    23    24   ar
     8    24    25   ar
     9    25     1    1
    10     1     2    2
    11     1     3   am
    12     3     4    1
    13     4     5    1
    14     5     6    1
    15     6     7    1
    16     7     8    1
    17     6     9    1
    18     9    10    1
    19    10    11   ar
    20    11    12   ar
    21    12    31    1
    22    31    32    1
    23    31    33    1
    24    31    34    1
    25    12    13   ar
    26    13    14   ar
    27    14    15    1
    28    15    16    2
    29    15    17   am
    30    25    26   ar
    31    26    27   ar
    32    27    28   ar
    33    28    19   ar
    34    27    22   ar
    35     8     3    1
    36    14    10   ar
    37    17     6    1
    38    17    18    1
@<TRIPOS>MOLECULE
*****
 34 38 0 0 0
SMALL
GASTEIGER

@<TRIPOS>ATOM
      1 C         -60.3587  -45.8260  -26.9781 C.2     1  UNL1        0.2491
      2 O         -59.4891  -46.0158  -27.8718 O.2     1  UNL1       -0.2699
      3 N         -61.2937  -44.7419  -27.1242 N.am    1  UNL1       -0.2760
      4 C         -60.8442  -43.4776  -27.7177 C.3     1  UNL1        0.0954
      5 C         -61.8250  -42.3288  -27.4097 C.3     1  UNL1        0.0399
      6 C         -62.5748  -42.5301  -26.0671 C.3     1  UNL1        0.0645
      7 C         -63.3835  -43.8663  -26.1113 C.3     1  UNL1        0.0399
      8 C         -62.7324  -44.9729  -26.9632 C.3     1  UNL1        0.0954
      9 C         -63.5617  -41.3302  -25.8548 C.3     1  UNL1        0.0477
     10 C         -64.0662  -41.3159  -24.4419 C.ar    1  UNL1        0.0220
     11 C         -65.1729  -40.7223  -23.8816 C.ar    1  UNL1        0.0923
     12 N         -65.0817  -40.8615  -22.5344 N.ar    1  UNL1       -0.2534
     13 N         -63.9472  -41.4836  -22.2243 N.ar    1  UNL1       -0.1651
     14 C         -63.3304  -41.7597  -23.3856 C.ar    1  UNL1        0.1515
     15 C         -62.0281  -42.3764  -23.5882 C.2     1  UNL1        0.2650
     16 O         -61.2881  -42.6869  -22.6178 O.2     1  UNL1       -0.2684
     17 N         -61.6021  -42.5878  -24.9440 N.am    1  UNL1       -0.3023
     18 H         -60.6016  -42.8371  -25.1087 H       1  UNL1        0.1497
     19 C         -62.1445  -50.5547  -23.4969 C.ar    1  UNL1        0.2249
     20 C         -61.3413  -50.3003  -22.3806 C.ar    1  UNL1        0.0577
     21 C         -60.4851  -49.1960  -22.3824 C.ar    1  UNL1        0.0063
     22 C         -60.4372  -48.3538  -23.5008 C.ar    1  UNL1        0.0179
     23 C         -59.5953  -47.2341  -23.5380 C.ar    1  UNL1        0.0016
     24 C         -59.5708  -46.4128  -24.6706 C.ar    1  UNL1        0.0046
     25 C         -60.3800  -46.7045  -25.7839 C.ar    1  UNL1        0.0551
     26 C         -61.2329  -47.8208  -25.7353 C.ar    1  UNL1        0.0237
     27 C         -61.2612  -48.6445  -24.6078 C.ar    1  UNL1        0.0845
     28 N         -62.0854  -49.7255  -24.5762 N.ar    1  UNL1       -0.2117
     29 C         -62.5706  -52.9623  -23.1125 C.3     1  UNL1        0.2542
     30 O         -63.0005  -51.6599  -23.4923 O.3     1  UNL1       -0.4561
     31 C         -66.0443  -40.3415  -21.5429 C.3     1  UNL1        0.0867
     32 C         -66.7263  -41.5030  -20.7876 C.3     1  UNL1        0.0244
     33 C         -67.1306  -39.5154  -22.2587 C.3     1  UNL1        0.0244
     34 C         -65.3012  -39.4544  -20.5274 C.3     1  UNL1        0.0244
@<TRIPOS>BOND
     1    29    30    1
     2    30    19    1
     3    19    20   ar
     4    20    21   ar
     5    21    22   ar
     6    22    23   ar
     7    23    24   ar
     8    24    25   ar
     9    25     1    1
    10     1     2    2
    11     1     3   am
    12     3     4    1
    13     4     5    1
    14     5     6    1
    15     6     7    1
    16     7     8    1
    17     6     9    1
    18     9    10    1
    19    10    11   ar
    20    11    12   ar
    21    12    31    1
    22    31    32    1
    23    31    33    1
    24    31    34    1
    25    12    13   ar
    26    13    14   ar
    27    14    15    1
    28    15    16    2
    29    15    17   am
    30    25    26   ar
    31    26    27   ar
    32    27    28   ar
    33    28    19   ar
    34    27    22   ar
    35     8     3    1
    36    14    10   ar
    37    17     6    1
    38    17    18    1
@<TRIPOS>MOLECULE
*****
 34 38 0 0 0
SMALL
GASTEIGER

@<TRIPOS>ATOM
      1 C         -62.4081  -41.9521  -28.0569 C.2     1  UNL1        0.2491
      2 O         -62.0530  -40.8041  -28.4403 O.2     1  UNL1       -0.2699
      3 N         -62.0217  -42.4082  -26.7479 N.am    1  UNL1       -0.2760
      4 C         -60.7018  -42.0465  -26.2192 C.3     1  UNL1        0.0954
      5 C         -60.3022  -42.9467  -25.0332 C.3     1  UNL1        0.0399
      6 C         -60.9308  -44.3617  -25.1217 C.3     1  UNL1        0.0645
      7 C         -62.4888  -44.2449  -25.1452 C.3     1  UNL1        0.0399
      8 C         -63.0181  -42.9710  -25.8315 C.3     1  UNL1        0.0954
      9 C         -60.4890  -45.1903  -23.8658 C.3     1  UNL1        0.0477
     10 C         -60.8045  -46.6435  -24.0646 C.ar    1  UNL1        0.0220
     11 C         -60.9447  -47.6713  -23.1618 C.ar    1  UNL1        0.0923
     12 N         -61.0546  -48.8282  -23.8632 N.ar    1  UNL1       -0.2534
     13 N         -60.9517  -48.5740  -25.1652 N.ar    1  UNL1       -0.1651
     14 C         -60.7999  -47.2446  -25.2865 C.ar    1  UNL1        0.1515
     15 C         -60.5822  -46.4708  -26.4994 C.2     1  UNL1        0.2650
     16 O         -60.4616  -47.0268  -27.6227 O.2     1  UNL1       -0.2684
     17 N         -60.4760  -45.0445  -26.3618 N.am    1  UNL1       -0.3023
     18 H         -60.1219  -44.4997  -27.1792 H       1  UNL1        0.1497
     19 C         -64.5670  -47.2156  -30.3597 C.ar    1  UNL1        0.2249
     20 C         -65.3316  -46.6829  -31.4027 C.ar    1  UNL1        0.0577
     21 C         -65.3748  -45.2990  -31.5911 C.ar    1  UNL1        0.0063
     22 C         -64.6537  -44.4568  -30.7348 C.ar    1  UNL1        0.0179
     23 C         -64.6681  -43.0647  -30.8950 C.ar    1  UNL1        0.0016
     24 C         -63.9370  -42.2511  -30.0224 C.ar    1  UNL1        0.0046
     25 C         -63.1897  -42.8169  -28.9733 C.ar    1  UNL1        0.0551
     26 C         -63.1676  -44.2147  -28.8261 C.ar    1  UNL1        0.0237
     27 C         -63.8958  -45.0318  -29.6937 C.ar    1  UNL1        0.0845
     28 N         -63.8719  -46.3821  -29.5363 N.ar    1  UNL1       -0.2117
     29 C         -64.1761  -49.1979  -28.9300 C.3     1  UNL1        0.2542
     30 O         -64.5252  -48.6004  -30.1737 O.3     1  UNL1       -0.4561
     31 C         -61.1904  -50.1809  -23.2870 C.3     1  UNL1        0.0867
     32 C         -60.1053  -51.1231  -23.8523 C.3     1  UNL1        0.0244
     33 C         -62.5751  -50.7580  -23.6397 C.3     1  UNL1        0.0244
     34 C         -61.0343  -50.1015  -21.7574 C.3     1  UNL1        0.0244
@<TRIPOS>BOND
     1    29    30    1
     2    30    19    1
     3    19    20   ar
     4    20    21   ar
     5    21    22   ar
     6    22    23   ar
     7    23    24   ar
     8    24    25   ar
     9    25     1    1
    10     1     2    2
    11     1     3   am
    12     3     4    1
    13     4     5    1
    14     5     6    1
    15     6     7    1
    16     7     8    1
    17     6     9    1
    18     9    10    1
    19    10    11   ar
    20    11    12   ar
    21    12    31    1
    22    31    32    1
    23    31    33    1
    24    31    34    1
    25    12    13   ar
    26    13    14   ar
    27    14    15    1
    28    15    16    2
    29    15    17   am
    30    25    26   ar
    31    26    27   ar
    32    27    28   ar
    33    28    19   ar
    34    27    22   ar
    35     8     3    1
    36    14    10   ar
    37    17     6    1
    38    17    18    1
@<TRIPOS>MOLECULE
*****
 34 38 0 0 0
SMALL
GASTEIGER

@<TRIPOS>ATOM
      1 C         -61.3600  -45.7645  -22.0015 C.2     1  UNL1        0.2491
      2 O         -60.6403  -46.1950  -21.0593 O.2     1  UNL1       -0.2699
      3 N         -61.1788  -46.2972  -23.3260 N.am    1  UNL1       -0.2760
      4 C         -59.8278  -46.6341  -23.7887 C.3     1  UNL1        0.0954
      5 C         -59.7754  -46.7769  -25.3228 C.3     1  UNL1        0.0399
      6 C         -60.8276  -45.8912  -26.0395 C.3     1  UNL1        0.0645
      7 C         -62.2615  -46.2848  -25.5594 C.3     1  UNL1        0.0399
      8 C         -62.3286  -46.7748  -24.1001 C.3     1  UNL1        0.0954
      9 C         -60.7137  -46.1227  -27.5862 C.3     1  UNL1        0.0477
     10 C         -61.4795  -45.0669  -28.3275 C.ar    1  UNL1        0.0220
     11 C         -61.9710  -45.0383  -29.6116 C.ar    1  UNL1        0.0923
     12 N         -62.4324  -43.7846  -29.8520 N.ar    1  UNL1       -0.2534
     13 N         -62.2170  -43.0163  -28.7872 N.ar    1  UNL1       -0.1651
     14 C         -61.6375  -43.7976  -27.8604 C.ar    1  UNL1        0.1515
     15 C         -61.1470  -43.4191  -26.5438 C.2     1  UNL1        0.2650
     16 O         -61.1835  -42.2251  -26.1454 O.2     1  UNL1       -0.2684
     17 N         -60.5862  -44.4581  -25.7250 N.am    1  UNL1       -0.3023
     18 H         -60.0521  -44.1748  -24.8737 H       1  UNL1        0.1497
     19 C         -64.5310  -40.6179  -23.0622 C.ar    1  UNL1        0.2249
     20 C         -65.3062  -40.6130  -21.8980 C.ar    1  UNL1        0.0577
     21 C         -65.1535  -41.6389  -20.9617 C.ar    1  UNL1        0.0063
     22 C         -64.2274  -42.6634  -21.1960 C.ar    1  UNL1        0.0179
     23 C         -64.0423  -43.7063  -20.2784 C.ar    1  UNL1        0.0016
     24 C         -63.1090  -44.7148  -20.5424 C.ar    1  UNL1        0.0046
     25 C         -62.3553  -44.6995  -21.7302 C.ar    1  UNL1        0.0551
     26 C         -62.5350  -43.6434  -22.6402 C.ar    1  UNL1        0.0237
     27 C         -63.4655  -42.6342  -22.3825 C.ar    1  UNL1        0.0845
     28 N         -63.6350  -41.6219  -23.2742 N.ar    1  UNL1       -0.2117
     29 C         -65.6755  -39.6239  -25.0188 C.3     1  UNL1        0.2542
     30 O         -64.6853  -39.5901  -23.9970 O.3     1  UNL1       -0.4561
     31 C         -63.0165  -43.3051  -31.1205 C.3     1  UNL1        0.0867
     32 C         -64.1669  -44.2308  -31.5725 C.3     1  UNL1        0.0244
     33 C         -61.9345  -43.2937  -32.2178 C.3     1  UNL1        0.0244
     34 C         -63.5701  -41.8824  -30.9213 C.3     1  UNL1        0.0244
@<TRIPOS>BOND
     1    29    30    1
     2    30    19    1
     3    19    20   ar
     4    20    21   ar
     5    21    22   ar
     6    22    23   ar
     7    23    24   ar
     8    24    25   ar
     9    25     1    1
    10     1     2    2
    11     1     3   am
    12     3     4    1
    13     4     5    1
    14     5     6    1
    15     6     7    1
    16     7     8    1
    17     6     9    1
    18     9    10    1
    19    10    11   ar
    20    11    12   ar
    21    12    31    1
    22    31    32    1
    23    31    33    1
    24    31    34    1
    25    12    13   ar
    26    13    14   ar
    27    14    15    1
    28    15    16    2
    29    15    17   am
    30    25    26   ar
    31    26    27   ar
    32    27    28   ar
    33    28    19   ar
    34    27    22   ar
    35     8     3    1
    36    14    10   ar
    37    17     6    1
    38    17    18    1
@<TRIPOS>MOLECULE
*****
 34 38 0 0 0
SMALL
GASTEIGER

@<TRIPOS>ATOM
      1 C         -61.0824  -45.1374  -28.3221 C.2     1  UNL1        0.2491
      2 O         -60.2575  -45.2045  -29.2740 O.2     1  UNL1       -0.2699
      3 N         -61.9341  -43.9831  -28.2084 N.am    1  UNL1       -0.2760
      4 C         -61.4058  -42.6602  -28.5595 C.3     1  UNL1        0.0954
      5 C         -62.2845  -41.5306  -27.9862 C.3     1  UNL1        0.0399
      6 C         -63.0068  -41.9442  -26.6777 C.3     1  UNL1        0.0645
      7 C         -63.9180  -43.1842  -26.9489 C.3     1  UNL1        0.0399
      8 C         -63.3810  -44.1402  -28.0315 C.3     1  UNL1        0.0954
      9 C         -63.8905  -40.7451  -26.1877 C.3     1  UNL1        0.0477
     10 C         -64.3495  -40.9793  -24.7787 C.ar    1  UNL1        0.0220
     11 C         -65.3892  -40.4341  -24.0626 C.ar    1  UNL1        0.0923
     12 N         -65.2685  -40.8470  -22.7751 N.ar    1  UNL1       -0.2534
     13 N         -64.1769  -41.5967  -22.6458 N.ar    1  UNL1       -0.1651
     14 C         -63.6188  -41.6768  -23.8654 C.ar    1  UNL1        0.1515
     15 C         -62.3752  -42.3301  -24.2446 C.2     1  UNL1        0.2650
     16 O         -61.6326  -42.8802  -23.3893 O.2     1  UNL1       -0.2684
     17 N         -62.0081  -42.2943  -25.6333 N.am    1  UNL1       -0.3023
     18 H         -61.0354  -42.5751  -25.8890 H       1  UNL1        0.1497
     19 C         -60.4396  -47.7852  -22.8226 C.ar    1  UNL1        0.2249
     20 C         -60.8563  -49.0749  -23.1678 C.ar    1  UNL1        0.0577
     21 C         -61.2434  -49.3475  -24.4825 C.ar    1  UNL1        0.0063
     22 C         -61.2120  -48.3285  -25.4432 C.ar    1  UNL1        0.0179
     23 C         -61.5877  -48.5643  -26.7725 C.ar    1  UNL1        0.0016
     24 C         -61.5452  -47.5246  -27.7079 C.ar    1  UNL1        0.0046
     25 C         -61.1358  -46.2341  -27.3256 C.ar    1  UNL1        0.0551
     26 C         -60.7465  -46.0068  -25.9942 C.ar    1  UNL1        0.0237
     27 C         -60.7874  -47.0405  -25.0559 C.ar    1  UNL1        0.0845
     28 N         -60.4151  -46.8060  -23.7694 N.ar    1  UNL1       -0.2117
     29 C         -60.4822  -48.3041  -20.4029 C.3     1  UNL1        0.2542
     30 O         -60.0525  -47.5153  -21.5068 O.3     1  UNL1       -0.4561
     31 C         -66.1573  -40.4704  -21.6579 C.3     1  UNL1        0.0867
     32 C         -66.7324  -41.7296  -20.9736 C.3     1  UNL1        0.0244
     33 C         -67.3284  -39.6219  -22.1904 C.3     1  UNL1        0.0244
     34 C         -65.3578  -39.6605  -20.6210 C.3     1  UNL1        0.0244
@<TRIPOS>BOND
     1    29    30    1
     2    30    19    1
     3    19    20   ar
     4    20    21   ar
     5    21    22   ar
     6    22    23   ar
     7    23    24   ar
     8    24    25   ar
     9    25     1    1
    10     1     2    2
    11     1     3   am
    12     3     4    1
    13     4     5    1
    14     5     6    1
    15     6     7    1
    16     7     8    1
    17     6     9    1
    18     9    10    1
    19    10    11   ar
    20    11    12   ar
    21    12    31    1
    22    31    32    1
    23    31    33    1
    24    31    34    1
    25    12    13   ar
    26    13    14   ar
    27    14    15    1
    28    15    16    2
    29    15    17   am
    30    25    26   ar
    31    26    27   ar
    32    27    28   ar
    33    28    19   ar
    34    27    22   ar
    35     8     3    1
    36    14    10   ar
    37    17     6    1
    38    17    18    1
@<TRIPOS>MOLECULE
*****
 34 38 0 0 0
SMALL
GASTEIGER

@<TRIPOS>ATOM
      1 C         -60.9655  -42.7551  -20.8324 C.2     1  UNL1        0.2491
      2 O         -60.0589  -42.5370  -19.9829 O.2     1  UNL1       -0.2699
      3 N         -60.7821  -43.7992  -21.8057 N.am    1  UNL1       -0.2760
      4 C         -59.4474  -44.0343  -22.3677 C.3     1  UNL1        0.0954
      5 C         -59.5185  -44.8678  -23.6626 C.3     1  UNL1        0.0399
      6 C         -60.8466  -44.6555  -24.4350 C.3     1  UNL1        0.0645
      7 C         -62.0533  -45.0566  -23.5270 C.3     1  UNL1        0.0399
      8 C         -61.8262  -44.8050  -22.0240 C.3     1  UNL1        0.0954
      9 C         -60.8355  -45.5589  -25.7167 C.3     1  UNL1        0.0477
     10 C         -61.9406  -45.1544  -26.6472 C.ar    1  UNL1        0.0220
     11 C         -62.5525  -45.8326  -27.6752 C.ar    1  UNL1        0.0923
     12 N         -63.3703  -44.9613  -28.3191 N.ar    1  UNL1       -0.2534
     13 N         -63.2688  -43.7570  -27.7623 N.ar    1  UNL1       -0.1651
     14 C         -62.3990  -43.8758  -26.7452 C.ar    1  UNL1        0.1515
     15 C         -61.8990  -42.8328  -25.8624 C.2     1  UNL1        0.2650
     16 O         -62.2274  -41.6268  -26.0155 O.2     1  UNL1       -0.2684
     17 N         -60.9860  -43.2277  -24.8257 N.am    1  UNL1       -0.3023
     18 H         -60.4666  -42.4764  -24.3197 H       1  UNL1        0.1497
     19 C         -64.5161  -37.9937  -19.2863 C.ar    1  UNL1        0.2249
     20 C         -65.6583  -38.3477  -20.0118 C.ar    1  UNL1        0.0577
     21 C         -65.6586  -39.5204  -20.7715 C.ar    1  UNL1        0.0063
     22 C         -64.5166  -40.3310  -20.8016 C.ar    1  UNL1        0.0179
     23 C         -64.4804  -41.5168  -21.5476 C.ar    1  UNL1        0.0016
     24 C         -63.3238  -42.3042  -21.5567 C.ar    1  UNL1        0.0046
     25 C         -62.1857  -41.9128  -20.8284 C.ar    1  UNL1        0.0551
     26 C         -62.2325  -40.7298  -20.0706 C.ar    1  UNL1        0.0237
     27 C         -63.3840  -39.9394  -20.0580 C.ar    1  UNL1        0.0845
     28 N         -63.4141  -38.7936  -19.3267 N.ar    1  UNL1       -0.2117
     29 C         -63.7170  -35.6912  -18.8553 C.3     1  UNL1        0.2542
     30 O         -64.5186  -36.8203  -18.5266 O.3     1  UNL1       -0.4561
     31 C         -64.1956  -45.2633  -29.5055 C.3     1  UNL1        0.0867
     32 C         -65.6431  -44.7659  -29.3008 C.3     1  UNL1        0.0244
     33 C         -64.2276  -46.7860  -29.7407 C.3     1  UNL1        0.0244
     34 C         -63.5958  -44.5596  -30.7365 C.3     1  UNL1        0.0244
@<TRIPOS>BOND
     1    29    30    1
     2    30    19    1
     3    19    20   ar
     4    20    21   ar
     5    21    22   ar
     6    22    23   ar
     7    23    24   ar
     8    24    25   ar
     9    25     1    1
    10     1     2    2
    11     1     3   am
    12     3     4    1
    13     4     5    1
    14     5     6    1
    15     6     7    1
    16     7     8    1
    17     6     9    1
    18     9    10    1
    19    10    11   ar
    20    11    12   ar
    21    12    31    1
    22    31    32    1
    23    31    33    1
    24    31    34    1
    25    12    13   ar
    26    13    14   ar
    27    14    15    1
    28    15    16    2
    29    15    17   am
    30    25    26   ar
    31    26    27   ar
    32    27    28   ar
    33    28    19   ar
    34    27    22   ar
    35     8     3    1
    36    14    10   ar
    37    17     6    1
    38    17    18    1
