@<TRIPOS>MOLECULE
*****
 35 39 0 0 0
SMALL
GASTEIGER

@<TRIPOS>ATOM
      1 C         -20.8974   -7.8443   -8.3640 C.2     1  UNL1        0.2490
      2 O         -21.0532   -6.5932   -8.3216 O.2     1  UNL1       -0.2699
      3 N         -21.7810   -8.6375   -9.1790 N.am    1  UNL1       -0.2760
      4 C         -21.2498   -9.6478  -10.0995 C.3     1  UNL1        0.0954
      5 C         -21.5318   -9.2338  -11.5516 C.3     1  UNL1        0.0399
      6 C         -23.0153   -8.8390  -11.8069 C.3     1  UNL1        0.0645
      7 C         -23.4657   -7.7996  -10.7432 C.3     1  UNL1        0.0399
      8 C         -23.1934   -8.2748   -9.3125 C.3     1  UNL1        0.0954
      9 C         -23.9512  -10.1025  -11.7502 C.3     1  UNL1        0.0477
     10 C         -23.8148  -10.9257  -12.9943 C.ar    1  UNL1        0.0220
     11 C         -24.1604  -12.2317  -13.2523 C.ar    1  UNL1        0.0923
     12 N         -24.0112  -12.4458  -14.5839 N.ar    1  UNL1       -0.2534
     13 N         -23.6240  -11.3194  -15.1767 N.ar    1  UNL1       -0.1651
     14 C         -23.5053  -10.3956  -14.2078 C.ar    1  UNL1        0.1515
     15 C         -23.1701   -8.9877  -14.3460 C.2     1  UNL1        0.2650
     16 O         -22.9769   -8.4672  -15.4762 O.2     1  UNL1       -0.2684
     17 N         -23.0902   -8.2025  -13.1457 N.am    1  UNL1       -0.3023
     18 H         -22.8977   -7.1795  -13.2436 H       1  UNL1        0.1497
     19 C         -17.1723  -11.0940   -7.8969 C.ar    1  UNL1        0.2252
     20 N         -16.1910  -11.6435   -7.1274 N.ar    1  UNL1       -0.2049
     21 C         -15.9672  -11.2492   -5.8469 C.ar    1  UNL1        0.1185
     22 BR        -14.5723  -12.0708   -4.8384 Br      1  UNL1       -0.0279
     23 C         -16.7539  -10.2494   -5.2735 C.ar    1  UNL1        0.0262
     24 C         -17.7734   -9.6584   -6.0302 C.ar    1  UNL1        0.0065
     25 C         -18.5807   -8.6549   -5.4779 C.ar    1  UNL1        0.0004
     26 C         -19.5945   -8.0688   -6.2389 C.ar    1  UNL1        0.0045
     27 C         -19.8144   -8.4694   -7.5673 C.ar    1  UNL1        0.0537
     28 C         -19.0157   -9.4869   -8.1186 C.ar    1  UNL1        0.0092
     29 C         -17.9910  -10.0813   -7.3616 C.ar    1  UNL1        0.0534
     30 C         -17.7116  -12.8742   -9.5358 C.3     1  UNL1        0.2542
     31 O         -17.3635  -11.5333   -9.2127 O.3     1  UNL1       -0.4561
     32 C         -24.3093  -13.7036  -15.2976 C.3     1  UNL1        0.0867
     33 C         -25.6215  -14.3067  -14.7593 C.3     1  UNL1        0.0244
     34 C         -24.4493  -13.4145  -16.8033 C.3     1  UNL1        0.0244
     35 C         -23.1737  -14.7288  -15.0884 C.3     1  UNL1        0.0244
@<TRIPOS>BOND
     1    30    31    1
     2    31    19    1
     3    19    20   ar
     4    20    21   ar
     5    21    22    1
     6    21    23   ar
     7    23    24   ar
     8    24    25   ar
     9    25    26   ar
    10    26    27   ar
    11    27     1    1
    12     1     2    2
    13     1     3   am
    14     3     4    1
    15     4     5    1
    16     5     6    1
    17     6     7    1
    18     7     8    1
    19     6     9    1
    20     9    10    1
    21    10    11   ar
    22    11    12   ar
    23    12    32    1
    24    32    33    1
    25    32    34    1
    26    32    35    1
    27    12    13   ar
    28    13    14   ar
    29    14    15    1
    30    15    16    2
    31    15    17   am
    32    27    28   ar
    33    28    29   ar
    34    29    19   ar
    35    29    24   ar
    36     8     3    1
    37    14    10   ar
    38    17     6    1
    39    17    18    1
@<TRIPOS>MOLECULE
*****
 35 39 0 0 0
SMALL
GASTEIGER

@<TRIPOS>ATOM
      1 C         -27.9413   -5.7365  -14.0145 C.2     1  UNL1        0.2490
      2 O         -29.1142   -6.0761  -13.6975 O.2     1  UNL1       -0.2699
      3 N         -26.8583   -6.0100  -13.1055 N.am    1  UNL1       -0.2760
      4 C         -25.6217   -6.6408  -13.5780 C.3     1  UNL1        0.0954
      5 C         -25.4760   -8.0383  -12.9573 C.3     1  UNL1        0.0399
      6 C         -25.6631   -8.0532  -11.4124 C.3     1  UNL1        0.0645
      7 C         -26.9825   -7.3203  -11.0428 C.3     1  UNL1        0.0399
      8 C         -27.0629   -5.9198  -11.6583 C.3     1  UNL1        0.0954
      9 C         -24.4470   -7.3621  -10.6920 C.3     1  UNL1        0.0477
     10 C         -23.2462   -8.2577  -10.6910 C.ar    1  UNL1        0.0220
     11 C         -21.9151   -7.9788  -10.4863 C.ar    1  UNL1        0.0923
     12 N         -21.2524   -9.1594  -10.3954 N.ar    1  UNL1       -0.2534
     13 N         -22.1169  -10.1658  -10.4958 N.ar    1  UNL1       -0.1651
     14 C         -23.3296   -9.6150  -10.6754 C.ar    1  UNL1        0.1515
     15 C         -24.6147  -10.2871  -10.7769 C.2     1  UNL1        0.2650
     16 O         -24.7115  -11.5377  -10.6664 O.2     1  UNL1       -0.2684
     17 N         -25.7778   -9.4698  -10.9842 N.am    1  UNL1       -0.3023
     18 H         -26.7093   -9.9439  -11.0089 H       1  UNL1        0.1497
     19 C         -29.4941   -2.8592  -17.7514 C.ar    1  UNL1        0.2252
     20 N         -29.2366   -2.2550  -18.9454 N.ar    1  UNL1       -0.2049
     21 C         -28.0416   -2.3805  -19.5789 C.ar    1  UNL1        0.1185
     22 BR        -27.7635   -1.5012  -21.2484 Br      1  UNL1       -0.0279
     23 C         -27.0243   -3.1486  -19.0111 C.ar    1  UNL1        0.0262
     24 C         -27.2479   -3.7866  -17.7847 C.ar    1  UNL1        0.0065
     25 C         -26.2451   -4.5671  -17.1939 C.ar    1  UNL1        0.0004
     26 C         -26.4744   -5.1991  -15.9698 C.ar    1  UNL1        0.0045
     27 C         -27.7068   -5.0562  -15.3109 C.ar    1  UNL1        0.0537
     28 C         -28.7199   -4.2861  -15.9090 C.ar    1  UNL1        0.0092
     29 C         -28.4980   -3.6439  -17.1397 C.ar    1  UNL1        0.0534
     30 C         -31.8000   -1.9489  -17.7212 C.3     1  UNL1        0.2542
     31 O         -30.7419   -2.6989  -17.1364 O.3     1  UNL1       -0.4561
     32 C         -19.8076   -9.3240  -10.1392 C.3     1  UNL1        0.0867
     33 C         -19.4076  -10.7971  -10.3526 C.3     1  UNL1        0.0244
     34 C         -19.0132   -8.4247  -11.1038 C.3     1  UNL1        0.0244
     35 C         -19.4648   -8.9260   -8.6872 C.3     1  UNL1        0.0244
@<TRIPOS>BOND
     1    30    31    1
     2    31    19    1
     3    19    20   ar
     4    20    21   ar
     5    21    22    1
     6    21    23   ar
     7    23    24   ar
     8    24    25   ar
     9    25    26   ar
    10    26    27   ar
    11    27     1    1
    12     1     2    2
    13     1     3   am
    14     3     4    1
    15     4     5    1
    16     5     6    1
    17     6     7    1
    18     7     8    1
    19     6     9    1
    20     9    10    1
    21    10    11   ar
    22    11    12   ar
    23    12    32    1
    24    32    33    1
    25    32    34    1
    26    32    35    1
    27    12    13   ar
    28    13    14   ar
    29    14    15    1
    30    15    16    2
    31    15    17   am
    32    27    28   ar
    33    28    29   ar
    34    29    19   ar
    35    29    24   ar
    36     8     3    1
    37    14    10   ar
    38    17     6    1
    39    17    18    1
@<TRIPOS>MOLECULE
*****
 35 39 0 0 0
SMALL
GASTEIGER

@<TRIPOS>ATOM
      1 C         -19.4128   -9.7866   -9.6533 C.2     1  UNL1        0.2490
      2 O         -18.7701  -10.7879  -10.0728 O.2     1  UNL1       -0.2699
      3 N         -20.2940   -9.0874  -10.5525 N.am    1  UNL1       -0.2760
      4 C         -21.6636   -8.7501  -10.1515 C.3     1  UNL1        0.0954
      5 C         -22.6687   -9.5368  -11.0063 C.3     1  UNL1        0.0399
      6 C         -22.3960   -9.4346  -12.5351 C.3     1  UNL1        0.0645
      7 C         -20.9065   -9.7733  -12.8200 C.3     1  UNL1        0.0399
      8 C         -19.9459   -8.9386  -11.9671 C.3     1  UNL1        0.0954
      9 C         -22.7289   -7.9931  -13.0706 C.3     1  UNL1        0.0477
     10 C         -24.2092   -7.7930  -13.1840 C.ar    1  UNL1        0.0220
     11 C         -24.9575   -6.6433  -13.2818 C.ar    1  UNL1        0.0923
     12 N         -26.2370   -7.0023  -13.5563 N.ar    1  UNL1       -0.2534
     13 N         -26.3144   -8.3254  -13.6726 N.ar    1  UNL1       -0.1651
     14 C         -25.0795   -8.8047  -13.4460 C.ar    1  UNL1        0.1515
     15 C         -24.6244  -10.1835  -13.5182 C.2     1  UNL1        0.2650
     16 O         -25.4027  -11.1144  -13.8549 O.2     1  UNL1       -0.2684
     17 N         -23.2449  -10.4450  -13.2145 N.am    1  UNL1       -0.3023
     18 H         -22.9013  -11.4276  -13.3126 H       1  UNL1        0.1497
     19 C         -17.1328  -10.1109   -5.2543 C.ar    1  UNL1        0.2252
     20 N         -17.0104   -9.6798   -3.9673 N.ar    1  UNL1       -0.2049
     21 C         -17.7997   -8.7017   -3.4520 C.ar    1  UNL1        0.1185
     22 BR        -17.5625   -8.1571   -1.6396 Br      1  UNL1       -0.0279
     23 C         -18.7780   -8.1000   -4.2444 C.ar    1  UNL1        0.0262
     24 C         -18.9369   -8.5139   -5.5727 C.ar    1  UNL1        0.0065
     25 C         -19.9142   -7.9293   -6.3895 C.ar    1  UNL1        0.0004
     26 C         -20.0659   -8.3458   -7.7139 C.ar    1  UNL1        0.0045
     27 C         -19.2389   -9.3481   -8.2477 C.ar    1  UNL1        0.0537
     28 C         -18.2679   -9.9469   -7.4256 C.ar    1  UNL1        0.0092
     29 C         -18.1057   -9.5329   -6.0920 C.ar    1  UNL1        0.0534
     30 C         -14.9199  -11.2208   -5.3874 C.3     1  UNL1        0.2542
     31 O         -16.2945  -11.1217   -5.7404 O.3     1  UNL1       -0.4561
     32 C         -27.3668   -6.0783  -13.7797 C.3     1  UNL1        0.0867
     33 C         -28.6465   -6.8854  -14.0737 C.3     1  UNL1        0.0244
     34 C         -27.5747   -5.2140  -12.5226 C.3     1  UNL1        0.0244
     35 C         -27.0814   -5.1522  -14.9819 C.3     1  UNL1        0.0244
@<TRIPOS>BOND
     1    30    31    1
     2    31    19    1
     3    19    20   ar
     4    20    21   ar
     5    21    22    1
     6    21    23   ar
     7    23    24   ar
     8    24    25   ar
     9    25    26   ar
    10    26    27   ar
    11    27     1    1
    12     1     2    2
    13     1     3   am
    14     3     4    1
    15     4     5    1
    16     5     6    1
    17     6     7    1
    18     7     8    1
    19     6     9    1
    20     9    10    1
    21    10    11   ar
    22    11    12   ar
    23    12    32    1
    24    32    33    1
    25    32    34    1
    26    32    35    1
    27    12    13   ar
    28    13    14   ar
    29    14    15    1
    30    15    16    2
    31    15    17   am
    32    27    28   ar
    33    28    29   ar
    34    29    19   ar
    35    29    24   ar
    36     8     3    1
    37    14    10   ar
    38    17     6    1
    39    17    18    1
@<TRIPOS>MOLECULE
*****
 35 39 0 0 0
SMALL
GASTEIGER

@<TRIPOS>ATOM
      1 C         -26.4567   -5.4989  -13.2222 C.2     1  UNL1        0.2490
      2 O         -26.9037   -5.1666  -12.0903 O.2     1  UNL1       -0.2699
      3 N         -25.4418   -6.5169  -13.3082 N.am    1  UNL1       -0.2760
      4 C         -25.5700   -7.6275  -14.2572 C.3     1  UNL1        0.0954
      5 C         -25.7443   -8.9501  -13.4958 C.3     1  UNL1        0.0399
      6 C         -24.6807   -9.1685  -12.3808 C.3     1  UNL1        0.0645
      7 C         -24.6143   -7.9086  -11.4736 C.3     1  UNL1        0.0399
      8 C         -24.4061   -6.6217  -12.2783 C.3     1  UNL1        0.0954
      9 C         -23.2643   -9.4551  -13.0031 C.3     1  UNL1        0.0477
     10 C         -23.1876  -10.8522  -13.5380 C.ar    1  UNL1        0.0220
     11 C         -22.3127  -11.4286  -14.4289 C.ar    1  UNL1        0.0923
     12 N         -22.5473  -12.7651  -14.4364 N.ar    1  UNL1       -0.2534
     13 N         -23.5053  -13.0552  -13.5599 N.ar    1  UNL1       -0.1651
     14 C         -23.8935  -11.8900  -13.0142 C.ar    1  UNL1        0.1515
     15 C         -24.8686  -11.6742  -11.9577 C.2     1  UNL1        0.2650
     16 O         -25.4560  -12.6385  -11.4002 O.2     1  UNL1       -0.2684
     17 N         -25.1221  -10.3192  -11.5536 N.am    1  UNL1       -0.3023
     18 H         -25.7859  -10.1622  -10.7612 H       1  UNL1        0.1497
     19 C         -26.0798   -4.3027  -18.0266 C.ar    1  UNL1        0.2252
     20 N         -26.5956   -3.6675  -19.1163 N.ar    1  UNL1       -0.2049
     21 C         -27.7619   -2.9730  -19.0662 C.ar    1  UNL1        0.1185
     22 BR        -28.4140   -2.1123  -20.6384 Br      1  UNL1       -0.0279
     23 C         -28.4777   -2.8899  -17.8712 C.ar    1  UNL1        0.0262
     24 C         -27.9823   -3.5284  -16.7276 C.ar    1  UNL1        0.0065
     25 C         -28.6789   -3.4580  -15.5136 C.ar    1  UNL1        0.0004
     26 C         -28.1798   -4.0987  -14.3775 C.ar    1  UNL1        0.0045
     27 C         -26.9802   -4.8274  -14.4361 C.ar    1  UNL1        0.0537
     28 C         -26.2717   -4.8868  -15.6492 C.ar    1  UNL1        0.0092
     29 C         -26.7670   -4.2474  -16.7990 C.ar    1  UNL1        0.0534
     30 C         -24.7340   -6.1888  -18.9087 C.3     1  UNL1        0.2542
     31 O         -24.8741   -5.0075  -18.1284 O.3     1  UNL1       -0.4561
     32 C         -21.8066  -13.7700  -15.2249 C.3     1  UNL1        0.0867
     33 C         -21.6747  -13.2900  -16.6836 C.3     1  UNL1        0.0244
     34 C         -20.4073  -13.9672  -14.6139 C.3     1  UNL1        0.0244
     35 C         -22.5512  -15.1228  -15.2170 C.3     1  UNL1        0.0244
@<TRIPOS>BOND
     1    30    31    1
     2    31    19    1
     3    19    20   ar
     4    20    21   ar
     5    21    22    1
     6    21    23   ar
     7    23    24   ar
     8    24    25   ar
     9    25    26   ar
    10    26    27   ar
    11    27     1    1
    12     1     2    2
    13     1     3   am
    14     3     4    1
    15     4     5    1
    16     5     6    1
    17     6     7    1
    18     7     8    1
    19     6     9    1
    20     9    10    1
    21    10    11   ar
    22    11    12   ar
    23    12    32    1
    24    32    33    1
    25    32    34    1
    26    32    35    1
    27    12    13   ar
    28    13    14   ar
    29    14    15    1
    30    15    16    2
    31    15    17   am
    32    27    28   ar
    33    28    29   ar
    34    29    19   ar
    35    29    24   ar
    36     8     3    1
    37    14    10   ar
    38    17     6    1
    39    17    18    1
@<TRIPOS>MOLECULE
*****
 35 39 0 0 0
SMALL
GASTEIGER

@<TRIPOS>ATOM
      1 C         -26.0050   -5.5460  -13.0852 C.2     1  UNL1        0.2490
      2 O         -26.0596   -5.0974  -11.9074 O.2     1  UNL1       -0.2699
      3 N         -25.1862   -6.6975  -13.3637 N.am    1  UNL1       -0.2760
      4 C         -25.7153   -7.8271  -14.1346 C.3     1  UNL1        0.0954
      5 C         -25.8133   -9.0721  -13.2401 C.3     1  UNL1        0.0399
      6 C         -24.5037   -9.3774  -12.4568 C.3     1  UNL1        0.0645
      7 C         -24.0279   -8.0937  -11.7216 C.3     1  UNL1        0.0399
      8 C         -23.9145   -6.8910  -12.6638 C.3     1  UNL1        0.0954
      9 C         -23.3747   -9.8884  -13.4262 C.3     1  UNL1        0.0477
     10 C         -23.6219  -11.3084  -13.8341 C.ar    1  UNL1        0.0220
     11 C         -23.1193  -12.0451  -14.8811 C.ar    1  UNL1        0.0923
     12 N         -23.5008  -13.3351  -14.7026 N.ar    1  UNL1       -0.2534
     13 N         -24.1881  -13.4446  -13.5686 N.ar    1  UNL1       -0.1651
     14 C         -24.2605  -12.2105  -13.0416 C.ar    1  UNL1        0.1515
     15 C         -24.8521  -11.8081  -11.7761 C.2     1  UNL1        0.2650
     16 O         -25.3598  -12.6520  -10.9914 O.2     1  UNL1       -0.2684
     17 N         -24.8158  -10.4120  -11.4393 N.am    1  UNL1       -0.3023
     18 H         -25.1959  -10.1243  -10.5088 H       1  UNL1        0.1497
     19 C         -30.3202   -4.3635  -15.2383 C.ar    1  UNL1        0.2252
     20 N         -30.9899   -3.7327  -16.2436 N.ar    1  UNL1       -0.2049
     21 C         -30.3475   -3.0455  -17.2235 C.ar    1  UNL1        0.1185
     22 BR        -31.3613   -2.1910  -18.5946 Br      1  UNL1       -0.0279
     23 C         -28.9544   -2.9662  -17.2264 C.ar    1  UNL1        0.0262
     24 C         -28.2277   -3.6005  -16.2112 C.ar    1  UNL1        0.0065
     25 C         -26.8278   -3.5401  -16.1921 C.ar    1  UNL1        0.0004
     26 C         -26.1097   -4.1737  -15.1756 C.ar    1  UNL1        0.0045
     27 C         -26.7778   -4.8722  -14.1562 C.ar    1  UNL1        0.0537
     28 C         -28.1817   -4.9471  -14.1817 C.ar    1  UNL1        0.0092
     29 C         -28.9138   -4.3106  -15.1992 C.ar    1  UNL1        0.0534
     30 C         -32.4389   -4.9642  -14.0997 C.3     1  UNL1        0.2542
     31 O         -31.0273   -5.0586  -14.2496 O.3     1  UNL1       -0.4561
     32 C         -23.1460  -14.4718  -15.5755 C.3     1  UNL1        0.0867
     33 C         -24.4034  -14.9704  -16.3144 C.3     1  UNL1        0.0244
     34 C         -22.0878  -14.0186  -16.5978 C.3     1  UNL1        0.0244
     35 C         -22.5698  -15.6372  -14.7422 C.3     1  UNL1        0.0244
@<TRIPOS>BOND
     1    30    31    1
     2    31    19    1
     3    19    20   ar
     4    20    21   ar
     5    21    22    1
     6    21    23   ar
     7    23    24   ar
     8    24    25   ar
     9    25    26   ar
    10    26    27   ar
    11    27     1    1
    12     1     2    2
    13     1     3   am
    14     3     4    1
    15     4     5    1
    16     5     6    1
    17     6     7    1
    18     7     8    1
    19     6     9    1
    20     9    10    1
    21    10    11   ar
    22    11    12   ar
    23    12    32    1
    24    32    33    1
    25    32    34    1
    26    32    35    1
    27    12    13   ar
    28    13    14   ar
    29    14    15    1
    30    15    16    2
    31    15    17   am
    32    27    28   ar
    33    28    29   ar
    34    29    19   ar
    35    29    24   ar
    36     8     3    1
    37    14    10   ar
    38    17     6    1
    39    17    18    1
@<TRIPOS>MOLECULE
*****
 35 39 0 0 0
SMALL
GASTEIGER

@<TRIPOS>ATOM
      1 C         -22.4973   -8.0897   -8.4753 C.2     1  UNL1        0.2490
      2 O         -23.2209   -7.0621   -8.3664 O.2     1  UNL1       -0.2699
      3 N         -22.9349   -9.1743   -9.3156 N.am    1  UNL1       -0.2760
      4 C         -22.0269   -9.7798  -10.2949 C.3     1  UNL1        0.0954
      5 C         -22.5255   -9.4932  -11.7192 C.3     1  UNL1        0.0399
      6 C         -24.0291   -9.8347  -11.9303 C.3     1  UNL1        0.0645
      7 C         -24.8741   -9.1709  -10.8078 C.3     1  UNL1        0.0399
      8 C         -24.3561   -9.5152   -9.4078 C.3     1  UNL1        0.0954
      9 C         -24.2585  -11.3913  -11.9234 C.3     1  UNL1        0.0477
     10 C         -23.7989  -12.0057  -13.2099 C.ar    1  UNL1        0.0220
     11 C         -23.4999  -13.3096  -13.5288 C.ar    1  UNL1        0.0923
     12 N         -23.3185  -13.3780  -14.8718 N.ar    1  UNL1       -0.2534
     13 N         -23.5289  -12.1806  -15.4124 N.ar    1  UNL1       -0.1651
     14 C         -23.8214  -11.3470  -14.3995 C.ar    1  UNL1        0.1515
     15 C         -24.1925   -9.9432  -14.4709 C.2     1  UNL1        0.2650
     16 O         -24.3098   -9.3510  -15.5759 O.2     1  UNL1       -0.2684
     17 N         -24.4453   -9.2587  -13.2334 N.am    1  UNL1       -0.3023
     18 H         -24.7599   -8.2628  -13.2820 H       1  UNL1        0.1497
     19 C         -19.9285   -9.1019   -4.3484 C.ar    1  UNL1        0.2252
     20 N         -18.7312   -9.1471   -3.6992 N.ar    1  UNL1       -0.2049
     21 C         -17.5683   -8.7770   -4.2958 C.ar    1  UNL1        0.1185
     22 BR        -15.9351   -8.8706   -3.3151 Br      1  UNL1       -0.0279
     23 C         -17.5696   -8.3309   -5.6180 C.ar    1  UNL1        0.0262
     24 C         -18.7790   -8.2692   -6.3212 C.ar    1  UNL1        0.0065
     25 C         -18.8097   -7.8214   -7.6488 C.ar    1  UNL1        0.0004
     26 C         -20.0192   -7.7641   -8.3446 C.ar    1  UNL1        0.0045
     27 C         -21.2181   -8.1603   -7.7289 C.ar    1  UNL1        0.0537
     28 C         -21.1921   -8.5954   -6.3921 C.ar    1  UNL1        0.0092
     29 C         -19.9794   -8.6592   -5.6839 C.ar    1  UNL1        0.0534
     30 C         -21.4601   -9.0152   -2.4008 C.3     1  UNL1        0.2542
     31 O         -21.1006   -9.4952   -3.6909 O.3     1  UNL1       -0.4561
     32 C         -23.0176  -14.6000  -15.6440 C.3     1  UNL1        0.0867
     33 C         -24.2961  -15.0975  -16.3464 C.3     1  UNL1        0.0244
     34 C         -21.9362  -14.2862  -16.6940 C.3     1  UNL1        0.0244
     35 C         -22.5009  -15.7176  -14.7122 C.3     1  UNL1        0.0244
@<TRIPOS>BOND
     1    30    31    1
     2    31    19    1
     3    19    20   ar
     4    20    21   ar
     5    21    22    1
     6    21    23   ar
     7    23    24   ar
     8    24    25   ar
     9    25    26   ar
    10    26    27   ar
    11    27     1    1
    12     1     2    2
    13     1     3   am
    14     3     4    1
    15     4     5    1
    16     5     6    1
    17     6     7    1
    18     7     8    1
    19     6     9    1
    20     9    10    1
    21    10    11   ar
    22    11    12   ar
    23    12    32    1
    24    32    33    1
    25    32    34    1
    26    32    35    1
    27    12    13   ar
    28    13    14   ar
    29    14    15    1
    30    15    16    2
    31    15    17   am
    32    27    28   ar
    33    28    29   ar
    34    29    19   ar
    35    29    24   ar
    36     8     3    1
    37    14    10   ar
    38    17     6    1
    39    17    18    1
@<TRIPOS>MOLECULE
*****
 35 39 0 0 0
SMALL
GASTEIGER

@<TRIPOS>ATOM
      1 C         -22.7176   -9.8809   -9.8253 C.2     1  UNL1        0.2490
      2 O         -23.2571  -10.9161   -9.3470 O.2     1  UNL1       -0.2699
      3 N         -23.2112   -9.3367  -11.0638 N.am    1  UNL1       -0.2760
      4 C         -23.5027   -7.9053  -11.1925 C.3     1  UNL1        0.0954
      5 C         -25.0113   -7.6933  -11.3896 C.3     1  UNL1        0.0399
      6 C         -25.6212   -8.5834  -12.5110 C.3     1  UNL1        0.0645
      7 C         -25.2046  -10.0629  -12.2830 C.3     1  UNL1        0.0399
      8 C         -23.6891  -10.2238  -12.1264 C.3     1  UNL1        0.0954
      9 C         -25.1420   -8.1053  -13.9314 C.3     1  UNL1        0.0477
     10 C         -25.8585   -6.8567  -14.3456 C.ar    1  UNL1        0.0220
     11 C         -25.5560   -5.9221  -15.3081 C.ar    1  UNL1        0.0923
     12 N         -26.6184   -5.0860  -15.4242 N.ar    1  UNL1       -0.2534
     13 N         -27.5884   -5.4800  -14.6032 N.ar    1  UNL1       -0.1651
     14 C         -27.1242   -6.5577  -13.9480 C.ar    1  UNL1        0.1515
     15 C         -27.8241   -7.3943  -12.9869 C.2     1  UNL1        0.2650
     16 O         -29.0282   -7.1814  -12.6860 O.2     1  UNL1       -0.2684
     17 N         -27.0991   -8.4912  -12.4083 N.am    1  UNL1       -0.3023
     18 H         -27.6126   -9.1247  -11.7539 H       1  UNL1        0.1497
     19 C         -20.4555   -8.5404   -5.6133 C.ar    1  UNL1        0.2252
     20 N         -19.3943   -7.9515   -4.9934 N.ar    1  UNL1       -0.2049
     21 C         -18.3581   -7.4115   -5.6861 C.ar    1  UNL1        0.1185
     22 BR        -16.9111   -6.6056   -4.7403 Br      1  UNL1       -0.0279
     23 C         -18.3534   -7.4463   -7.0810 C.ar    1  UNL1        0.0262
     24 C         -19.4251   -8.0422   -7.7573 C.ar    1  UNL1        0.0065
     25 C         -19.4477   -8.0875   -9.1577 C.ar    1  UNL1        0.0004
     26 C         -20.5190   -8.6849   -9.8255 C.ar    1  UNL1        0.0045
     27 C         -21.5825   -9.2544   -9.1058 C.ar    1  UNL1        0.0537
     28 C         -21.5695   -9.1966   -7.7009 C.ar    1  UNL1        0.0092
     29 C         -20.4946   -8.5997   -7.0194 C.ar    1  UNL1        0.0534
     30 C         -21.3783   -9.3703   -3.4671 C.3     1  UNL1        0.2542
     31 O         -21.4998   -9.0844   -4.8554 O.3     1  UNL1       -0.4561
     32 C         -26.7338   -3.9584  -16.3704 C.3     1  UNL1        0.0867
     33 C         -25.9252   -2.7560  -15.8452 C.3     1  UNL1        0.0244
     34 C         -26.1912   -4.3891  -17.7453 C.3     1  UNL1        0.0244
     35 C         -28.2089   -3.5295  -16.5267 C.3     1  UNL1        0.0244
@<TRIPOS>BOND
     1    30    31    1
     2    31    19    1
     3    19    20   ar
     4    20    21   ar
     5    21    22    1
     6    21    23   ar
     7    23    24   ar
     8    24    25   ar
     9    25    26   ar
    10    26    27   ar
    11    27     1    1
    12     1     2    2
    13     1     3   am
    14     3     4    1
    15     4     5    1
    16     5     6    1
    17     6     7    1
    18     7     8    1
    19     6     9    1
    20     9    10    1
    21    10    11   ar
    22    11    12   ar
    23    12    32    1
    24    32    33    1
    25    32    34    1
    26    32    35    1
    27    12    13   ar
    28    13    14   ar
    29    14    15    1
    30    15    16    2
    31    15    17   am
    32    27    28   ar
    33    28    29   ar
    34    29    19   ar
    35    29    24   ar
    36     8     3    1
    37    14    10   ar
    38    17     6    1
    39    17    18    1
@<TRIPOS>MOLECULE
*****
 35 39 0 0 0
SMALL
GASTEIGER

@<TRIPOS>ATOM
      1 C         -21.1953   -7.7837   -9.2174 C.2     1  UNL1        0.2490
      2 O         -21.4930   -6.5925   -8.9282 O.2     1  UNL1       -0.2699
      3 N         -21.8920   -8.4436  -10.2913 N.am    1  UNL1       -0.2760
      4 C         -21.1554   -9.1707  -11.3301 C.3     1  UNL1        0.0954
      5 C         -21.3232   -8.4641  -12.6836 C.3     1  UNL1        0.0399
      6 C         -22.8052   -8.1486  -13.0388 C.3     1  UNL1        0.0645
      7 C         -23.4806   -7.4188  -11.8448 C.3     1  UNL1        0.0399
      8 C         -23.3133   -8.1808  -10.5264 C.3     1  UNL1        0.0954
      9 C         -23.5954   -9.4666  -13.3767 C.3     1  UNL1        0.0477
     10 C         -23.2347   -9.9722  -14.7398 C.ar    1  UNL1        0.0220
     11 C         -23.4030  -11.2103  -15.3146 C.ar    1  UNL1        0.0923
     12 N         -23.0880  -11.1040  -16.6302 N.ar    1  UNL1       -0.2534
     13 N         -22.7667   -9.8441  -16.9121 N.ar    1  UNL1       -0.1651
     14 C         -22.8569   -9.1569  -15.7606 C.ar    1  UNL1        0.1515
     15 C         -22.6673   -7.7312  -15.5488 C.2     1  UNL1        0.2650
     16 O         -22.4123   -6.9540  -16.5061 O.2     1  UNL1       -0.2684
     17 N         -22.8054   -7.2342  -14.2081 N.am    1  UNL1       -0.3023
     18 H         -22.7184   -6.2031  -14.0584 H       1  UNL1        0.1497
     19 C         -18.4097   -8.2536   -5.1340 C.ar    1  UNL1        0.2252
     20 N         -17.4334   -8.9203   -4.4561 N.ar    1  UNL1       -0.2049
     21 C         -16.7933   -9.9977   -4.9800 C.ar    1  UNL1        0.1185
     22 BR        -15.4375  -10.8737   -3.9639 Br      1  UNL1       -0.0279
     23 C         -17.1259  -10.4599   -6.2539 C.ar    1  UNL1        0.0262
     24 C         -18.1239   -9.8031   -6.9844 C.ar    1  UNL1        0.0065
     25 C         -18.4750  -10.2437   -8.2675 C.ar    1  UNL1        0.0004
     26 C         -19.4725   -9.5849   -8.9896 C.ar    1  UNL1        0.0045
     27 C         -20.1420   -8.4792   -8.4394 C.ar    1  UNL1        0.0537
     28 C         -19.7808   -8.0258   -7.1584 C.ar    1  UNL1        0.0092
     29 C         -18.7798   -8.6836   -6.4225 C.ar    1  UNL1        0.0534
     30 C         -18.9564   -6.8544   -3.1617 C.3     1  UNL1        0.2542
     31 O         -19.0418   -7.1484   -4.5510 O.3     1  UNL1       -0.4561
     32 C         -23.1655  -12.1882  -17.6296 C.3     1  UNL1        0.0867
     33 C         -24.2666  -13.1881  -17.2256 C.3     1  UNL1        0.0244
     34 C         -23.4899  -11.5872  -19.0095 C.3     1  UNL1        0.0244
     35 C         -21.8216  -12.9438  -17.7164 C.3     1  UNL1        0.0244
@<TRIPOS>BOND
     1    30    31    1
     2    31    19    1
     3    19    20   ar
     4    20    21   ar
     5    21    22    1
     6    21    23   ar
     7    23    24   ar
     8    24    25   ar
     9    25    26   ar
    10    26    27   ar
    11    27     1    1
    12     1     2    2
    13     1     3   am
    14     3     4    1
    15     4     5    1
    16     5     6    1
    17     6     7    1
    18     7     8    1
    19     6     9    1
    20     9    10    1
    21    10    11   ar
    22    11    12   ar
    23    12    32    1
    24    32    33    1
    25    32    34    1
    26    32    35    1
    27    12    13   ar
    28    13    14   ar
    29    14    15    1
    30    15    16    2
    31    15    17   am
    32    27    28   ar
    33    28    29   ar
    34    29    19   ar
    35    29    24   ar
    36     8     3    1
    37    14    10   ar
    38    17     6    1
    39    17    18    1
@<TRIPOS>MOLECULE
*****
 35 39 0 0 0
SMALL
GASTEIGER

@<TRIPOS>ATOM
      1 C         -23.2155   -9.7868  -12.0692 C.2     1  UNL1        0.2490
      2 O         -24.3788   -9.2995  -12.0954 O.2     1  UNL1       -0.2699
      3 N         -22.2513   -9.2600  -11.1382 N.am    1  UNL1       -0.2760
      4 C         -21.4543  -10.1559  -10.2942 C.3     1  UNL1        0.0954
      5 C         -21.8377   -9.9652   -8.8190 C.3     1  UNL1        0.0399
      6 C         -21.8382   -8.4763   -8.3660 C.3     1  UNL1        0.0645
      7 C         -22.6787   -7.6312   -9.3629 C.3     1  UNL1        0.0399
      8 C         -22.2346   -7.8318  -10.8153 C.3     1  UNL1        0.0954
      9 C         -20.3717   -7.9114   -8.2894 C.3     1  UNL1        0.0477
     10 C         -19.6642   -8.4225   -7.0719 C.ar    1  UNL1        0.0220
     11 C         -18.3249   -8.4735   -6.7637 C.ar    1  UNL1        0.0923
     12 N         -18.2114   -8.8462   -5.4639 N.ar    1  UNL1       -0.2534
     13 N         -19.4229   -8.9933   -4.9341 N.ar    1  UNL1       -0.1651
     14 C         -20.3056   -8.7348   -5.9141 C.ar    1  UNL1        0.1515
     15 C         -21.7564   -8.6982   -5.8288 C.2     1  UNL1        0.2650
     16 O         -22.3545   -8.8911   -4.7376 O.2     1  UNL1       -0.2684
     17 N         -22.4860   -8.4095   -7.0322 N.am    1  UNL1       -0.3023
     18 H         -23.5266   -8.3338   -6.9657 H       1  UNL1        0.1497
     19 C         -24.1971  -14.1756  -14.1739 C.ar    1  UNL1        0.2252
     20 N         -23.8348  -15.1625  -15.0410 N.ar    1  UNL1       -0.2049
     21 C         -22.6912  -15.1023  -15.7714 C.ar    1  UNL1        0.1185
     22 BR        -22.2581  -16.5275  -16.9627 Br      1  UNL1       -0.0279
     23 C         -21.8387  -14.0042  -15.6500 C.ar    1  UNL1        0.0262
     24 C         -22.1739  -12.9679  -14.7698 C.ar    1  UNL1        0.0065
     25 C         -21.3341  -11.8555  -14.6255 C.ar    1  UNL1        0.0004
     26 C         -21.6756  -10.8249  -13.7470 C.ar    1  UNL1        0.0045
     27 C         -22.8658  -10.8840  -13.0032 C.ar    1  UNL1        0.0537
     28 C         -23.7025  -12.0064  -13.1348 C.ar    1  UNL1        0.0092
     29 C         -23.3689  -13.0478  -14.0183 C.ar    1  UNL1        0.0534
     30 C         -26.6386  -13.8174  -13.9348 C.3     1  UNL1        0.2542
     31 O         -25.3871  -14.2826  -13.4437 O.3     1  UNL1       -0.4561
     32 C         -16.9493   -8.9890   -4.7109 C.3     1  UNL1        0.0867
     33 C         -16.0174   -7.8039   -5.0312 C.3     1  UNL1        0.0244
     34 C         -17.2560   -9.0163   -3.2024 C.3     1  UNL1        0.0244
     35 C         -16.2308  -10.2995   -5.0991 C.3     1  UNL1        0.0244
@<TRIPOS>BOND
     1    30    31    1
     2    31    19    1
     3    19    20   ar
     4    20    21   ar
     5    21    22    1
     6    21    23   ar
     7    23    24   ar
     8    24    25   ar
     9    25    26   ar
    10    26    27   ar
    11    27     1    1
    12     1     2    2
    13     1     3   am
    14     3     4    1
    15     4     5    1
    16     5     6    1
    17     6     7    1
    18     7     8    1
    19     6     9    1
    20     9    10    1
    21    10    11   ar
    22    11    12   ar
    23    12    32    1
    24    32    33    1
    25    32    34    1
    26    32    35    1
    27    12    13   ar
    28    13    14   ar
    29    14    15    1
    30    15    16    2
    31    15    17   am
    32    27    28   ar
    33    28    29   ar
    34    29    19   ar
    35    29    24   ar
    36     8     3    1
    37    14    10   ar
    38    17     6    1
    39    17    18    1
