@<TRIPOS>MOLECULE
*****
 52 57 0 0 0
SMALL
GASTEIGER

@<TRIPOS>ATOM
      1 C          11.6895   79.6064   25.1757 C.ar    1  UNL1        0.0502
      2 C          10.5710   79.3753   25.9945 C.ar    1  UNL1        0.0148
      3 C           9.9892   78.1071   26.0626 C.ar    1  UNL1        0.0080
      4 C          10.5035   77.0425   25.3049 C.ar    1  UNL1        0.0808
      5 C          11.6325   77.2661   24.4944 C.ar    1  UNL1        0.1457
      6 F          12.2055   76.2523   23.7989 F       1  UNL1       -0.2040
      7 C          12.2137   78.5362   24.4292 C.ar    1  UNL1        0.0443
      8 N          13.5126   83.4742   24.7663 N.pl3   1  UNL1       -0.3041
      9 C          12.1959   83.2058   24.1673 C.3     1  UNL1        0.1122
     10 C          11.4431   82.1105   24.9291 C.3     1  UNL1        0.1122
     11 N          12.2881   80.9199   25.1032 N.pl3   1  UNL1       -0.3040
     12 C          13.7391   81.0712   25.2952 C.3     1  UNL1        0.1122
     13 C          14.1078   82.5029   25.6956 C.3     1  UNL1        0.1122
     14 C          15.4775   87.1955   23.9742 C.ar    1  UNL1       -0.0185
     15 C          15.3343   86.2139   22.9732 C.ar    1  UNL1       -0.0031
     16 C          14.6951   85.0047   23.2320 C.ar    1  UNL1        0.0142
     17 C          14.1770   84.7303   24.5023 C.ar    1  UNL1        0.0479
     18 C          14.3068   85.6977   25.5112 C.ar    1  UNL1        0.0181
     19 C          14.9513   86.9309   25.2737 C.ar    1  UNL1        0.0687
     20 C          15.0601   87.9360   26.4079 C.3     1  UNL1        0.4183
     21 F          16.3769   88.2398   26.7101 F       1  UNL1       -0.1659
     22 F          14.4737   87.4188   27.5492 F       1  UNL1       -0.1659
     23 F          14.4273   89.1136   26.0516 F       1  UNL1       -0.1659
     24 C          15.6019   89.1226   22.3439 C.3     1  UNL1        0.0047
     25 C          16.1913   88.4992   23.6160 C.3     1  UNL1        0.0223
     26 C          17.7034   88.2814   23.4730 C.3     1  UNL1        0.0047
     27 C           9.8615   75.7106   25.3862 C.2     1  UNL1        0.2483
     28 O          10.5649   74.7031   25.6728 O.2     1  UNL1       -0.2701
     29 N           8.4465   75.5605   25.1855 N.am    1  UNL1       -0.2945
     30 H           7.8545   76.4189   25.2357 H       1  UNL1        0.1501
     31 C           7.7873   74.2504   25.2445 C.3     1  UNL1        0.1535
     32 C           6.5604   74.3134   26.1182 C.2     1  UNL1        0.2443
     33 O           5.5584   74.9826   25.7435 O.2     1  UNL1       -0.2730
     34 N           6.5063   73.5380   27.3259 N.am    1  UNL1       -0.2825
     35 H           7.2234   72.7886   27.4555 H       1  UNL1        0.1549
     36 C           5.4585   73.6450   28.3041 C.ar    1  UNL1        0.0535
     37 C           4.5685   72.5767   28.4803 C.ar    1  UNL1        0.0353
     38 C           3.5616   72.6671   29.4442 C.ar    1  UNL1        0.1002
     39 N           3.4566   73.7793   30.2184 N.ar    1  UNL1       -0.2422
     40 C           4.3167   74.8233   30.0848 C.ar    1  UNL1        0.1002
     41 C           5.3374   74.7742   29.1319 C.ar    1  UNL1        0.0353
     42 C           7.4578   73.7237   23.8322 C.3     1  UNL1        0.0569
     43 C           8.5042   74.0609   22.8038 C.ar    1  UNL1       -0.0017
     44 C           8.4435   75.0888   21.8664 C.ar    1  UNL1        0.0681
     45 N           9.5762   75.1239   21.1286 N.ar    1  UNL1       -0.3523
     46 C          10.3517   74.1279   21.5906 C.ar    1  UNL1        0.0563
     47 C          11.6247   73.7735   21.1459 C.ar    1  UNL1        0.0170
     48 C          12.2651   72.6924   21.7788 C.ar    1  UNL1        0.0015
     49 C          11.6253   71.9966   22.8282 C.ar    1  UNL1        0.0001
     50 C          10.3397   72.3755   23.2549 C.ar    1  UNL1        0.0012
     51 C           9.7314   73.4545   22.6121 C.ar    1  UNL1        0.0131
     52 H           9.8009   75.7942   20.3600 H       1  UNL1        0.1660
@<TRIPOS>BOND
     1    24    25    1
     2    25    26    1
     3    25    14    1
     4    14    15   ar
     5    15    16   ar
     6    16    17   ar
     7    17     8    1
     8     8     9    1
     9     9    10    1
    10    10    11    1
    11    11     1    1
    12     1     2   ar
    13     2     3   ar
    14     3     4   ar
    15     4    27    1
    16    27    28    2
    17    27    29   am
    18    29    31    1
    19    31    42    1
    20    42    43    1
    21    43    44   ar
    22    44    45   ar
    23    45    46   ar
    24    46    47   ar
    25    47    48   ar
    26    48    49   ar
    27    49    50   ar
    28    50    51   ar
    29    31    32    1
    30    32    33    2
    31    32    34   am
    32    34    36    1
    33    36    37   ar
    34    37    38   ar
    35    38    39   ar
    36    39    40   ar
    37    40    41   ar
    38     4     5   ar
    39     5     6    1
    40     5     7   ar
    41    11    12    1
    42    12    13    1
    43    17    18   ar
    44    18    19   ar
    45    19    20    1
    46    20    21    1
    47    20    22    1
    48    20    23    1
    49    19    14   ar
    50    13     8    1
    51     7     1   ar
    52    51    43   ar
    53    41    36   ar
    54    51    46   ar
    55    29    30    1
    56    45    52    1
    57    34    35    1
@<TRIPOS>MOLECULE
*****
 52 57 0 0 0
SMALL
GASTEIGER

@<TRIPOS>ATOM
      1 C          11.1423   80.0236   25.5318 C.ar    1  UNL1        0.0502
      2 C          10.5959   81.3048   25.3457 C.ar    1  UNL1        0.0148
      3 C          11.4131   82.3825   24.9960 C.ar    1  UNL1        0.0080
      4 C          12.7973   82.2083   24.8358 C.ar    1  UNL1        0.0808
      5 C          13.3467   80.9238   25.0074 C.ar    1  UNL1        0.1457
      6 F          14.6665   80.6939   24.7956 F       1  UNL1       -0.2040
      7 C          12.5263   79.8465   25.3561 C.ar    1  UNL1        0.0443
      8 N           8.5596   76.8238   26.7738 N.pl3   1  UNL1       -0.3041
      9 C           8.0018   78.0190   26.1216 C.3     1  UNL1        0.1122
     10 C           9.0245   78.6843   25.1953 C.3     1  UNL1        0.1122
     11 N          10.2964   78.9101   25.8975 N.pl3   1  UNL1       -0.3040
     12 C          10.7547   77.9496   26.9137 C.3     1  UNL1        0.1122
     13 C          10.0143   76.6136   26.7998 C.3     1  UNL1        0.1122
     14 C           5.9256   73.8456   28.3642 C.ar    1  UNL1       -0.0185
     15 C           6.2500   73.8815   26.9933 C.ar    1  UNL1       -0.0031
     16 C           7.1065   74.8500   26.4777 C.ar    1  UNL1        0.0142
     17 C           7.6694   75.8209   27.3130 C.ar    1  UNL1        0.0479
     18 C           7.3610   75.7988   28.6823 C.ar    1  UNL1        0.0181
     19 C           6.4947   74.8276   29.2289 C.ar    1  UNL1        0.0687
     20 C           6.1999   74.8580   30.7191 C.3     1  UNL1        0.4183
     21 F           4.8453   74.7485   30.9845 F       1  UNL1       -0.1659
     22 F           6.6404   76.0533   31.2587 F       1  UNL1       -0.1659
     23 F           6.8383   73.8014   31.3438 F       1  UNL1       -0.1659
     24 C           5.0770   71.4959   27.9828 C.3     1  UNL1        0.0047
     25 C           4.9778   72.7523   28.8580 C.3     1  UNL1        0.0223
     26 C           3.5324   73.2625   28.9274 C.3     1  UNL1        0.0047
     27 C          13.6431   83.3693   24.4760 C.2     1  UNL1        0.2483
     28 O          14.2298   84.0119   25.3896 O.2     1  UNL1       -0.2701
     29 N          13.8362   83.7435   23.1021 N.am    1  UNL1       -0.2945
     30 H          13.5853   83.0449   22.3680 H       1  UNL1        0.1501
     31 C          14.6561   84.8989   22.7185 C.3     1  UNL1        0.1535
     32 C          14.7493   85.0079   21.2179 C.2     1  UNL1        0.2443
     33 O          15.4515   84.1818   20.5723 O.2     1  UNL1       -0.2730
     34 N          13.9663   85.9933   20.5260 N.am    1  UNL1       -0.2825
     35 H          13.1946   86.4601   21.0543 H       1  UNL1        0.1549
     36 C          14.0973   86.2857   19.1247 C.ar    1  UNL1        0.0535
     37 C          14.4514   85.2604   18.2371 C.ar    1  UNL1        0.0353
     38 C          14.5594   85.5344   16.8716 C.ar    1  UNL1        0.1002
     39 N          14.3057   86.7856   16.4050 N.ar    1  UNL1       -0.2422
     40 C          13.9410   87.7956   17.2383 C.ar    1  UNL1        0.1002
     41 C          13.8225   87.5647   18.6112 C.ar    1  UNL1        0.0353
     42 C          14.1249   86.2002   23.3551 C.3     1  UNL1        0.0569
     43 C          15.1872   87.0073   24.0525 C.ar    1  UNL1       -0.0017
     44 C          16.3455   87.5244   23.4780 C.ar    1  UNL1        0.0681
     45 N          17.0516   88.2303   24.3900 N.ar    1  UNL1       -0.3523
     46 C          16.3506   88.1639   25.5351 C.ar    1  UNL1        0.0563
     47 C          16.6762   88.7467   26.7592 C.ar    1  UNL1        0.0170
     48 C          15.7912   88.5534   27.8356 C.ar    1  UNL1        0.0015
     49 C          14.6155   87.7891   27.6670 C.ar    1  UNL1        0.0001
     50 C          14.3136   87.2114   26.4207 C.ar    1  UNL1        0.0012
     51 C          15.2072   87.4243   25.3701 C.ar    1  UNL1        0.0131
     52 H          17.9552   88.7289   24.2311 H       1  UNL1        0.1660
@<TRIPOS>BOND
     1    24    25    1
     2    25    26    1
     3    25    14    1
     4    14    15   ar
     5    15    16   ar
     6    16    17   ar
     7    17     8    1
     8     8     9    1
     9     9    10    1
    10    10    11    1
    11    11     1    1
    12     1     2   ar
    13     2     3   ar
    14     3     4   ar
    15     4    27    1
    16    27    28    2
    17    27    29   am
    18    29    31    1
    19    31    42    1
    20    42    43    1
    21    43    44   ar
    22    44    45   ar
    23    45    46   ar
    24    46    47   ar
    25    47    48   ar
    26    48    49   ar
    27    49    50   ar
    28    50    51   ar
    29    31    32    1
    30    32    33    2
    31    32    34   am
    32    34    36    1
    33    36    37   ar
    34    37    38   ar
    35    38    39   ar
    36    39    40   ar
    37    40    41   ar
    38     4     5   ar
    39     5     6    1
    40     5     7   ar
    41    11    12    1
    42    12    13    1
    43    17    18   ar
    44    18    19   ar
    45    19    20    1
    46    20    21    1
    47    20    22    1
    48    20    23    1
    49    19    14   ar
    50    13     8    1
    51     7     1   ar
    52    51    43   ar
    53    41    36   ar
    54    51    46   ar
    55    29    30    1
    56    45    52    1
    57    34    35    1
@<TRIPOS>MOLECULE
*****
 52 57 0 0 0
SMALL
GASTEIGER

@<TRIPOS>ATOM
      1 C          11.2021   79.5263   25.4267 C.ar    1  UNL1        0.0502
      2 C          11.8374   78.2735   25.4701 C.ar    1  UNL1        0.0148
      3 C          11.1166   77.1214   25.7934 C.ar    1  UNL1        0.0080
      4 C           9.7466   77.1952   26.0931 C.ar    1  UNL1        0.0808
      5 C           9.1033   78.4459   26.0369 C.ar    1  UNL1        0.1457
      6 F           7.7684   78.5557   26.2506 F       1  UNL1       -0.2040
      7 C           9.8269   79.5974   25.7116 C.ar    1  UNL1        0.0443
      8 N          13.3973   83.1322   24.6330 N.pl3   1  UNL1       -0.3041
      9 C          13.9992   82.0572   25.4373 C.3     1  UNL1        0.1122
     10 C          13.4196   80.6874   25.0707 C.3     1  UNL1        0.1122
     11 N          11.9498   80.7182   25.0958 N.pl3   1  UNL1       -0.3040
     12 C          11.2341   81.9398   24.6952 C.3     1  UNL1        0.1122
     13 C          12.1409   82.8913   23.9088 C.3     1  UNL1        0.1122
     14 C          15.4418   86.8704   24.2059 C.ar    1  UNL1       -0.0185
     15 C          15.4281   85.9188   23.1666 C.ar    1  UNL1       -0.0031
     16 C          14.7628   84.7041   23.3067 C.ar    1  UNL1        0.0142
     17 C          14.0881   84.3939   24.4923 C.ar    1  UNL1        0.0479
     18 C          14.0875   85.3311   25.5374 C.ar    1  UNL1        0.0181
     19 C          14.7553   86.5691   25.4198 C.ar    1  UNL1        0.0687
     20 C          14.7179   87.5405   26.5877 C.3     1  UNL1        0.4183
     21 F          15.9871   87.9254   26.9858 F       1  UNL1       -0.1659
     22 F          14.0980   86.9450   27.6716 F       1  UNL1       -0.1659
     23 F          14.0261   88.6823   26.2244 F       1  UNL1       -0.1659
     24 C          15.6888   88.9004   22.7210 C.3     1  UNL1        0.0047
     25 C          16.1935   88.1824   23.9795 C.3     1  UNL1        0.0223
     26 C          17.7082   87.9477   23.9098 C.3     1  UNL1        0.0047
     27 C           9.0079   75.9607   26.4440 C.2     1  UNL1        0.2483
     28 O           9.3727   75.2873   27.4466 O.2     1  UNL1       -0.2701
     29 N           7.8601   75.5471   25.6848 N.am    1  UNL1       -0.2945
     30 H           7.4129   76.2512   25.0569 H       1  UNL1        0.1501
     31 C           7.1194   74.3200   26.0009 C.3     1  UNL1        0.1535
     32 C           6.3658   74.4748   27.2973 C.2     1  UNL1        0.2443
     33 O           5.7151   73.4995   27.7638 O.2     1  UNL1       -0.2730
     34 N           6.4683   75.7011   28.0379 N.am    1  UNL1       -0.2825
     35 H           7.2284   76.3677   27.7724 H       1  UNL1        0.1549
     36 C           5.6738   76.0105   29.1952 C.ar    1  UNL1        0.0535
     37 C           6.2383   75.8856   30.4719 C.ar    1  UNL1        0.0353
     38 C           5.4774   76.2053   31.5988 C.ar    1  UNL1        0.1002
     39 N           4.2014   76.6512   31.4560 N.ar    1  UNL1       -0.2422
     40 C           3.6330   76.8017   30.2305 C.ar    1  UNL1        0.1002
     41 C           4.3588   76.4921   29.0774 C.ar    1  UNL1        0.0353
     42 C           6.1862   73.9132   24.8414 C.3     1  UNL1        0.0569
     43 C           5.6881   75.0799   24.0309 C.ar    1  UNL1       -0.0017
     44 C           6.1416   75.4685   22.7729 C.ar    1  UNL1        0.0681
     45 N           5.4420   76.5362   22.3268 N.ar    1  UNL1       -0.3523
     46 C           4.5512   76.8261   23.2908 C.ar    1  UNL1        0.0563
     47 C           3.6012   77.8466   23.2832 C.ar    1  UNL1        0.0170
     48 C           2.7586   77.9690   24.4032 C.ar    1  UNL1        0.0015
     49 C           2.8844   77.0804   25.4938 C.ar    1  UNL1        0.0001
     50 C           3.8534   76.0611   25.4746 C.ar    1  UNL1        0.0012
     51 C           4.6715   75.9609   24.3484 C.ar    1  UNL1        0.0131
     52 H           5.5681   77.0293   21.4149 H       1  UNL1        0.1660
@<TRIPOS>BOND
     1    24    25    1
     2    25    26    1
     3    25    14    1
     4    14    15   ar
     5    15    16   ar
     6    16    17   ar
     7    17     8    1
     8     8     9    1
     9     9    10    1
    10    10    11    1
    11    11     1    1
    12     1     2   ar
    13     2     3   ar
    14     3     4   ar
    15     4    27    1
    16    27    28    2
    17    27    29   am
    18    29    31    1
    19    31    42    1
    20    42    43    1
    21    43    44   ar
    22    44    45   ar
    23    45    46   ar
    24    46    47   ar
    25    47    48   ar
    26    48    49   ar
    27    49    50   ar
    28    50    51   ar
    29    31    32    1
    30    32    33    2
    31    32    34   am
    32    34    36    1
    33    36    37   ar
    34    37    38   ar
    35    38    39   ar
    36    39    40   ar
    37    40    41   ar
    38     4     5   ar
    39     5     6    1
    40     5     7   ar
    41    11    12    1
    42    12    13    1
    43    17    18   ar
    44    18    19   ar
    45    19    20    1
    46    20    21    1
    47    20    22    1
    48    20    23    1
    49    19    14   ar
    50    13     8    1
    51     7     1   ar
    52    51    43   ar
    53    41    36   ar
    54    51    46   ar
    55    29    30    1
    56    45    52    1
    57    34    35    1
@<TRIPOS>MOLECULE
*****
 52 57 0 0 0
SMALL
GASTEIGER

@<TRIPOS>ATOM
      1 C          11.4638   79.4456   24.9043 C.ar    1  UNL1        0.0502
      2 C          11.9976   78.3751   25.6417 C.ar    1  UNL1        0.0148
      3 C          11.3477   77.1390   25.6730 C.ar    1  UNL1        0.0080
      4 C          10.1425   76.9466   24.9783 C.ar    1  UNL1        0.0808
      5 C           9.6117   78.0120   24.2269 C.ar    1  UNL1        0.1457
      6 F           8.4877   77.8521   23.4847 F       1  UNL1       -0.2040
      7 C          10.2651   79.2478   24.1962 C.ar    1  UNL1        0.0443
      8 N          13.4720   83.2321   24.6191 N.pl3   1  UNL1       -0.3041
      9 C          12.0671   83.1024   24.2018 C.3     1  UNL1        0.1122
     10 C          11.3584   81.9712   24.9534 C.3     1  UNL1        0.1122
     11 N          12.1352   80.7253   24.8759 N.pl3   1  UNL1       -0.3040
     12 C          13.6056   80.7766   24.8607 C.3     1  UNL1        0.1122
     13 C          14.1266   82.1335   25.3442 C.3     1  UNL1        0.1122
     14 C          15.5575   86.9062   23.9201 C.ar    1  UNL1       -0.0185
     15 C          15.5440   85.8759   22.9587 C.ar    1  UNL1       -0.0031
     16 C          14.8654   84.6822   23.1871 C.ar    1  UNL1        0.0142
     17 C          14.1766   84.4724   24.3866 C.ar    1  UNL1        0.0479
     18 C          14.1756   85.4889   25.3547 C.ar    1  UNL1        0.0181
     19 C          14.8567   86.7077   25.1470 C.ar    1  UNL1        0.0687
     20 C          14.8181   87.7682   26.2344 C.3     1  UNL1        0.4183
     21 F          16.0793   88.0502   26.7319 F       1  UNL1       -0.1659
     22 F          14.0370   87.3291   27.2884 F       1  UNL1       -0.1659
     23 F          14.2945   88.9427   25.7239 F       1  UNL1       -0.1659
     24 C          16.0173   88.6773   22.1770 C.3     1  UNL1        0.0047
     25 C          16.3243   88.1893   23.5989 C.3     1  UNL1        0.0223
     26 C          17.8331   87.9982   23.8020 C.3     1  UNL1        0.0047
     27 C           9.4674   75.6299   25.0370 C.2     1  UNL1        0.2483
     28 O          10.1553   74.5925   25.2429 O.2     1  UNL1       -0.2701
     29 N           8.0402   75.5264   24.9054 N.am    1  UNL1       -0.2945
     30 H           7.4766   76.3972   25.0234 H       1  UNL1        0.1501
     31 C           7.3474   74.2330   24.9437 C.3     1  UNL1        0.1535
     32 C           6.2456   74.2522   25.9724 C.2     1  UNL1        0.2443
     33 O           5.2732   75.0445   25.8340 O.2     1  UNL1       -0.2730
     34 N           6.2641   73.3059   27.0527 N.am    1  UNL1       -0.2825
     35 H           6.9179   72.4939   26.9769 H       1  UNL1        0.1549
     36 C           5.3559   73.3389   28.1665 C.ar    1  UNL1        0.0535
     37 C           5.3286   74.4654   28.9999 C.ar    1  UNL1        0.0353
     38 C           4.4332   74.5116   30.0710 C.ar    1  UNL1        0.1002
     39 N           3.5815   73.4758   30.2931 N.ar    1  UNL1       -0.2422
     40 C           3.5706   72.3787   29.4906 C.ar    1  UNL1        0.1002
     41 C           4.4508   72.2916   28.4090 C.ar    1  UNL1        0.0353
     42 C           6.8210   73.8367   23.5485 C.3     1  UNL1        0.0569
     43 C           7.1311   74.8482   22.4776 C.ar    1  UNL1       -0.0017
     44 C           8.2655   74.8788   21.6705 C.ar    1  UNL1        0.0681
     45 N           8.1935   75.9042   20.7918 N.ar    1  UNL1       -0.3523
     46 C           7.0248   76.5218   21.0364 C.ar    1  UNL1        0.0563
     47 C           6.5037   77.6342   20.3768 C.ar    1  UNL1        0.0170
     48 C           5.2505   78.1187   20.7939 C.ar    1  UNL1        0.0015
     49 C           4.5554   77.4891   21.8500 C.ar    1  UNL1        0.0001
     50 C           5.1065   76.3692   22.4984 C.ar    1  UNL1        0.0012
     51 C           6.3485   75.9081   22.0598 C.ar    1  UNL1        0.0131
     52 H           8.9022   76.1579   20.0681 H       1  UNL1        0.1660
@<TRIPOS>BOND
     1    24    25    1
     2    25    26    1
     3    25    14    1
     4    14    15   ar
     5    15    16   ar
     6    16    17   ar
     7    17     8    1
     8     8     9    1
     9     9    10    1
    10    10    11    1
    11    11     1    1
    12     1     2   ar
    13     2     3   ar
    14     3     4   ar
    15     4    27    1
    16    27    28    2
    17    27    29   am
    18    29    31    1
    19    31    42    1
    20    42    43    1
    21    43    44   ar
    22    44    45   ar
    23    45    46   ar
    24    46    47   ar
    25    47    48   ar
    26    48    49   ar
    27    49    50   ar
    28    50    51   ar
    29    31    32    1
    30    32    33    2
    31    32    34   am
    32    34    36    1
    33    36    37   ar
    34    37    38   ar
    35    38    39   ar
    36    39    40   ar
    37    40    41   ar
    38     4     5   ar
    39     5     6    1
    40     5     7   ar
    41    11    12    1
    42    12    13    1
    43    17    18   ar
    44    18    19   ar
    45    19    20    1
    46    20    21    1
    47    20    22    1
    48    20    23    1
    49    19    14   ar
    50    13     8    1
    51     7     1   ar
    52    51    43   ar
    53    41    36   ar
    54    51    46   ar
    55    29    30    1
    56    45    52    1
    57    34    35    1
@<TRIPOS>MOLECULE
*****
 52 57 0 0 0
SMALL
GASTEIGER

@<TRIPOS>ATOM
      1 C          11.1156   80.0336   25.5287 C.ar    1  UNL1        0.0502
      2 C          10.5677   81.3146   25.3453 C.ar    1  UNL1        0.0148
      3 C          11.3824   82.3925   24.9905 C.ar    1  UNL1        0.0080
      4 C          12.7657   82.2188   24.8225 C.ar    1  UNL1        0.0808
      5 C          13.3165   80.9344   24.9914 C.ar    1  UNL1        0.1457
      6 F          14.6353   80.7050   24.7720 F       1  UNL1       -0.2040
      7 C          12.4985   79.8570   25.3451 C.ar    1  UNL1        0.0443
      8 N           8.5371   76.8353   26.7832 N.pl3   1  UNL1       -0.3041
      9 C           7.9809   78.0154   26.1030 C.3     1  UNL1        0.1122
     10 C           9.0129   78.6732   25.1817 C.3     1  UNL1        0.1122
     11 N          10.2722   78.9199   25.8995 N.pl3   1  UNL1       -0.3040
     12 C          10.7216   77.9796   26.9382 C.3     1  UNL1        0.1122
     13 C           9.9928   76.6364   26.8350 C.3     1  UNL1        0.1122
     14 C           5.9008   73.8636   28.3819 C.ar    1  UNL1       -0.0185
     15 C           6.2762   73.8570   27.0235 C.ar    1  UNL1       -0.0031
     16 C           7.1335   74.8234   26.5053 C.ar    1  UNL1        0.0142
     17 C           7.6460   75.8346   27.3251 C.ar    1  UNL1        0.0479
     18 C           7.2863   75.8553   28.6818 C.ar    1  UNL1        0.0181
     19 C           6.4182   74.8871   29.2307 C.ar    1  UNL1        0.0687
     20 C           6.0666   74.9648   30.7069 C.3     1  UNL1        0.4183
     21 F           4.7042   75.1056   30.9111 F       1  UNL1       -0.1659
     22 F           6.6944   76.0561   31.2804 F       1  UNL1       -0.1659
     23 F           6.4706   73.8059   31.3456 F       1  UNL1       -0.1659
     24 C           5.0425   71.5181   27.9964 C.3     1  UNL1        0.0047
     25 C           4.9555   72.7699   28.8795 C.3     1  UNL1        0.0223
     26 C           3.5122   73.2831   28.9668 C.3     1  UNL1        0.0047
     27 C          13.6090   83.3799   24.4575 C.2     1  UNL1        0.2483
     28 O          14.2111   84.0151   25.3663 O.2     1  UNL1       -0.2701
     29 N          13.7823   83.7626   23.0833 N.am    1  UNL1       -0.2945
     30 H          13.5185   83.0694   22.3485 H       1  UNL1        0.1501
     31 C          14.5993   84.9184   22.6948 C.3     1  UNL1        0.1535
     32 C          14.7246   84.9988   21.1947 C.2     1  UNL1        0.2443
     33 O          15.4587   84.1749   20.5825 O.2     1  UNL1       -0.2730
     34 N          13.9372   85.9528   20.4649 N.am    1  UNL1       -0.2825
     35 H          13.1440   86.4136   20.9658 H       1  UNL1        0.1549
     36 C          14.0942   86.2193   19.0611 C.ar    1  UNL1        0.0535
     37 C          14.4331   85.1712   18.1945 C.ar    1  UNL1        0.0353
     38 C          14.5660   85.4205   16.8266 C.ar    1  UNL1        0.1002
     39 N          14.3513   86.6702   16.3371 N.ar    1  UNL1       -0.2422
     40 C          14.0022   87.7025   17.1495 C.ar    1  UNL1        0.1002
     41 C          13.8597   87.4967   18.5241 C.ar    1  UNL1        0.0353
     42 C          14.0417   86.2266   23.2935 C.3     1  UNL1        0.0569
     43 C          15.0836   87.0658   23.9837 C.ar    1  UNL1       -0.0017
     44 C          15.1956   87.2856   25.3542 C.ar    1  UNL1        0.0681
     45 N          16.2721   88.0585   25.6230 N.ar    1  UNL1       -0.3523
     46 C          16.8409   88.3295   24.4356 C.ar    1  UNL1        0.0563
     47 C          17.9864   89.0893   24.2021 C.ar    1  UNL1        0.0170
     48 C          18.4138   89.2425   22.8704 C.ar    1  UNL1        0.0015
     49 C          17.6939   88.6415   21.8143 C.ar    1  UNL1        0.0001
     50 C          16.5404   87.8816   22.0797 C.ar    1  UNL1        0.0012
     51 C          16.1434   87.7429   23.4104 C.ar    1  UNL1        0.0131
     52 H          16.5953   88.3742   26.5645 H       1  UNL1        0.1660
@<TRIPOS>BOND
     1    24    25    1
     2    25    26    1
     3    25    14    1
     4    14    15   ar
     5    15    16   ar
     6    16    17   ar
     7    17     8    1
     8     8     9    1
     9     9    10    1
    10    10    11    1
    11    11     1    1
    12     1     2   ar
    13     2     3   ar
    14     3     4   ar
    15     4    27    1
    16    27    28    2
    17    27    29   am
    18    29    31    1
    19    31    42    1
    20    42    43    1
    21    43    44   ar
    22    44    45   ar
    23    45    46   ar
    24    46    47   ar
    25    47    48   ar
    26    48    49   ar
    27    49    50   ar
    28    50    51   ar
    29    31    32    1
    30    32    33    2
    31    32    34   am
    32    34    36    1
    33    36    37   ar
    34    37    38   ar
    35    38    39   ar
    36    39    40   ar
    37    40    41   ar
    38     4     5   ar
    39     5     6    1
    40     5     7   ar
    41    11    12    1
    42    12    13    1
    43    17    18   ar
    44    18    19   ar
    45    19    20    1
    46    20    21    1
    47    20    22    1
    48    20    23    1
    49    19    14   ar
    50    13     8    1
    51     7     1   ar
    52    51    43   ar
    53    41    36   ar
    54    51    46   ar
    55    29    30    1
    56    45    52    1
    57    34    35    1
@<TRIPOS>MOLECULE
*****
 52 57 0 0 0
SMALL
GASTEIGER

@<TRIPOS>ATOM
      1 C          11.4443   79.4746   24.9191 C.ar    1  UNL1        0.0502
      2 C          12.1538   78.2919   25.1886 C.ar    1  UNL1        0.0148
      3 C          11.4983   77.0584   25.2093 C.ar    1  UNL1        0.0080
      4 C          10.1163   76.9787   24.9734 C.ar    1  UNL1        0.0808
      5 C           9.4044   78.1592   24.6890 C.ar    1  UNL1        0.1457
      6 F           8.0826   78.1230   24.3868 F       1  UNL1       -0.2040
      7 C          10.0632   79.3924   24.6675 C.ar    1  UNL1        0.0443
      8 N          13.4697   83.2542   24.6662 N.pl3   1  UNL1       -0.3041
      9 C          12.0554   83.1412   24.2769 C.3     1  UNL1        0.1122
     10 C          11.3558   81.9993   25.0208 C.3     1  UNL1        0.1122
     11 N          12.1230   80.7507   24.9017 N.pl3   1  UNL1       -0.3040
     12 C          13.5931   80.7937   24.8559 C.3     1  UNL1        0.1122
     13 C          14.1328   82.1375   25.3550 C.3     1  UNL1        0.1122
     14 C          15.5629   86.9293   23.9960 C.ar    1  UNL1       -0.0185
     15 C          15.5404   85.9099   23.0232 C.ar    1  UNL1       -0.0031
     16 C          14.8593   84.7158   23.2423 C.ar    1  UNL1        0.0142
     17 C          14.1769   84.4949   24.4435 C.ar    1  UNL1        0.0479
     18 C          14.1849   85.5005   25.4229 C.ar    1  UNL1        0.0181
     19 C          14.8687   86.7193   25.2247 C.ar    1  UNL1        0.0687
     20 C          14.8400   87.7677   26.3241 C.3     1  UNL1        0.4183
     21 F          14.0983   87.3549   27.4182 F       1  UNL1       -0.1659
     22 F          14.2708   88.9336   25.8439 F       1  UNL1       -0.1659
     23 F          16.1278   88.0232   26.7605 F       1  UNL1       -0.1659
     24 C          15.9536   88.7651   22.3037 C.3     1  UNL1        0.0047
     25 C          16.3319   88.2135   23.6846 C.3     1  UNL1        0.0223
     26 C          17.8463   87.9922   23.7933 C.3     1  UNL1        0.0047
     27 C           9.4432   75.6603   25.0123 C.2     1  UNL1        0.2483
     28 O          10.1374   74.6173   25.1615 O.2     1  UNL1       -0.2701
     29 N           8.0123   75.5598   24.9257 N.am    1  UNL1       -0.2945
     30 H           7.4532   76.4260   25.0906 H       1  UNL1        0.1501
     31 C           7.3208   74.2653   24.9457 C.3     1  UNL1        0.1535
     32 C           6.2444   74.2556   26.0011 C.2     1  UNL1        0.2443
     33 O           5.2528   75.0282   25.8913 O.2     1  UNL1       -0.2730
     34 N           6.3090   73.3038   27.0747 N.am    1  UNL1       -0.2825
     35 H           6.9775   72.5061   26.9780 H       1  UNL1        0.1549
     36 C           5.4280   73.3116   28.2105 C.ar    1  UNL1        0.0535
     37 C           5.5237   74.3474   29.1497 C.ar    1  UNL1        0.0353
     38 C           4.6558   74.3712   30.2439 C.ar    1  UNL1        0.1002
     39 N           3.7125   73.4032   30.3873 N.ar    1  UNL1       -0.2422
     40 C           3.5821   72.3970   29.4828 C.ar    1  UNL1        0.1002
     41 C           4.4306   72.3351   28.3745 C.ar    1  UNL1        0.0353
     42 C           6.7607   73.9066   23.5535 C.3     1  UNL1        0.0569
     43 C           6.2484   75.0956   22.7852 C.ar    1  UNL1       -0.0017
     44 C           4.9229   75.5116   22.6897 C.ar    1  UNL1        0.0681
     45 N           4.8334   76.6400   21.9499 N.ar    1  UNL1       -0.3523
     46 C           6.0894   76.9406   21.5770 C.ar    1  UNL1        0.0563
     47 C           6.5042   78.0255   20.8057 C.ar    1  UNL1        0.0170
     48 C           7.8791   78.1535   20.5363 C.ar    1  UNL1        0.0015
     49 C           8.7976   77.2041   21.0363 C.ar    1  UNL1        0.0001
     50 C           8.3500   76.1184   21.8104 C.ar    1  UNL1        0.0012
     51 C           6.9814   76.0202   22.0655 C.ar    1  UNL1        0.0131
     52 H           3.9632   77.1702   21.7216 H       1  UNL1        0.1660
@<TRIPOS>BOND
     1    24    25    1
     2    25    26    1
     3    25    14    1
     4    14    15   ar
     5    15    16   ar
     6    16    17   ar
     7    17     8    1
     8     8     9    1
     9     9    10    1
    10    10    11    1
    11    11     1    1
    12     1     2   ar
    13     2     3   ar
    14     3     4   ar
    15     4    27    1
    16    27    28    2
    17    27    29   am
    18    29    31    1
    19    31    42    1
    20    42    43    1
    21    43    44   ar
    22    44    45   ar
    23    45    46   ar
    24    46    47   ar
    25    47    48   ar
    26    48    49   ar
    27    49    50   ar
    28    50    51   ar
    29    31    32    1
    30    32    33    2
    31    32    34   am
    32    34    36    1
    33    36    37   ar
    34    37    38   ar
    35    38    39   ar
    36    39    40   ar
    37    40    41   ar
    38     4     5   ar
    39     5     6    1
    40     5     7   ar
    41    11    12    1
    42    12    13    1
    43    17    18   ar
    44    18    19   ar
    45    19    20    1
    46    20    21    1
    47    20    22    1
    48    20    23    1
    49    19    14   ar
    50    13     8    1
    51     7     1   ar
    52    51    43   ar
    53    41    36   ar
    54    51    46   ar
    55    29    30    1
    56    45    52    1
    57    34    35    1
@<TRIPOS>MOLECULE
*****
 52 57 0 0 0
SMALL
GASTEIGER

@<TRIPOS>ATOM
      1 C          11.1832   79.5301   25.3982 C.ar    1  UNL1        0.0502
      2 C          11.7898   78.2635   25.3469 C.ar    1  UNL1        0.0148
      3 C          11.0641   77.1139   25.6682 C.ar    1  UNL1        0.0080
      4 C           9.7187   77.2035   26.0604 C.ar    1  UNL1        0.0808
      5 C           9.1032   78.4688   26.0995 C.ar    1  UNL1        0.1457
      6 F           7.7880   78.5974   26.4051 F       1  UNL1       -0.2040
      7 C           9.8315   79.6178   25.7759 C.ar    1  UNL1        0.0443
      8 N          13.3902   83.1297   24.6087 N.pl3   1  UNL1       -0.3041
      9 C          13.9769   82.0646   25.4370 C.3     1  UNL1        0.1122
     10 C          13.4062   80.6900   25.0741 C.3     1  UNL1        0.1122
     11 N          11.9362   80.7192   25.0692 N.pl3   1  UNL1       -0.3040
     12 C          11.2274   81.9353   24.6405 C.3     1  UNL1        0.1122
     13 C          12.1489   82.8791   23.8620 C.3     1  UNL1        0.1122
     14 C          15.4388   86.8657   24.1812 C.ar    1  UNL1       -0.0185
     15 C          15.4311   85.9105   23.1451 C.ar    1  UNL1       -0.0031
     16 C          14.7645   84.6966   23.2853 C.ar    1  UNL1        0.0142
     17 C          14.0824   84.3907   24.4679 C.ar    1  UNL1        0.0479
     18 C          14.0758   85.3315   25.5097 C.ar    1  UNL1        0.0181
     19 C          14.7447   86.5689   25.3920 C.ar    1  UNL1        0.0687
     20 C          14.7006   87.5443   26.5562 C.3     1  UNL1        0.4183
     21 F          14.0373   88.7152   26.2299 F       1  UNL1       -0.1659
     22 F          15.9884   87.8800   26.9342 F       1  UNL1       -0.1659
     23 F          14.0368   86.9678   27.6244 F       1  UNL1       -0.1659
     24 C          15.6148   88.9492   22.7618 C.3     1  UNL1        0.0047
     25 C          16.1924   88.1766   23.9550 C.3     1  UNL1        0.0223
     26 C          17.6954   87.9270   23.7740 C.3     1  UNL1        0.0047
     27 C           8.9749   75.9709   26.4070 C.2     1  UNL1        0.2483
     28 O           9.3488   75.2822   27.3959 O.2     1  UNL1       -0.2701
     29 N           7.8128   75.5760   25.6598 N.am    1  UNL1       -0.2945
     30 H           7.3623   76.2914   25.0471 H       1  UNL1        0.1501
     31 C           7.0666   74.3511   25.9717 C.3     1  UNL1        0.1535
     32 C           6.4421   74.4450   27.3405 C.2     1  UNL1        0.2443
     33 O           5.9278   73.4194   27.8659 O.2     1  UNL1       -0.2730
     34 N           6.5180   75.6773   28.0743 N.am    1  UNL1       -0.2825
     35 H           7.1875   76.4048   27.7354 H       1  UNL1        0.1549
     36 C           5.8254   75.9215   29.3100 C.ar    1  UNL1        0.0535
     37 C           4.4562   76.2200   29.2851 C.ar    1  UNL1        0.0353
     38 C           3.7738   76.4372   30.4844 C.ar    1  UNL1        0.1002
     39 N           4.4317   76.3430   31.6700 N.ar    1  UNL1       -0.2422
     40 C           5.7545   76.0356   31.7275 C.ar    1  UNL1        0.1002
     41 C           6.4748   75.8119   30.5514 C.ar    1  UNL1        0.0353
     42 C           6.0174   74.0406   24.8838 C.3     1  UNL1        0.0569
     43 C           6.6135   73.8005   23.5225 C.ar    1  UNL1       -0.0017
     44 C           7.9087   73.3676   23.2499 C.ar    1  UNL1        0.0681
     45 N           8.0886   73.2226   21.9175 N.ar    1  UNL1       -0.3523
     46 C           6.9197   73.5601   21.3458 C.ar    1  UNL1        0.0563
     47 C           6.6146   73.5612   19.9853 C.ar    1  UNL1        0.0170
     48 C           5.3172   73.9481   19.6026 C.ar    1  UNL1        0.0015
     49 C           4.3657   74.3228   20.5768 C.ar    1  UNL1        0.0001
     50 C           4.7023   74.3138   21.9424 C.ar    1  UNL1        0.0012
     51 C           5.9948   73.9208   22.2924 C.ar    1  UNL1        0.0131
     52 H           8.9593   72.9071   21.4352 H       1  UNL1        0.1660
@<TRIPOS>BOND
     1    24    25    1
     2    25    26    1
     3    25    14    1
     4    14    15   ar
     5    15    16   ar
     6    16    17   ar
     7    17     8    1
     8     8     9    1
     9     9    10    1
    10    10    11    1
    11    11     1    1
    12     1     2   ar
    13     2     3   ar
    14     3     4   ar
    15     4    27    1
    16    27    28    2
    17    27    29   am
    18    29    31    1
    19    31    42    1
    20    42    43    1
    21    43    44   ar
    22    44    45   ar
    23    45    46   ar
    24    46    47   ar
    25    47    48   ar
    26    48    49   ar
    27    49    50   ar
    28    50    51   ar
    29    31    32    1
    30    32    33    2
    31    32    34   am
    32    34    36    1
    33    36    37   ar
    34    37    38   ar
    35    38    39   ar
    36    39    40   ar
    37    40    41   ar
    38     4     5   ar
    39     5     6    1
    40     5     7   ar
    41    11    12    1
    42    12    13    1
    43    17    18   ar
    44    18    19   ar
    45    19    20    1
    46    20    21    1
    47    20    22    1
    48    20    23    1
    49    19    14   ar
    50    13     8    1
    51     7     1   ar
    52    51    43   ar
    53    41    36   ar
    54    51    46   ar
    55    29    30    1
    56    45    52    1
    57    34    35    1
@<TRIPOS>MOLECULE
*****
 52 57 0 0 0
SMALL
GASTEIGER

@<TRIPOS>ATOM
      1 C          11.2377   79.6263   25.4872 C.ar    1  UNL1        0.0502
      2 C          11.8840   78.3787   25.5109 C.ar    1  UNL1        0.0148
      3 C          11.1765   77.2171   25.8297 C.ar    1  UNL1        0.0080
      4 C           9.8092   77.2760   26.1445 C.ar    1  UNL1        0.0808
      5 C           9.1547   78.5217   26.1081 C.ar    1  UNL1        0.1457
      6 F           7.8213   78.6178   26.3369 F       1  UNL1       -0.2040
      7 C           9.8650   79.6827   25.7872 C.ar    1  UNL1        0.0443
      8 N          13.3722   83.2699   24.7000 N.pl3   1  UNL1       -0.3041
      9 C          13.9314   82.2638   25.6164 C.3     1  UNL1        0.1122
     10 C          13.4374   80.8546   25.2751 C.3     1  UNL1        0.1122
     11 N          11.9718   80.8279   25.1609 N.pl3   1  UNL1       -0.3040
     12 C          11.2556   81.9971   24.6269 C.3     1  UNL1        0.1122
     13 C          12.1998   82.9411   23.8763 C.3     1  UNL1        0.1122
     14 C          15.3225   87.0585   24.2755 C.ar    1  UNL1       -0.0185
     15 C          14.8935   86.5911   25.5339 C.ar    1  UNL1       -0.0031
     16 C          14.2599   85.3592   25.6704 C.ar    1  UNL1        0.0142
     17 C          14.0290   84.5490   24.5535 C.ar    1  UNL1        0.0479
     18 C          14.4527   84.9962   23.2921 C.ar    1  UNL1        0.0181
     19 C          15.0965   86.2415   23.1277 C.ar    1  UNL1        0.0687
     20 C          15.5304   86.6688   21.7356 C.3     1  UNL1        0.4183
     21 F          14.8077   87.7569   21.2759 F       1  UNL1       -0.1659
     22 F          15.3377   85.6275   20.8455 F       1  UNL1       -0.1659
     23 F          16.8666   87.0271   21.7516 F       1  UNL1       -0.1659
     24 C          17.4175   88.3651   24.8140 C.3     1  UNL1        0.0047
     25 C          16.0112   88.4215   24.2032 C.3     1  UNL1        0.0223
     26 C          15.1615   89.5075   24.8761 C.3     1  UNL1        0.0047
     27 C           9.0846   76.0317   26.4902 C.2     1  UNL1        0.2483
     28 O           9.4771   75.3415   27.4707 O.2     1  UNL1       -0.2701
     29 N           7.9202   75.6269   25.7519 N.am    1  UNL1       -0.2945
     30 H           7.4546   76.3405   25.1485 H       1  UNL1        0.1501
     31 C           7.1929   74.3906   26.0630 C.3     1  UNL1        0.1535
     32 C           6.4223   74.5386   27.3502 C.2     1  UNL1        0.2443
     33 O           5.7174   73.5806   27.7719 O.2     1  UNL1       -0.2730
     34 N           6.5682   75.7335   28.1335 N.am    1  UNL1       -0.2825
     35 H           7.3639   76.3714   27.9042 H       1  UNL1        0.1549
     36 C           5.7668   76.0424   29.2862 C.ar    1  UNL1        0.0535
     37 C           4.4335   76.4382   29.1124 C.ar    1  UNL1        0.0353
     38 C           3.6442   76.7190   30.2301 C.ar    1  UNL1        0.1002
     39 N           4.1626   76.5927   31.4802 N.ar    1  UNL1       -0.2422
     40 C           5.4458   76.1919   31.6814 C.ar    1  UNL1        0.1002
     41 C           6.2698   75.9022   30.5909 C.ar    1  UNL1        0.0353
     42 C           6.2788   73.9678   24.8941 C.3     1  UNL1        0.0569
     43 C           5.7592   75.1265   24.0856 C.ar    1  UNL1       -0.0017
     44 C           6.2014   75.5220   22.8258 C.ar    1  UNL1        0.0681
     45 N           5.4834   76.5787   22.3826 N.ar    1  UNL1       -0.3523
     46 C           4.5923   76.8548   23.3504 C.ar    1  UNL1        0.0563
     47 C           3.6264   77.8604   23.3467 C.ar    1  UNL1        0.0170
     48 C           2.7867   77.9697   24.4702 C.ar    1  UNL1        0.0015
     49 C           2.9309   77.0832   25.5603 C.ar    1  UNL1        0.0001
     50 C           3.9155   76.0791   25.5370 C.ar    1  UNL1        0.0012
     51 C           4.7304   75.9916   24.4074 C.ar    1  UNL1        0.0131
     52 H           5.5980   77.0736   21.4702 H       1  UNL1        0.1660
@<TRIPOS>BOND
     1    24    25    1
     2    25    26    1
     3    25    14    1
     4    14    15   ar
     5    15    16   ar
     6    16    17   ar
     7    17     8    1
     8     8     9    1
     9     9    10    1
    10    10    11    1
    11    11     1    1
    12     1     2   ar
    13     2     3   ar
    14     3     4   ar
    15     4    27    1
    16    27    28    2
    17    27    29   am
    18    29    31    1
    19    31    42    1
    20    42    43    1
    21    43    44   ar
    22    44    45   ar
    23    45    46   ar
    24    46    47   ar
    25    47    48   ar
    26    48    49   ar
    27    49    50   ar
    28    50    51   ar
    29    31    32    1
    30    32    33    2
    31    32    34   am
    32    34    36    1
    33    36    37   ar
    34    37    38   ar
    35    38    39   ar
    36    39    40   ar
    37    40    41   ar
    38     4     5   ar
    39     5     6    1
    40     5     7   ar
    41    11    12    1
    42    12    13    1
    43    17    18   ar
    44    18    19   ar
    45    19    20    1
    46    20    21    1
    47    20    22    1
    48    20    23    1
    49    19    14   ar
    50    13     8    1
    51     7     1   ar
    52    51    43   ar
    53    41    36   ar
    54    51    46   ar
    55    29    30    1
    56    45    52    1
    57    34    35    1
@<TRIPOS>MOLECULE
*****
 52 57 0 0 0
SMALL
GASTEIGER

@<TRIPOS>ATOM
      1 C          10.8876   79.5365   25.2368 C.ar    1  UNL1        0.0502
      2 C           9.7456   79.5361   26.0557 C.ar    1  UNL1        0.0148
      3 C           8.9619   78.3866   26.1825 C.ar    1  UNL1        0.0080
      4 C           9.2936   77.2140   25.4847 C.ar    1  UNL1        0.0808
      5 C          10.4446   77.2059   24.6745 C.ar    1  UNL1        0.1457
      6 F          10.8426   76.0769   24.0367 F       1  UNL1       -0.2040
      7 C          11.2281   78.3574   24.5504 C.ar    1  UNL1        0.0443
      8 N          13.2590   83.0682   24.6405 N.pl3   1  UNL1       -0.3041
      9 C          11.7942   83.1263   24.5149 C.3     1  UNL1        0.1122
     10 C          11.1127   82.0514   25.3673 C.3     1  UNL1        0.1122
     11 N          11.6955   80.7276   25.1033 N.pl3   1  UNL1       -0.3040
     12 C          13.1281   80.6053   24.7904 C.3     1  UNL1        0.1122
     13 C          13.9012   81.8656   25.1904 C.3     1  UNL1        0.1122
     14 C          15.6115   86.4977   23.6203 C.ar    1  UNL1       -0.0185
     15 C          15.5683   85.3631   22.7856 C.ar    1  UNL1       -0.0031
     16 C          14.8029   84.2490   23.1183 C.ar    1  UNL1        0.0142
     17 C          14.0536   84.2263   24.2995 C.ar    1  UNL1        0.0479
     18 C          14.0811   85.3490   25.1418 C.ar    1  UNL1        0.0181
     19 C          14.8499   86.4902   24.8268 C.ar    1  UNL1        0.0687
     20 C          14.8381   87.6730   25.7804 C.3     1  UNL1        0.4183
     21 F          16.0890   87.9184   26.3214 F       1  UNL1       -0.1659
     22 F          13.9678   87.4220   26.8262 F       1  UNL1       -0.1659
     23 F          14.4397   88.8135   25.1061 F       1  UNL1       -0.1659
     24 C          16.4401   87.8702   21.6668 C.3     1  UNL1        0.0047
     25 C          16.4745   87.6839   23.1893 C.3     1  UNL1        0.0223
     26 C          17.9157   87.5320   23.6933 C.3     1  UNL1        0.0047
     27 C           8.4399   76.0125   25.6274 C.2     1  UNL1        0.2483
     28 O           8.9583   74.8690   25.5027 O.2     1  UNL1       -0.2701
     29 N           7.0441   76.1333   25.9470 N.am    1  UNL1       -0.2945
     30 H           6.7084   77.0481   26.3216 H       1  UNL1        0.1501
     31 C           6.1720   74.9600   26.0784 C.3     1  UNL1        0.1535
     32 C           6.0996   74.2048   24.7758 C.2     1  UNL1        0.2443
     33 O           6.3555   72.9693   24.7530 O.2     1  UNL1       -0.2730
     34 N           5.6516   74.8763   23.5878 N.am    1  UNL1       -0.2825
     35 H           5.1837   75.8041   23.7006 H       1  UNL1        0.1549
     36 C           5.6949   74.2983   22.2724 C.ar    1  UNL1        0.0535
     37 C           4.5239   74.2457   21.5041 C.ar    1  UNL1        0.0353
     38 C           4.5649   73.7043   20.2171 C.ar    1  UNL1        0.1002
     39 N           5.7386   73.2463   19.7070 N.ar    1  UNL1       -0.2422
     40 C           6.8945   73.3020   20.4201 C.ar    1  UNL1        0.1002
     41 C           6.8973   73.8348   21.7117 C.ar    1  UNL1        0.0353
     42 C           6.6233   74.0526   27.2419 C.3     1  UNL1        0.0569
     43 C           5.9915   74.4058   28.5618 C.ar    1  UNL1       -0.0017
     44 C           4.9538   73.7241   29.1924 C.ar    1  UNL1        0.0681
     45 N           4.6651   74.2978   30.3824 N.ar    1  UNL1       -0.3523
     46 C           5.5101   75.3355   30.5095 C.ar    1  UNL1        0.0563
     47 C           5.5983   76.2263   31.5785 C.ar    1  UNL1        0.0170
     48 C           6.5661   77.2450   31.5074 C.ar    1  UNL1        0.0015
     49 C           7.4125   77.3506   30.3818 C.ar    1  UNL1        0.0001
     50 C           7.2996   76.4385   29.3170 C.ar    1  UNL1        0.0012
     51 C           6.3342   75.4357   29.4176 C.ar    1  UNL1        0.0131
     52 H           3.9360   73.9904   31.0638 H       1  UNL1        0.1660
@<TRIPOS>BOND
     1    24    25    1
     2    25    26    1
     3    25    14    1
     4    14    15   ar
     5    15    16   ar
     6    16    17   ar
     7    17     8    1
     8     8     9    1
     9     9    10    1
    10    10    11    1
    11    11     1    1
    12     1     2   ar
    13     2     3   ar
    14     3     4   ar
    15     4    27    1
    16    27    28    2
    17    27    29   am
    18    29    31    1
    19    31    42    1
    20    42    43    1
    21    43    44   ar
    22    44    45   ar
    23    45    46   ar
    24    46    47   ar
    25    47    48   ar
    26    48    49   ar
    27    49    50   ar
    28    50    51   ar
    29    31    32    1
    30    32    33    2
    31    32    34   am
    32    34    36    1
    33    36    37   ar
    34    37    38   ar
    35    38    39   ar
    36    39    40   ar
    37    40    41   ar
    38     4     5   ar
    39     5     6    1
    40     5     7   ar
    41    11    12    1
    42    12    13    1
    43    17    18   ar
    44    18    19   ar
    45    19    20    1
    46    20    21    1
    47    20    22    1
    48    20    23    1
    49    19    14   ar
    50    13     8    1
    51     7     1   ar
    52    51    43   ar
    53    41    36   ar
    54    51    46   ar
    55    29    30    1
    56    45    52    1
    57    34    35    1
