@<TRIPOS>MOLECULE
*****
 39 43 0 0 0
SMALL
GASTEIGER

@<TRIPOS>ATOM
      1 C         -23.9812   50.9899   -8.0873 C.3     1  UNL1        0.1332
      2 N         -24.6787   51.0807   -9.3702 N.ar    1  UNL1       -0.2977
      3 C         -24.1447   51.1991  -10.6203 C.ar    1  UNL1        0.2018
      4 N         -25.0736   51.3097  -11.6047 N.ar    1  UNL1       -0.2135
      5 C         -26.2355   51.2224  -10.9349 C.ar    1  UNL1        0.0999
      6 C         -27.5271   51.2360  -11.4767 C.ar    1  UNL1        0.0282
      7 C         -28.6292   51.0856  -10.5962 C.ar    1  UNL1        0.0888
      8 C         -28.3598   50.9099   -9.2186 C.ar    1  UNL1        0.1401
      9 C         -27.0811   50.9145   -8.7120 C.ar    1  UNL1        0.0327
     10 C         -26.0069   51.0741   -9.5925 C.ar    1  UNL1        0.0789
     11 C         -27.1188   50.7179   -7.2368 C.3     1  UNL1        0.0709
     12 C         -28.6478   50.5457   -6.9526 C.3     1  UNL1        0.1375
     13 C         -28.9584   49.1408   -6.4187 C.3     1  UNL1        0.0439
     14 C         -29.1623   51.6141   -5.9785 C.3     1  UNL1        0.0439
     15 O         -29.2893   50.7168   -8.2182 O.3     1  UNL1       -0.4824
     16 C         -30.0198   51.0952  -11.1051 C.2     1  UNL1        0.2525
     17 O         -30.5216   52.1773  -11.5116 O.2     1  UNL1       -0.2697
     18 N         -30.8320   49.9104  -11.1080 N.am    1  UNL1       -0.2803
     19 H         -31.8608   50.0307  -10.9684 H       1  UNL1        0.1552
     20 C         -30.3313   48.5846  -11.3575 C.ar    1  UNL1        0.0505
     21 C         -30.6606   47.9403  -12.5577 C.ar    1  UNL1        0.0147
     22 C         -30.1780   46.6580  -12.8265 C.ar    1  UNL1        0.0012
     23 C         -29.3613   46.0058  -11.9000 C.ar    1  UNL1        0.0039
     24 C         -29.0233   46.6307  -10.6874 C.ar    1  UNL1        0.0726
     25 C         -29.4842   47.9355  -10.4398 C.ar    1  UNL1        0.0185
     26 C         -28.0992   45.9549   -9.7058 C.3     1  UNL1        0.4186
     27 F         -28.7993   45.5042   -8.6000 F       1  UNL1       -0.1659
     28 F         -27.1257   46.8377   -9.2706 F       1  UNL1       -0.1659
     29 F         -27.4891   44.8784  -10.3220 F       1  UNL1       -0.1659
     30 N         -22.7402   51.1834  -10.9132 N.pl3   1  UNL1       -0.2814
     31 H         -22.3244   50.2811  -11.2364 H       1  UNL1        0.1551
     32 C         -21.8614   52.3069  -10.7397 C.ar    1  UNL1        0.0889
     33 C         -22.4197   53.5696  -10.4780 C.ar    1  UNL1        0.1543
     34 F         -23.7651   53.7139  -10.3780 F       1  UNL1       -0.2028
     35 C         -21.5957   54.6825  -10.2906 C.ar    1  UNL1        0.0310
     36 C         -20.2094   54.5504  -10.3786 C.ar    1  UNL1        0.0033
     37 C         -19.6426   53.3076  -10.6675 C.ar    1  UNL1        0.0128
     38 C         -20.4569   52.1844  -10.8582 C.ar    1  UNL1        0.0733
     39 CL        -19.6819   50.6717  -11.3156 Cl      1  UNL1       -0.0809
@<TRIPOS>BOND
     1     1     2    1
     2     2     3   ar
     3     3    30    1
     4    30    32    1
     5    32    33   ar
     6    33    34    1
     7    33    35   ar
     8    35    36   ar
     9    36    37   ar
    10    37    38   ar
    11    38    39    1
    12     3     4   ar
    13     4     5   ar
    14     5     6   ar
    15     6     7   ar
    16     7    16    1
    17    16    17    2
    18    16    18   am
    19    18    20    1
    20    20    21   ar
    21    21    22   ar
    22    22    23   ar
    23    23    24   ar
    24    24    26    1
    25    26    27    1
    26    26    28    1
    27    26    29    1
    28    24    25   ar
    29     7     8   ar
    30     8     9   ar
    31     9    10   ar
    32     9    11    1
    33    11    12    1
    34    12    13    1
    35    12    14    1
    36    12    15    1
    37    10     2   ar
    38    38    32   ar
    39    10     5   ar
    40    25    20   ar
    41    15     8    1
    42    30    31    1
    43    18    19    1
@<TRIPOS>MOLECULE
*****
 39 43 0 0 0
SMALL
GASTEIGER

@<TRIPOS>ATOM
      1 C         -23.2393   51.2034   -8.3552 C.3     1  UNL1        0.1332
      2 N         -24.1751   51.2048   -9.4799 N.ar    1  UNL1       -0.2977
      3 C         -23.9008   51.3095  -10.8125 C.ar    1  UNL1        0.2018
      4 N         -25.0069   51.3276  -11.5999 N.ar    1  UNL1       -0.2135
      5 C         -26.0098   51.1946  -10.7151 C.ar    1  UNL1        0.0999
      6 C         -27.3796   51.1100  -10.9956 C.ar    1  UNL1        0.0282
      7 C         -28.2791   50.9254   -9.9143 C.ar    1  UNL1        0.0888
      8 C         -27.7385   50.8169   -8.6115 C.ar    1  UNL1        0.1401
      9 C         -26.3894   50.9175   -8.3635 C.ar    1  UNL1        0.0327
     10 C         -25.5178   51.1096   -9.4396 C.ar    1  UNL1        0.0789
     11 C         -26.1294   50.7731   -6.9048 C.3     1  UNL1        0.0709
     12 C         -27.5602   50.5191   -6.3246 C.3     1  UNL1        0.1375
     13 C         -27.6681   49.1184   -5.7068 C.3     1  UNL1        0.0439
     14 C         -27.9476   51.5892   -5.2952 C.3     1  UNL1        0.0439
     15 O         -28.4432   50.6046   -7.4451 O.3     1  UNL1       -0.4824
     16 C         -29.7392   50.8322  -10.1433 C.2     1  UNL1        0.2525
     17 O         -30.2800   51.5844  -10.9974 O.2     1  UNL1       -0.2697
     18 N         -30.5675   49.9360   -9.3855 N.am    1  UNL1       -0.2803
     19 H         -31.5494   50.2361   -9.1898 H       1  UNL1        0.1552
     20 C         -30.1552   48.6311   -8.9407 C.ar    1  UNL1        0.0505
     21 C         -30.5592   48.1760   -7.6783 C.ar    1  UNL1        0.0147
     22 C         -30.1803   46.9094   -7.2294 C.ar    1  UNL1        0.0012
     23 C         -29.3946   46.0837   -8.0367 C.ar    1  UNL1        0.0039
     24 C         -28.9732   46.5220   -9.3037 C.ar    1  UNL1        0.0726
     25 C         -29.3882   47.7842   -9.7627 C.ar    1  UNL1        0.0185
     26 C         -28.1695   45.6160  -10.2023 C.3     1  UNL1        0.4186
     27 F         -28.2887   46.0028  -11.5260 F       1  UNL1       -0.1659
     28 F         -28.6119   44.3088  -10.0926 F       1  UNL1       -0.1659
     29 F         -26.8383   45.6741   -9.8344 F       1  UNL1       -0.1659
     30 N         -22.5810   51.3683  -11.3724 N.pl3   1  UNL1       -0.2814
     31 H         -22.3634   50.7229  -12.1646 H       1  UNL1        0.1551
     32 C         -21.5272   52.2131  -10.8820 C.ar    1  UNL1        0.0889
     33 C         -20.2540   51.6565  -10.6736 C.ar    1  UNL1        0.1543
     34 F         -20.0283   50.3467  -10.9470 F       1  UNL1       -0.2028
     35 C         -19.2017   52.4505  -10.2102 C.ar    1  UNL1        0.0310
     36 C         -19.4128   53.8020   -9.9346 C.ar    1  UNL1        0.0033
     37 C         -20.6802   54.3612  -10.1088 C.ar    1  UNL1        0.0128
     38 C         -21.7435   53.5766  -10.5721 C.ar    1  UNL1        0.0733
     39 CL        -23.3349   54.3216  -10.6750 Cl      1  UNL1       -0.0809
@<TRIPOS>BOND
     1     1     2    1
     2     2     3   ar
     3     3    30    1
     4    30    32    1
     5    32    33   ar
     6    33    34    1
     7    33    35   ar
     8    35    36   ar
     9    36    37   ar
    10    37    38   ar
    11    38    39    1
    12     3     4   ar
    13     4     5   ar
    14     5     6   ar
    15     6     7   ar
    16     7    16    1
    17    16    17    2
    18    16    18   am
    19    18    20    1
    20    20    21   ar
    21    21    22   ar
    22    22    23   ar
    23    23    24   ar
    24    24    26    1
    25    26    27    1
    26    26    28    1
    27    26    29    1
    28    24    25   ar
    29     7     8   ar
    30     8     9   ar
    31     9    10   ar
    32     9    11    1
    33    11    12    1
    34    12    13    1
    35    12    14    1
    36    12    15    1
    37    10     2   ar
    38    38    32   ar
    39    10     5   ar
    40    25    20   ar
    41    15     8    1
    42    30    31    1
    43    18    19    1
@<TRIPOS>MOLECULE
*****
 39 43 0 0 0
SMALL
GASTEIGER

@<TRIPOS>ATOM
      1 C         -25.9465   51.3077  -11.2089 C.3     1  UNL1        0.1332
      2 N         -25.3486   50.9188   -9.9315 N.ar    1  UNL1       -0.2977
      3 C         -24.2827   51.4772   -9.2881 C.ar    1  UNL1        0.2018
      4 N         -23.9462   50.8447   -8.1345 N.ar    1  UNL1       -0.2135
      5 C         -24.8677   49.8706   -8.0442 C.ar    1  UNL1        0.0999
      6 C         -25.0125   48.9365   -7.0105 C.ar    1  UNL1        0.0282
      7 C         -26.0860   48.0118   -7.0828 C.ar    1  UNL1        0.0888
      8 C         -26.9642   48.0985   -8.1885 C.ar    1  UNL1        0.1401
      9 C         -26.7899   49.0175   -9.1969 C.ar    1  UNL1        0.0327
     10 C         -25.7209   49.9148   -9.1149 C.ar    1  UNL1        0.0789
     11 C         -27.8605   48.8586  -10.2190 C.3     1  UNL1        0.0709
     12 C         -28.7388   47.7104   -9.6204 C.3     1  UNL1        0.1375
     13 C         -30.1476   48.2116   -9.2748 C.3     1  UNL1        0.0439
     14 C         -28.8169   46.5083  -10.5711 C.3     1  UNL1        0.0439
     15 O         -28.0757   47.3149   -8.4176 O.3     1  UNL1       -0.4824
     16 C         -26.2917   46.9967   -6.0245 C.2     1  UNL1        0.2525
     17 O         -25.3587   46.1969   -5.7456 O.2     1  UNL1       -0.2697
     18 N         -27.5446   46.8679   -5.3338 N.am    1  UNL1       -0.2803
     19 H         -27.8263   45.9115   -5.0201 H       1  UNL1        0.1552
     20 C         -28.3979   47.9740   -4.9887 C.ar    1  UNL1        0.0505
     21 C         -29.3103   47.8350   -3.9341 C.ar    1  UNL1        0.0147
     22 C         -30.1412   48.8979   -3.5742 C.ar    1  UNL1        0.0012
     23 C         -30.0693   50.1107   -4.2632 C.ar    1  UNL1        0.0039
     24 C         -29.1658   50.2703   -5.3278 C.ar    1  UNL1        0.0726
     25 C         -28.3082   49.2074   -5.6610 C.ar    1  UNL1        0.0185
     26 C         -29.0450   51.5931   -6.0417 C.3     1  UNL1        0.4186
     27 F         -29.2292   51.4362   -7.4046 F       1  UNL1       -0.1659
     28 F         -27.7909   52.1419   -5.8354 F       1  UNL1       -0.1659
     29 F         -30.0033   52.4623   -5.5548 F       1  UNL1       -0.1659
     30 N         -23.5743   52.6406   -9.7393 N.pl3   1  UNL1       -0.2814
     31 H         -24.1245   53.5181   -9.8759 H       1  UNL1        0.1551
     32 C         -22.1754   52.6640  -10.0667 C.ar    1  UNL1        0.0889
     33 C         -21.2404   52.3439   -9.0678 C.ar    1  UNL1        0.1543
     34 F         -21.6602   52.0057   -7.8226 F       1  UNL1       -0.2028
     35 C         -19.8725   52.3434   -9.3530 C.ar    1  UNL1        0.0310
     36 C         -19.4234   52.6776  -10.6312 C.ar    1  UNL1        0.0033
     37 C         -20.3398   53.0265  -11.6250 C.ar    1  UNL1        0.0128
     38 C         -21.7133   53.0317  -11.3524 C.ar    1  UNL1        0.0733
     39 CL        -22.8043   53.5758  -12.6219 Cl      1  UNL1       -0.0809
@<TRIPOS>BOND
     1     1     2    1
     2     2     3   ar
     3     3    30    1
     4    30    32    1
     5    32    33   ar
     6    33    34    1
     7    33    35   ar
     8    35    36   ar
     9    36    37   ar
    10    37    38   ar
    11    38    39    1
    12     3     4   ar
    13     4     5   ar
    14     5     6   ar
    15     6     7   ar
    16     7    16    1
    17    16    17    2
    18    16    18   am
    19    18    20    1
    20    20    21   ar
    21    21    22   ar
    22    22    23   ar
    23    23    24   ar
    24    24    26    1
    25    26    27    1
    26    26    28    1
    27    26    29    1
    28    24    25   ar
    29     7     8   ar
    30     8     9   ar
    31     9    10   ar
    32     9    11    1
    33    11    12    1
    34    12    13    1
    35    12    14    1
    36    12    15    1
    37    10     2   ar
    38    38    32   ar
    39    10     5   ar
    40    25    20   ar
    41    15     8    1
    42    30    31    1
    43    18    19    1
@<TRIPOS>MOLECULE
*****
 39 43 0 0 0
SMALL
GASTEIGER

@<TRIPOS>ATOM
      1 C         -24.2786   50.6755   -8.0566 C.3     1  UNL1        0.1332
      2 N         -24.9463   50.9108   -9.3370 N.ar    1  UNL1       -0.2977
      3 C         -24.3876   51.0334  -10.5759 C.ar    1  UNL1        0.2018
      4 N         -25.2866   51.2988  -11.5585 N.ar    1  UNL1       -0.2135
      5 C         -26.4588   51.3079  -10.9012 C.ar    1  UNL1        0.0999
      6 C         -27.7343   51.4947  -11.4491 C.ar    1  UNL1        0.0282
      7 C         -28.8566   51.4234  -10.5843 C.ar    1  UNL1        0.0888
      8 C         -28.6249   51.1470   -9.2164 C.ar    1  UNL1        0.1401
      9 C         -27.3597   50.9815   -8.7028 C.ar    1  UNL1        0.0327
     10 C         -26.2641   51.0650   -9.5672 C.ar    1  UNL1        0.0789
     11 C         -27.4367   50.7138   -7.2403 C.3     1  UNL1        0.0709
     12 C         -28.9786   50.6999   -6.9747 C.3     1  UNL1        0.1375
     13 C         -29.4508   49.3129   -6.5180 C.3     1  UNL1        0.0439
     14 C         -29.3819   51.7671   -5.9483 C.3     1  UNL1        0.0439
     15 O         -29.5819   51.0078   -8.2332 O.3     1  UNL1       -0.4824
     16 C         -30.2313   51.6158  -11.1002 C.2     1  UNL1        0.2525
     17 O         -30.5351   52.7036  -11.6591 O.2     1  UNL1       -0.2697
     18 N         -31.2455   50.6108  -10.9423 N.am    1  UNL1       -0.2803
     19 H         -32.2326   50.9355  -10.8290 H       1  UNL1        0.1552
     20 C         -30.9993   49.1942  -10.9984 C.ar    1  UNL1        0.0505
     21 C         -31.0426   48.4419   -9.8168 C.ar    1  UNL1        0.0147
     22 C         -30.8173   47.0643   -9.8479 C.ar    1  UNL1        0.0012
     23 C         -30.5469   46.4235  -11.0591 C.ar    1  UNL1        0.0039
     24 C         -30.4928   47.1592  -12.2553 C.ar    1  UNL1        0.0726
     25 C         -30.7555   48.5398  -12.2205 C.ar    1  UNL1        0.0185
     26 C         -30.2540   46.4667  -13.5734 C.3     1  UNL1        0.4186
     27 F         -29.3225   45.4522  -13.4355 F       1  UNL1       -0.1659
     28 F         -29.7784   47.3651  -14.5132 F       1  UNL1       -0.1659
     29 F         -31.4434   45.9274  -14.0265 F       1  UNL1       -0.1659
     30 N         -22.9903   50.8753  -10.8609 N.pl3   1  UNL1       -0.2814
     31 H         -22.6496   49.9142  -11.0882 H       1  UNL1        0.1551
     32 C         -22.0236   51.9367  -10.8009 C.ar    1  UNL1        0.0889
     33 C         -20.6624   51.6228  -10.9522 C.ar    1  UNL1        0.1543
     34 F         -20.2772   50.3393  -11.1655 F       1  UNL1       -0.2028
     35 C         -19.6951   52.6304  -10.9128 C.ar    1  UNL1        0.0310
     36 C         -20.0741   53.9573  -10.7057 C.ar    1  UNL1        0.0033
     37 C         -21.4203   54.2796  -10.5241 C.ar    1  UNL1        0.0128
     38 C         -22.3997   53.2793  -10.5608 C.ar    1  UNL1        0.0733
     39 CL        -24.0647   53.7424  -10.2271 Cl      1  UNL1       -0.0809
@<TRIPOS>BOND
     1     1     2    1
     2     2     3   ar
     3     3    30    1
     4    30    32    1
     5    32    33   ar
     6    33    34    1
     7    33    35   ar
     8    35    36   ar
     9    36    37   ar
    10    37    38   ar
    11    38    39    1
    12     3     4   ar
    13     4     5   ar
    14     5     6   ar
    15     6     7   ar
    16     7    16    1
    17    16    17    2
    18    16    18   am
    19    18    20    1
    20    20    21   ar
    21    21    22   ar
    22    22    23   ar
    23    23    24   ar
    24    24    26    1
    25    26    27    1
    26    26    28    1
    27    26    29    1
    28    24    25   ar
    29     7     8   ar
    30     8     9   ar
    31     9    10   ar
    32     9    11    1
    33    11    12    1
    34    12    13    1
    35    12    14    1
    36    12    15    1
    37    10     2   ar
    38    38    32   ar
    39    10     5   ar
    40    25    20   ar
    41    15     8    1
    42    30    31    1
    43    18    19    1
@<TRIPOS>MOLECULE
*****
 39 43 0 0 0
SMALL
GASTEIGER

@<TRIPOS>ATOM
      1 C         -24.7946   51.1188  -11.8467 C.3     1  UNL1        0.1332
      2 N         -24.7606   51.2359  -10.3887 N.ar    1  UNL1       -0.2977
      3 C         -23.6748   51.3664   -9.5726 C.ar    1  UNL1        0.2018
      4 N         -23.9838   51.4013   -8.2508 N.ar    1  UNL1       -0.2135
      5 C         -25.3255   51.3219   -8.2520 C.ar    1  UNL1        0.0999
      6 C         -26.1759   51.3583   -7.1396 C.ar    1  UNL1        0.0282
      7 C         -27.5764   51.3051   -7.3595 C.ar    1  UNL1        0.0888
      8 C         -28.0370   51.2381   -8.6954 C.ar    1  UNL1        0.1401
      9 C         -27.1784   51.1897   -9.7687 C.ar    1  UNL1        0.0327
     10 C         -25.8009   51.2329   -9.5336 C.ar    1  UNL1        0.0789
     11 C         -27.9546   51.1140  -11.0368 C.3     1  UNL1        0.0709
     12 C         -29.4359   51.1742  -10.5364 C.3     1  UNL1        0.1375
     13 C         -30.1376   52.4464  -11.0309 C.3     1  UNL1        0.0439
     14 C         -30.2243   49.9284  -10.9623 C.3     1  UNL1        0.0439
     15 O         -29.3521   51.2115   -9.1102 O.3     1  UNL1       -0.4824
     16 C         -28.5289   51.3357   -6.2261 C.2     1  UNL1        0.2525
     17 O         -29.4681   52.1758   -6.2306 O.2     1  UNL1       -0.2697
     18 N         -28.3869   50.4609   -5.0955 N.am    1  UNL1       -0.2803
     19 H         -28.6963   50.8218   -4.1647 H       1  UNL1        0.1552
     20 C         -27.9128   49.1045   -5.1741 C.ar    1  UNL1        0.0505
     21 C         -28.1681   48.3533   -6.3293 C.ar    1  UNL1        0.0147
     22 C         -27.7091   47.0387   -6.4327 C.ar    1  UNL1        0.0012
     23 C         -26.9900   46.4608   -5.3841 C.ar    1  UNL1        0.0039
     24 C         -26.7276   47.1938   -4.2140 C.ar    1  UNL1        0.0726
     25 C         -27.1626   48.5280   -4.1320 C.ar    1  UNL1        0.0185
     26 C         -25.9067   46.5950   -3.0998 C.3     1  UNL1        0.4186
     27 F         -26.7204   46.1517   -2.0715 F       1  UNL1       -0.1659
     28 F         -25.0318   47.5356   -2.5836 F       1  UNL1       -0.1659
     29 F         -25.1810   45.5265   -3.5924 F       1  UNL1       -0.1659
     30 N         -22.3199   51.4877  -10.0292 N.pl3   1  UNL1       -0.2814
     31 H         -21.9260   50.6974  -10.5875 H       1  UNL1        0.1551
     32 C         -21.4558   52.5944   -9.7242 C.ar    1  UNL1        0.0889
     33 C         -20.7853   52.6103   -8.4895 C.ar    1  UNL1        0.1543
     34 F         -20.9452   51.5875   -7.6124 F       1  UNL1       -0.2028
     35 C         -19.9267   53.6636   -8.1639 C.ar    1  UNL1        0.0310
     36 C         -19.7414   54.7183   -9.0586 C.ar    1  UNL1        0.0033
     37 C         -20.4243   54.7300  -10.2763 C.ar    1  UNL1        0.0128
     38 C         -21.2881   53.6810  -10.6147 C.ar    1  UNL1        0.0733
     39 CL        -22.1904   53.8085  -12.1206 Cl      1  UNL1       -0.0809
@<TRIPOS>BOND
     1     1     2    1
     2     2     3   ar
     3     3    30    1
     4    30    32    1
     5    32    33   ar
     6    33    34    1
     7    33    35   ar
     8    35    36   ar
     9    36    37   ar
    10    37    38   ar
    11    38    39    1
    12     3     4   ar
    13     4     5   ar
    14     5     6   ar
    15     6     7   ar
    16     7    16    1
    17    16    17    2
    18    16    18   am
    19    18    20    1
    20    20    21   ar
    21    21    22   ar
    22    22    23   ar
    23    23    24   ar
    24    24    26    1
    25    26    27    1
    26    26    28    1
    27    26    29    1
    28    24    25   ar
    29     7     8   ar
    30     8     9   ar
    31     9    10   ar
    32     9    11    1
    33    11    12    1
    34    12    13    1
    35    12    14    1
    36    12    15    1
    37    10     2   ar
    38    38    32   ar
    39    10     5   ar
    40    25    20   ar
    41    15     8    1
    42    30    31    1
    43    18    19    1
@<TRIPOS>MOLECULE
*****
 39 43 0 0 0
SMALL
GASTEIGER

@<TRIPOS>ATOM
      1 C         -25.6363   52.6461   -9.8055 C.3     1  UNL1        0.1332
      2 N         -25.2847   51.3982   -9.1275 N.ar    1  UNL1       -0.2977
      3 C         -24.1175   51.0726   -8.5000 C.ar    1  UNL1        0.2018
      4 N         -24.0935   49.8064   -8.0101 N.ar    1  UNL1       -0.2135
      5 C         -25.3148   49.3391   -8.3205 C.ar    1  UNL1        0.0999
      6 C         -25.8438   48.0807   -8.0066 C.ar    1  UNL1        0.0282
      7 C         -27.1802   47.7967   -8.3887 C.ar    1  UNL1        0.0888
      8 C         -27.9120   48.8110   -9.0497 C.ar    1  UNL1        0.1401
      9 C         -27.3624   50.0337   -9.3577 C.ar    1  UNL1        0.0327
     10 C         -26.0408   50.2933   -8.9829 C.ar    1  UNL1        0.0789
     11 C         -28.3679   50.8806  -10.0563 C.3     1  UNL1        0.0709
     12 C         -29.6370   49.9655  -10.0705 C.3     1  UNL1        0.1375
     13 C         -30.7713   50.5764   -9.2365 C.3     1  UNL1        0.0439
     14 C         -30.1148   49.6890  -11.5023 C.3     1  UNL1        0.0439
     15 O         -29.2241   48.7369   -9.4682 O.3     1  UNL1       -0.4824
     16 C         -27.7970   46.4840   -8.0901 C.2     1  UNL1        0.2525
     17 O         -27.9052   45.6286   -9.0091 O.2     1  UNL1       -0.2697
     18 N         -28.3179   46.1721   -6.7882 N.am    1  UNL1       -0.2803
     19 H         -29.1453   45.5353   -6.7398 H       1  UNL1        0.1552
     20 C         -27.7350   46.6228   -5.5522 C.ar    1  UNL1        0.0505
     21 C         -28.0554   47.8975   -5.0660 C.ar    1  UNL1        0.0147
     22 C         -27.5104   48.3525   -3.8637 C.ar    1  UNL1        0.0012
     23 C         -26.6402   47.5392   -3.1342 C.ar    1  UNL1        0.0039
     24 C         -26.3005   46.2597   -3.6060 C.ar    1  UNL1        0.0726
     25 C         -26.8809   45.7954   -4.7992 C.ar    1  UNL1        0.0185
     26 C         -25.4039   45.3556   -2.7980 C.3     1  UNL1        0.4186
     27 F         -24.1926   45.9712   -2.5335 F       1  UNL1       -0.1659
     28 F         -25.1508   44.1824   -3.4880 F       1  UNL1       -0.1659
     29 F         -26.0246   45.0502   -1.6013 F       1  UNL1       -0.1659
     30 N         -23.0069   51.9646   -8.3271 N.pl3   1  UNL1       -0.2814
     31 H         -23.0438   52.6315   -7.5238 H       1  UNL1        0.1551
     32 C         -21.8783   52.0382   -9.2134 C.ar    1  UNL1        0.0889
     33 C         -22.0295   51.6018  -10.5404 C.ar    1  UNL1        0.1543
     34 F         -23.2274   51.1340  -10.9733 F       1  UNL1       -0.2028
     35 C         -20.9577   51.6707  -11.4344 C.ar    1  UNL1        0.0310
     36 C         -19.7217   52.1595  -11.0097 C.ar    1  UNL1        0.0033
     37 C         -19.5493   52.5687   -9.6861 C.ar    1  UNL1        0.0128
     38 C         -20.6149   52.5044   -8.7798 C.ar    1  UNL1        0.0733
     39 CL        -20.3007   52.9437   -7.1045 Cl      1  UNL1       -0.0809
@<TRIPOS>BOND
     1     1     2    1
     2     2     3   ar
     3     3    30    1
     4    30    32    1
     5    32    33   ar
     6    33    34    1
     7    33    35   ar
     8    35    36   ar
     9    36    37   ar
    10    37    38   ar
    11    38    39    1
    12     3     4   ar
    13     4     5   ar
    14     5     6   ar
    15     6     7   ar
    16     7    16    1
    17    16    17    2
    18    16    18   am
    19    18    20    1
    20    20    21   ar
    21    21    22   ar
    22    22    23   ar
    23    23    24   ar
    24    24    26    1
    25    26    27    1
    26    26    28    1
    27    26    29    1
    28    24    25   ar
    29     7     8   ar
    30     8     9   ar
    31     9    10   ar
    32     9    11    1
    33    11    12    1
    34    12    13    1
    35    12    14    1
    36    12    15    1
    37    10     2   ar
    38    38    32   ar
    39    10     5   ar
    40    25    20   ar
    41    15     8    1
    42    30    31    1
    43    18    19    1
@<TRIPOS>MOLECULE
*****
 39 43 0 0 0
SMALL
GASTEIGER

@<TRIPOS>ATOM
      1 C         -26.6324   52.4289   -8.2052 C.3     1  UNL1        0.1332
      2 N         -26.1378   51.0576   -8.0800 N.ar    1  UNL1       -0.2977
      3 C         -24.8456   50.6230   -8.0232 C.ar    1  UNL1        0.2018
      4 N         -24.7242   49.2722   -7.9559 N.ar    1  UNL1       -0.2135
      5 C         -26.0016   48.8547   -7.9369 C.ar    1  UNL1        0.0999
      6 C         -26.4585   47.5349   -7.8301 C.ar    1  UNL1        0.0282
      7 C         -27.8580   47.3077   -7.7824 C.ar    1  UNL1        0.0888
      8 C         -28.7154   48.4321   -7.8255 C.ar    1  UNL1        0.1401
      9 C         -28.2393   49.7169   -7.9446 C.ar    1  UNL1        0.0327
     10 C         -26.8575   49.9222   -8.0005 C.ar    1  UNL1        0.0789
     11 C         -29.3754   50.6787   -7.9729 C.3     1  UNL1        0.0709
     12 C         -30.6194   49.7454   -7.8007 C.3     1  UNL1        0.1375
     13 C         -31.3532   50.0355   -6.4843 C.3     1  UNL1        0.0439
     14 C         -31.5831   49.8681   -8.9887 C.3     1  UNL1        0.0439
     15 O         -30.0929   48.4173   -7.7590 O.3     1  UNL1       -0.4824
     16 C         -28.4055   45.9361   -7.6738 C.2     1  UNL1        0.2525
     17 O         -28.3769   45.1778   -8.6799 O.2     1  UNL1       -0.2697
     18 N         -29.0109   45.4575   -6.4622 N.am    1  UNL1       -0.2803
     19 H         -29.7934   44.7705   -6.5528 H       1  UNL1        0.1552
     20 C         -28.5662   45.8091   -5.1396 C.ar    1  UNL1        0.0505
     21 C         -29.3817   46.6127   -4.3315 C.ar    1  UNL1        0.0147
     22 C         -28.9761   46.9583   -3.0409 C.ar    1  UNL1        0.0012
     23 C         -27.7523   46.5047   -2.5436 C.ar    1  UNL1        0.0039
     24 C         -26.9159   45.7026   -3.3388 C.ar    1  UNL1        0.0726
     25 C         -27.3473   45.3301   -4.6239 C.ar    1  UNL1        0.0185
     26 C         -25.6180   45.1654   -2.7902 C.3     1  UNL1        0.4186
     27 F         -25.7820   44.7104   -1.4932 F       1  UNL1       -0.1659
     28 F         -24.6495   46.1546   -2.7819 F       1  UNL1       -0.1659
     29 F         -25.1869   44.1188   -3.5835 F       1  UNL1       -0.1659
     30 N         -23.6956   51.4809   -8.0048 N.pl3   1  UNL1       -0.2814
     31 H         -23.4936   51.9987   -7.1202 H       1  UNL1        0.1551
     32 C         -22.8390   51.7159   -9.1342 C.ar    1  UNL1        0.0889
     33 C         -21.5205   52.1453   -8.9069 C.ar    1  UNL1        0.1543
     34 F         -21.0677   52.3186   -7.6396 F       1  UNL1       -0.2028
     35 C         -20.6549   52.3711   -9.9803 C.ar    1  UNL1        0.0310
     36 C         -21.1001   52.1870  -11.2899 C.ar    1  UNL1        0.0033
     37 C         -22.4164   51.7893  -11.5312 C.ar    1  UNL1        0.0128
     38 C         -23.2944   51.5602  -10.4647 C.ar    1  UNL1        0.0733
     39 CL        -24.9652   51.1565  -10.8437 Cl      1  UNL1       -0.0809
@<TRIPOS>BOND
     1     1     2    1
     2     2     3   ar
     3     3    30    1
     4    30    32    1
     5    32    33   ar
     6    33    34    1
     7    33    35   ar
     8    35    36   ar
     9    36    37   ar
    10    37    38   ar
    11    38    39    1
    12     3     4   ar
    13     4     5   ar
    14     5     6   ar
    15     6     7   ar
    16     7    16    1
    17    16    17    2
    18    16    18   am
    19    18    20    1
    20    20    21   ar
    21    21    22   ar
    22    22    23   ar
    23    23    24   ar
    24    24    26    1
    25    26    27    1
    26    26    28    1
    27    26    29    1
    28    24    25   ar
    29     7     8   ar
    30     8     9   ar
    31     9    10   ar
    32     9    11    1
    33    11    12    1
    34    12    13    1
    35    12    14    1
    36    12    15    1
    37    10     2   ar
    38    38    32   ar
    39    10     5   ar
    40    25    20   ar
    41    15     8    1
    42    30    31    1
    43    18    19    1
@<TRIPOS>MOLECULE
*****
 39 43 0 0 0
SMALL
GASTEIGER

@<TRIPOS>ATOM
      1 C         -26.6606   52.6905   -9.1622 C.3     1  UNL1        0.1332
      2 N         -26.3284   51.2999   -9.4728 N.ar    1  UNL1       -0.2977
      3 C         -25.3368   50.8239  -10.2803 C.ar    1  UNL1        0.2018
      4 N         -25.3270   49.4710  -10.3967 N.ar    1  UNL1       -0.2135
      5 C         -26.3391   49.0916   -9.5979 C.ar    1  UNL1        0.0999
      6 C         -26.7474   47.7822   -9.3140 C.ar    1  UNL1        0.0282
      7 C         -27.8178   47.5924   -8.4026 C.ar    1  UNL1        0.0888
      8 C         -28.4011   48.7392   -7.8147 C.ar    1  UNL1        0.1401
      9 C         -27.9890   50.0148   -8.1225 C.ar    1  UNL1        0.0327
     10 C         -26.9394   50.1843   -9.0304 C.ar    1  UNL1        0.0789
     11 C         -28.7930   51.0067   -7.3569 C.3     1  UNL1        0.0709
     12 C         -29.7310   50.0970   -6.4962 C.3     1  UNL1        0.1375
     13 C         -29.4407   50.2602   -4.9981 C.3     1  UNL1        0.0439
     14 C         -31.2108   50.3795   -6.7883 C.3     1  UNL1        0.0439
     15 O         -29.4228   48.7576   -6.8884 O.3     1  UNL1       -0.4824
     16 C         -28.2997   46.2338   -8.0632 C.2     1  UNL1        0.2525
     17 O         -28.4382   45.3803   -8.9800 O.2     1  UNL1       -0.2697
     18 N         -28.6574   45.8722   -6.7198 N.am    1  UNL1       -0.2803
     19 H         -29.4249   45.1735   -6.5966 H       1  UNL1        0.1552
     20 C         -27.9846   46.3559   -5.5434 C.ar    1  UNL1        0.0505
     21 C         -26.5898   46.4911   -5.5561 C.ar    1  UNL1        0.0147
     22 C         -25.9160   46.9682   -4.4301 C.ar    1  UNL1        0.0012
     23 C         -26.6280   47.3158   -3.2799 C.ar    1  UNL1        0.0039
     24 C         -28.0266   47.1826   -3.2429 C.ar    1  UNL1        0.0726
     25 C         -28.7007   46.7350   -4.3924 C.ar    1  UNL1        0.0185
     26 C         -28.8070   47.6057   -2.0238 C.3     1  UNL1        0.4186
     27 F         -29.0880   46.5170   -1.2163 F       1  UNL1       -0.1659
     28 F         -30.0062   48.1893   -2.3950 F       1  UNL1       -0.1659
     29 F         -28.0638   48.5213   -1.3026 F       1  UNL1       -0.1659
     30 N         -24.3582   51.6402  -10.9397 N.pl3   1  UNL1       -0.2814
     31 H         -24.5400   51.9034  -11.9343 H       1  UNL1        0.1551
     32 C         -23.1245   52.0717  -10.3427 C.ar    1  UNL1        0.0889
     33 C         -22.8229   51.6559   -9.0348 C.ar    1  UNL1        0.1543
     34 F         -23.6802   50.8493   -8.3599 F       1  UNL1       -0.2028
     35 C         -21.6265   52.0450   -8.4268 C.ar    1  UNL1        0.0310
     36 C         -20.7278   52.8651   -9.1102 C.ar    1  UNL1        0.0033
     37 C         -21.0285   53.3098  -10.3990 C.ar    1  UNL1        0.0128
     38 C         -22.2242   52.9278  -11.0197 C.ar    1  UNL1        0.0733
     39 CL        -22.5836   53.6038  -12.6046 Cl      1  UNL1       -0.0809
@<TRIPOS>BOND
     1     1     2    1
     2     2     3   ar
     3     3    30    1
     4    30    32    1
     5    32    33   ar
     6    33    34    1
     7    33    35   ar
     8    35    36   ar
     9    36    37   ar
    10    37    38   ar
    11    38    39    1
    12     3     4   ar
    13     4     5   ar
    14     5     6   ar
    15     6     7   ar
    16     7    16    1
    17    16    17    2
    18    16    18   am
    19    18    20    1
    20    20    21   ar
    21    21    22   ar
    22    22    23   ar
    23    23    24   ar
    24    24    26    1
    25    26    27    1
    26    26    28    1
    27    26    29    1
    28    24    25   ar
    29     7     8   ar
    30     8     9   ar
    31     9    10   ar
    32     9    11    1
    33    11    12    1
    34    12    13    1
    35    12    14    1
    36    12    15    1
    37    10     2   ar
    38    38    32   ar
    39    10     5   ar
    40    25    20   ar
    41    15     8    1
    42    30    31    1
    43    18    19    1
@<TRIPOS>MOLECULE
*****
 39 43 0 0 0
SMALL
GASTEIGER

@<TRIPOS>ATOM
      1 C         -26.5054   50.5324   -3.7755 C.3     1  UNL1        0.1332
      2 N         -27.0961   49.3003   -4.2983 N.ar    1  UNL1       -0.2977
      3 C         -27.7274   48.3038   -3.6123 C.ar    1  UNL1        0.2018
      4 N         -28.1207   47.2649   -4.3933 N.ar    1  UNL1       -0.2135
      5 C         -27.7443   47.6526   -5.6239 C.ar    1  UNL1        0.0999
      6 C         -27.9484   46.9647   -6.8268 C.ar    1  UNL1        0.0282
      7 C         -27.5113   47.5708   -8.0327 C.ar    1  UNL1        0.0888
      8 C         -26.9100   48.8488   -7.9539 C.ar    1  UNL1        0.1401
      9 C         -26.7096   49.4957   -6.7568 C.ar    1  UNL1        0.0327
     10 C         -27.1372   48.8796   -5.5769 C.ar    1  UNL1        0.0789
     11 C         -26.0510   50.8096   -6.9939 C.3     1  UNL1        0.0709
     12 C         -25.9348   50.8588   -8.5535 C.3     1  UNL1        0.1375
     13 C         -26.7827   51.9968   -9.1378 C.3     1  UNL1        0.0439
     14 C         -24.4742   50.9940   -9.0044 C.3     1  UNL1        0.0439
     15 O         -26.4531   49.6079   -9.0109 O.3     1  UNL1       -0.4824
     16 C         -27.6938   46.8940   -9.3371 C.2     1  UNL1        0.2525
     17 O         -27.3376   45.6920   -9.4649 O.2     1  UNL1       -0.2697
     18 N         -28.2270   47.5838  -10.4787 N.am    1  UNL1       -0.2803
     19 H         -27.8792   47.2966  -11.4215 H       1  UNL1        0.1552
     20 C         -29.2526   48.5910  -10.4115 C.ar    1  UNL1        0.0505
     21 C         -30.3753   48.3753   -9.6010 C.ar    1  UNL1        0.0147
     22 C         -31.3783   49.3425   -9.5117 C.ar    1  UNL1        0.0012
     23 C         -31.2705   50.5353  -10.2303 C.ar    1  UNL1        0.0039
     24 C         -30.1561   50.7701  -11.0539 C.ar    1  UNL1        0.0726
     25 C         -29.1340   49.8067  -11.1109 C.ar    1  UNL1        0.0185
     26 C         -30.0070   52.0771  -11.7911 C.3     1  UNL1        0.4186
     27 F         -29.5676   53.0759  -10.9394 F       1  UNL1       -0.1659
     28 F         -31.2203   52.4707  -12.3291 F       1  UNL1       -0.1659
     29 F         -29.0897   51.9212  -12.8134 F       1  UNL1       -0.1659
     30 N         -27.9960   48.3259   -2.2029 N.pl3   1  UNL1       -0.2814
     31 H         -27.3638   48.8987   -1.5999 H       1  UNL1        0.1551
     32 C         -29.0384   47.5722   -1.5626 C.ar    1  UNL1        0.0889
     33 C         -30.1779   48.2509   -1.0985 C.ar    1  UNL1        0.1543
     34 F         -30.2905   49.5923   -1.2691 F       1  UNL1       -0.2028
     35 C         -31.2176   47.5493   -0.4827 C.ar    1  UNL1        0.0310
     36 C         -31.1239   46.1679   -0.3090 C.ar    1  UNL1        0.0033
     37 C         -29.9843   45.4852   -0.7386 C.ar    1  UNL1        0.0128
     38 C         -28.9349   46.1763   -1.3567 C.ar    1  UNL1        0.0733
     39 CL        -27.4884   45.2691   -1.7842 Cl      1  UNL1       -0.0809
@<TRIPOS>BOND
     1     1     2    1
     2     2     3   ar
     3     3    30    1
     4    30    32    1
     5    32    33   ar
     6    33    34    1
     7    33    35   ar
     8    35    36   ar
     9    36    37   ar
    10    37    38   ar
    11    38    39    1
    12     3     4   ar
    13     4     5   ar
    14     5     6   ar
    15     6     7   ar
    16     7    16    1
    17    16    17    2
    18    16    18   am
    19    18    20    1
    20    20    21   ar
    21    21    22   ar
    22    22    23   ar
    23    23    24   ar
    24    24    26    1
    25    26    27    1
    26    26    28    1
    27    26    29    1
    28    24    25   ar
    29     7     8   ar
    30     8     9   ar
    31     9    10   ar
    32     9    11    1
    33    11    12    1
    34    12    13    1
    35    12    14    1
    36    12    15    1
    37    10     2   ar
    38    38    32   ar
    39    10     5   ar
    40    25    20   ar
    41    15     8    1
    42    30    31    1
    43    18    19    1
