@<TRIPOS>MOLECULE
*****
 50 55 0 0 0
SMALL
GASTEIGER

@<TRIPOS>ATOM
      1 O         -27.1210   47.5254  -10.2593 O.2     1  UNL1       -0.2701
      2 C         -26.8752   48.1878   -9.2140 C.2     1  UNL1        0.2484
      3 N         -27.5493   47.8608   -7.9883 N.am    1  UNL1       -0.2945
      4 H         -27.1716   48.2395   -7.0902 H       1  UNL1        0.1501
      5 C         -25.8668   49.2707   -9.2624 C.ar    1  UNL1        0.0817
      6 C         -25.5948   49.9102  -10.4843 C.ar    1  UNL1        0.0194
      7 C         -24.6435   50.9333  -10.5588 C.ar    1  UNL1        0.0712
      8 CL        -24.3062   51.6734  -12.1178 Cl      1  UNL1       -0.0810
      9 C         -23.9571   51.3378   -9.4020 C.ar    1  UNL1        0.0609
     10 C         -24.2345   50.7133   -8.1797 C.ar    1  UNL1        0.0451
     11 C         -25.1843   49.6906   -8.1040 C.ar    1  UNL1        0.1457
     12 F         -25.4673   49.1529   -6.8906 F       1  UNL1       -0.2040
     13 N         -22.9847   52.3903   -9.4577 N.pl3   1  UNL1       -0.3033
     14 C         -21.5786   52.0959   -9.1742 C.3     1  UNL1        0.1123
     15 C         -20.9476   53.2591   -8.4041 C.3     1  UNL1        0.1136
     16 N         -21.2474   54.5603   -9.0295 N.pl3   1  UNL1       -0.2897
     17 C         -22.1797   54.6282  -10.1668 C.3     1  UNL1        0.1136
     18 C         -23.3907   53.7164   -9.9358 C.3     1  UNL1        0.1123
     19 C         -20.4993   55.7383   -8.6483 C.ar    1  UNL1        0.1318
     20 C         -19.6753   55.7469   -7.5087 C.ar    1  UNL1        0.0343
     21 C         -18.9675   56.9029   -7.1758 C.ar    1  UNL1        0.0083
     22 C         -19.0608   58.0467   -7.9817 C.ar    1  UNL1        0.0906
     23 C         -19.9151   58.0093   -9.0936 C.ar    1  UNL1        0.1041
     24 N         -20.5959   56.8729   -9.3974 N.ar    1  UNL1       -0.2292
     25 C         -18.3412   59.3164   -7.6043 C.3     1  UNL1        0.4200
     26 F         -19.2226   60.2327   -7.0571 F       1  UNL1       -0.1658
     27 F         -17.3600   59.0246   -6.6754 F       1  UNL1       -0.1658
     28 F         -17.7526   59.8926   -8.7167 F       1  UNL1       -0.1658
     29 C         -28.6249   46.8666   -7.9361 C.3     1  UNL1        0.1535
     30 C         -28.5452   46.0919   -6.6453 C.2     1  UNL1        0.2443
     31 O         -29.0340   44.9304   -6.5885 O.2     1  UNL1       -0.2730
     32 N         -27.8161   46.6349   -5.5318 N.am    1  UNL1       -0.2825
     33 H         -27.3147   47.5405   -5.6768 H       1  UNL1        0.1549
     34 C         -27.5137   45.8938   -4.3393 C.ar    1  UNL1        0.0535
     35 C         -28.3465   45.9472   -3.2100 C.ar    1  UNL1        0.0353
     36 C         -28.0085   45.2118   -2.0711 C.ar    1  UNL1        0.1002
     37 N         -26.8754   44.4607   -2.0547 N.ar    1  UNL1       -0.2422
     38 C         -26.0421   44.4058   -3.1272 C.ar    1  UNL1        0.1002
     39 C         -26.3407   45.1293   -4.2836 C.ar    1  UNL1        0.0353
     40 C         -29.9942   47.5596   -8.0712 C.3     1  UNL1        0.0569
     41 C         -29.9189   49.0142   -7.6979 C.ar    1  UNL1       -0.0017
     42 C         -29.7582   50.0819   -8.5758 C.ar    1  UNL1        0.0681
     43 N         -29.8718   51.2574   -7.9167 N.ar    1  UNL1       -0.3523
     44 C         -30.1173   50.9420   -6.6331 C.ar    1  UNL1        0.0563
     45 C         -30.3580   51.8222   -5.5789 C.ar    1  UNL1        0.0170
     46 C         -30.6438   51.2732   -4.3158 C.ar    1  UNL1        0.0015
     47 C         -30.6850   49.8728   -4.1368 C.ar    1  UNL1        0.0001
     48 C         -30.4393   49.0087   -5.2190 C.ar    1  UNL1        0.0012
     49 C         -30.1551   49.5821   -6.4594 C.ar    1  UNL1        0.0131
     50 H         -29.8115   52.2142   -8.3307 H       1  UNL1        0.1660
@<TRIPOS>BOND
     1     1     2    2
     2     2     3   am
     3     3    29    1
     4    29    40    1
     5    40    41    1
     6    41    42   ar
     7    42    43   ar
     8    43    44   ar
     9    44    45   ar
    10    45    46   ar
    11    46    47   ar
    12    47    48   ar
    13    48    49   ar
    14    29    30    1
    15    30    31    2
    16    30    32   am
    17    32    34    1
    18    34    35   ar
    19    35    36   ar
    20    36    37   ar
    21    37    38   ar
    22    38    39   ar
    23     2     5    1
    24     5     6   ar
    25     6     7   ar
    26     7     8    1
    27     7     9   ar
    28     9    13    1
    29    13    14    1
    30    14    15    1
    31    15    16    1
    32    16    19    1
    33    19    20   ar
    34    20    21   ar
    35    21    22   ar
    36    22    25    1
    37    25    26    1
    38    25    27    1
    39    25    28    1
    40    22    23   ar
    41    23    24   ar
    42    16    17    1
    43    17    18    1
    44     9    10   ar
    45    10    11   ar
    46    11    12    1
    47    49    41   ar
    48    39    34   ar
    49    11     5   ar
    50    49    44   ar
    51    18    13    1
    52    24    19   ar
    53     3     4    1
    54    43    50    1
    55    32    33    1
@<TRIPOS>MOLECULE
*****
 50 55 0 0 0
SMALL
GASTEIGER

@<TRIPOS>ATOM
      1 O         -26.9863   47.3700  -10.1107 O.2     1  UNL1       -0.2701
      2 C         -26.8280   48.1306   -9.1165 C.2     1  UNL1        0.2484
      3 N         -27.5763   47.8952   -7.9130 N.am    1  UNL1       -0.2945
      4 H         -27.2697   48.3639   -7.0305 H       1  UNL1        0.1501
      5 C         -25.8443   49.2340   -9.1973 C.ar    1  UNL1        0.0817
      6 C         -25.6213   49.8748  -10.4284 C.ar    1  UNL1        0.0194
      7 C         -24.6942   50.9173  -10.5336 C.ar    1  UNL1        0.0712
      8 CL        -24.4179   51.6588  -12.1038 Cl      1  UNL1       -0.0810
      9 C         -23.9830   51.3400   -9.3984 C.ar    1  UNL1        0.0609
     10 C         -24.2117   50.7141   -8.1668 C.ar    1  UNL1        0.0451
     11 C         -25.1373   49.6721   -8.0605 C.ar    1  UNL1        0.1457
     12 F         -25.3736   49.1328   -6.8378 F       1  UNL1       -0.2040
     13 N         -23.0349   52.4123   -9.4854 N.pl3   1  UNL1       -0.3033
     14 C         -21.6184   52.1527   -9.2201 C.3     1  UNL1        0.1123
     15 C         -21.0010   53.3410   -8.4777 C.3     1  UNL1        0.1136
     16 N         -21.3390   54.6257   -9.1175 N.pl3   1  UNL1       -0.2897
     17 C         -22.2904   54.6561  -10.2407 C.3     1  UNL1        0.1136
     18 C         -23.4773   53.7218   -9.9766 C.3     1  UNL1        0.1123
     19 C         -20.6110   55.8253   -8.7660 C.ar    1  UNL1        0.1318
     20 C         -20.5428   56.9245   -9.6404 C.ar    1  UNL1        0.0343
     21 C         -19.8323   58.0652   -9.2634 C.ar    1  UNL1        0.0083
     22 C         -19.2033   58.1256   -8.0115 C.ar    1  UNL1        0.0906
     23 C         -19.2690   56.9987   -7.1788 C.ar    1  UNL1        0.1041
     24 N         -19.9652   55.8983   -7.5679 N.ar    1  UNL1       -0.2292
     25 C         -18.3910   59.3317   -7.6143 C.3     1  UNL1        0.4200
     26 F         -19.2050   60.3121   -7.0737 F       1  UNL1       -0.1658
     27 F         -17.4504   58.9572   -6.6730 F       1  UNL1       -0.1658
     28 F         -17.7413   59.8659   -8.7137 F       1  UNL1       -0.1658
     29 C         -28.6294   46.8783   -7.8410 C.3     1  UNL1        0.1535
     30 C         -28.4784   46.0722   -6.5760 C.2     1  UNL1        0.2443
     31 O         -28.9561   44.9060   -6.5237 O.2     1  UNL1       -0.2730
     32 N         -27.6967   46.5930   -5.4878 N.am    1  UNL1       -0.2825
     33 H         -27.2093   47.5059   -5.6353 H       1  UNL1        0.1549
     34 C         -27.3286   45.8248   -4.3315 C.ar    1  UNL1        0.0535
     35 C         -26.2010   44.9881   -4.3339 C.ar    1  UNL1        0.0353
     36 C         -25.8851   44.2566   -3.1861 C.ar    1  UNL1        0.1002
     37 N         -26.6718   44.3467   -2.0811 N.ar    1  UNL1       -0.2422
     38 C         -27.7792   45.1346   -2.0578 C.ar    1  UNL1        0.1002
     39 C         -28.1329   45.8786   -3.1853 C.ar    1  UNL1        0.0353
     40 C         -30.0163   47.5467   -7.8982 C.3     1  UNL1        0.0569
     41 C         -29.9226   48.9823   -8.3354 C.ar    1  UNL1       -0.0017
     42 C         -29.6714   50.0778   -7.5148 C.ar    1  UNL1        0.0681
     43 N         -29.5171   51.1984   -8.2561 N.ar    1  UNL1       -0.3523
     44 C         -29.6540   50.8182   -9.5382 C.ar    1  UNL1        0.0563
     45 C         -29.5278   51.6175  -10.6736 C.ar    1  UNL1        0.0170
     46 C         -29.6626   51.0007  -11.9306 C.ar    1  UNL1        0.0015
     47 C         -29.9149   49.6142  -12.0240 C.ar    1  UNL1        0.0001
     48 C         -30.0361   48.8321  -10.8613 C.ar    1  UNL1        0.0012
     49 C         -29.9011   49.4721   -9.6283 C.ar    1  UNL1        0.0131
     50 H         -29.3038   52.1573   -7.9019 H       1  UNL1        0.1660
@<TRIPOS>BOND
     1     1     2    2
     2     2     3   am
     3     3    29    1
     4    29    40    1
     5    40    41    1
     6    41    42   ar
     7    42    43   ar
     8    43    44   ar
     9    44    45   ar
    10    45    46   ar
    11    46    47   ar
    12    47    48   ar
    13    48    49   ar
    14    29    30    1
    15    30    31    2
    16    30    32   am
    17    32    34    1
    18    34    35   ar
    19    35    36   ar
    20    36    37   ar
    21    37    38   ar
    22    38    39   ar
    23     2     5    1
    24     5     6   ar
    25     6     7   ar
    26     7     8    1
    27     7     9   ar
    28     9    13    1
    29    13    14    1
    30    14    15    1
    31    15    16    1
    32    16    19    1
    33    19    20   ar
    34    20    21   ar
    35    21    22   ar
    36    22    25    1
    37    25    26    1
    38    25    27    1
    39    25    28    1
    40    22    23   ar
    41    23    24   ar
    42    16    17    1
    43    17    18    1
    44     9    10   ar
    45    10    11   ar
    46    11    12    1
    47    49    41   ar
    48    39    34   ar
    49    11     5   ar
    50    49    44   ar
    51    18    13    1
    52    24    19   ar
    53     3     4    1
    54    43    50    1
    55    32    33    1
@<TRIPOS>MOLECULE
*****
 50 55 0 0 0
SMALL
GASTEIGER

@<TRIPOS>ATOM
      1 O         -26.6940   47.0468   -9.1716 O.2     1  UNL1       -0.2701
      2 C         -26.9936   48.2175   -9.5343 C.2     1  UNL1        0.2484
      3 N         -28.3419   48.5182   -9.9283 N.am    1  UNL1       -0.2945
      4 H         -28.6365   49.5193   -9.9898 H       1  UNL1        0.1501
      5 C         -25.9540   49.2714   -9.5129 C.ar    1  UNL1        0.0817
      6 C         -25.6337   49.9530  -10.6998 C.ar    1  UNL1        0.0194
      7 C         -24.6523   50.9500  -10.7085 C.ar    1  UNL1        0.0712
      8 CL        -24.2556   51.7441  -12.2263 Cl      1  UNL1       -0.0810
      9 C         -23.9837   51.2857   -9.5197 C.ar    1  UNL1        0.0609
     10 C         -24.3090   50.6192   -8.3318 C.ar    1  UNL1        0.0451
     11 C         -25.2889   49.6225   -8.3220 C.ar    1  UNL1        0.1457
     12 F         -25.6171   49.0432   -7.1394 F       1  UNL1       -0.2040
     13 N         -22.9808   52.3106   -9.5078 N.pl3   1  UNL1       -0.3033
     14 C         -21.6057   51.9770   -9.1310 C.3     1  UNL1        0.1123
     15 C         -20.9958   53.1221   -8.3179 C.3     1  UNL1        0.1136
     16 N         -21.2165   54.4312   -8.9593 N.pl3   1  UNL1       -0.2897
     17 C         -22.0680   54.5253  -10.1567 C.3     1  UNL1        0.1136
     18 C         -23.3166   53.6476  -10.0094 C.3     1  UNL1        0.1123
     19 C         -20.4633   55.5878   -8.5264 C.ar    1  UNL1        0.1318
     20 C         -19.5851   55.5227   -7.4299 C.ar    1  UNL1        0.0343
     21 C         -18.8741   56.6603   -7.0448 C.ar    1  UNL1        0.0083
     22 C         -19.0184   57.8599   -7.7567 C.ar    1  UNL1        0.0906
     23 C         -19.9253   57.8938   -8.8263 C.ar    1  UNL1        0.1041
     24 N         -20.6080   56.7739   -9.1822 N.ar    1  UNL1       -0.2292
     25 C         -18.2948   59.1078   -7.3192 C.3     1  UNL1        0.4200
     26 F         -19.1380   59.9323   -6.5945 F       1  UNL1       -0.1658
     27 F         -17.2183   58.7556   -6.5268 F       1  UNL1       -0.1658
     28 F         -17.8351   59.8152   -8.4166 F       1  UNL1       -0.1658
     29 C         -29.3628   47.4746  -10.0589 C.3     1  UNL1        0.1535
     30 C         -29.9720   47.1817   -8.7115 C.2     1  UNL1        0.2443
     31 O         -31.2054   47.3774   -8.5333 O.2     1  UNL1       -0.2730
     32 N         -29.1702   46.5776   -7.6826 N.am    1  UNL1       -0.2825
     33 H         -28.1896   46.3107   -7.9272 H       1  UNL1        0.1549
     34 C         -29.7037   46.0788   -6.4459 C.ar    1  UNL1        0.0535
     35 C         -29.8385   44.7019   -6.2062 C.ar    1  UNL1        0.0353
     36 C         -30.3669   44.2644   -4.9890 C.ar    1  UNL1        0.1002
     37 N         -30.7579   45.1670   -4.0506 N.ar    1  UNL1       -0.2422
     38 C         -30.6557   46.5055   -4.2640 C.ar    1  UNL1        0.1002
     39 C         -30.1372   46.9848   -5.4687 C.ar    1  UNL1        0.0353
     40 C         -30.4461   47.9155  -11.0618 C.3     1  UNL1        0.0569
     41 C         -30.2061   47.3355  -12.4281 C.ar    1  UNL1       -0.0017
     42 C         -29.9337   46.0024  -12.7200 C.ar    1  UNL1        0.0681
     43 N         -29.9105   45.8064  -14.0580 N.ar    1  UNL1       -0.3523
     44 C         -30.1802   47.0004  -14.6137 C.ar    1  UNL1        0.0563
     45 C         -30.3133   47.2888  -15.9713 C.ar    1  UNL1        0.0170
     46 C         -30.6494   48.6057  -16.3342 C.ar    1  UNL1        0.0015
     47 C         -30.8453   49.5931  -15.3436 C.ar    1  UNL1        0.0001
     48 C         -30.7056   49.2731  -13.9811 C.ar    1  UNL1        0.0012
     49 C         -30.3683   47.9595  -13.6514 C.ar    1  UNL1        0.0131
     50 H         -29.7468   44.9023  -14.5543 H       1  UNL1        0.1660
@<TRIPOS>BOND
     1     1     2    2
     2     2     3   am
     3     3    29    1
     4    29    40    1
     5    40    41    1
     6    41    42   ar
     7    42    43   ar
     8    43    44   ar
     9    44    45   ar
    10    45    46   ar
    11    46    47   ar
    12    47    48   ar
    13    48    49   ar
    14    29    30    1
    15    30    31    2
    16    30    32   am
    17    32    34    1
    18    34    35   ar
    19    35    36   ar
    20    36    37   ar
    21    37    38   ar
    22    38    39   ar
    23     2     5    1
    24     5     6   ar
    25     6     7   ar
    26     7     8    1
    27     7     9   ar
    28     9    13    1
    29    13    14    1
    30    14    15    1
    31    15    16    1
    32    16    19    1
    33    19    20   ar
    34    20    21   ar
    35    21    22   ar
    36    22    25    1
    37    25    26    1
    38    25    27    1
    39    25    28    1
    40    22    23   ar
    41    23    24   ar
    42    16    17    1
    43    17    18    1
    44     9    10   ar
    45    10    11   ar
    46    11    12    1
    47    49    41   ar
    48    39    34   ar
    49    11     5   ar
    50    49    44   ar
    51    18    13    1
    52    24    19   ar
    53     3     4    1
    54    43    50    1
    55    32    33    1
@<TRIPOS>MOLECULE
*****
 50 55 0 0 0
SMALL
GASTEIGER

@<TRIPOS>ATOM
      1 O         -26.8038   47.2515  -10.0945 O.2     1  UNL1       -0.2701
      2 C         -26.8330   48.1586   -9.2180 C.2     1  UNL1        0.2484
      3 N         -27.8104   48.1024   -8.1667 N.am    1  UNL1       -0.2945
      4 H         -27.6774   48.7059   -7.3236 H       1  UNL1        0.1501
      5 C         -25.8328   49.2489   -9.2696 C.ar    1  UNL1        0.0817
      6 C         -25.5855   49.9053  -10.4878 C.ar    1  UNL1        0.0194
      7 C         -24.6425   50.9358  -10.5654 C.ar    1  UNL1        0.0712
      8 CL        -24.3363   51.6975  -12.1205 Cl      1  UNL1       -0.0810
      9 C         -23.9395   51.3308   -9.4153 C.ar    1  UNL1        0.0609
     10 C         -24.1923   50.6893   -8.1964 C.ar    1  UNL1        0.0451
     11 C         -25.1338   49.6592   -8.1177 C.ar    1  UNL1        0.1457
     12 F         -25.3928   49.1045   -6.9065 F       1  UNL1       -0.2040
     13 N         -22.9752   52.3905   -9.4740 N.pl3   1  UNL1       -0.3033
     14 C         -21.5752   52.1179   -9.1427 C.3     1  UNL1        0.1123
     15 C         -20.9767   53.3088   -8.3891 C.3     1  UNL1        0.1136
     16 N         -21.2700   54.5885   -9.0600 N.pl3   1  UNL1       -0.2897
     17 C         -22.1703   54.6148  -10.2247 C.3     1  UNL1        0.1136
     18 C         -23.3792   53.6984  -10.0015 C.3     1  UNL1        0.1123
     19 C         -20.5435   55.7841   -8.6922 C.ar    1  UNL1        0.1318
     20 C         -20.4811   56.8972   -9.5493 C.ar    1  UNL1        0.0343
     21 C         -19.7719   58.0335   -9.1568 C.ar    1  UNL1        0.0083
     22 C         -19.1384   58.0755   -7.9065 C.ar    1  UNL1        0.0906
     23 C         -19.1984   56.9354   -7.0915 C.ar    1  UNL1        0.1041
     24 N         -19.8935   55.8397   -7.4954 N.ar    1  UNL1       -0.2292
     25 C         -18.3274   59.2771   -7.4932 C.3     1  UNL1        0.4200
     26 F         -17.3036   58.9048   -6.6393 F       1  UNL1       -0.1658
     27 F         -17.7834   59.8680   -8.6183 F       1  UNL1       -0.1658
     28 F         -19.1232   60.2011   -6.8383 F       1  UNL1       -0.1658
     29 C         -28.8752   47.0954   -8.1507 C.3     1  UNL1        0.1535
     30 C         -28.8548   46.3481   -6.8416 C.2     1  UNL1        0.2443
     31 O         -29.5555   45.3073   -6.7113 O.2     1  UNL1       -0.2730
     32 N         -27.9552   46.7607   -5.7991 N.am    1  UNL1       -0.2825
     33 H         -27.2985   47.5463   -6.0092 H       1  UNL1        0.1549
     34 C         -27.7176   46.0003   -4.6041 C.ar    1  UNL1        0.0535
     35 C         -28.6338   45.9985   -3.5400 C.ar    1  UNL1        0.0353
     36 C         -28.3570   45.2463   -2.3956 C.ar    1  UNL1        0.1002
     37 N         -27.2033   44.5322   -2.3104 N.ar    1  UNL1       -0.2422
     38 C         -26.2907   44.5310   -3.3178 C.ar    1  UNL1        0.1002
     39 C         -26.5266   45.2730   -4.4770 C.ar    1  UNL1        0.0353
     40 C         -30.2436   47.7675   -8.3725 C.3     1  UNL1        0.0569
     41 C         -30.3944   48.2667   -9.7828 C.ar    1  UNL1       -0.0017
     42 C         -31.0965   47.6389  -10.8074 C.ar    1  UNL1        0.0681
     43 N         -31.1423   48.4303  -11.9032 N.ar    1  UNL1       -0.3523
     44 C         -30.4882   49.5580  -11.5754 C.ar    1  UNL1        0.0563
     45 C         -30.3138   50.6929  -12.3664 C.ar    1  UNL1        0.0170
     46 C         -29.6338   51.7885  -11.8041 C.ar    1  UNL1        0.0015
     47 C         -29.1512   51.7273  -10.4783 C.ar    1  UNL1        0.0001
     48 C         -29.3428   50.5696   -9.7029 C.ar    1  UNL1        0.0012
     49 C         -30.0179   49.4974  -10.2884 C.ar    1  UNL1        0.0131
     50 H         -31.6177   48.2172  -12.8082 H       1  UNL1        0.1660
@<TRIPOS>BOND
     1     1     2    2
     2     2     3   am
     3     3    29    1
     4    29    40    1
     5    40    41    1
     6    41    42   ar
     7    42    43   ar
     8    43    44   ar
     9    44    45   ar
    10    45    46   ar
    11    46    47   ar
    12    47    48   ar
    13    48    49   ar
    14    29    30    1
    15    30    31    2
    16    30    32   am
    17    32    34    1
    18    34    35   ar
    19    35    36   ar
    20    36    37   ar
    21    37    38   ar
    22    38    39   ar
    23     2     5    1
    24     5     6   ar
    25     6     7   ar
    26     7     8    1
    27     7     9   ar
    28     9    13    1
    29    13    14    1
    30    14    15    1
    31    15    16    1
    32    16    19    1
    33    19    20   ar
    34    20    21   ar
    35    21    22   ar
    36    22    25    1
    37    25    26    1
    38    25    27    1
    39    25    28    1
    40    22    23   ar
    41    23    24   ar
    42    16    17    1
    43    17    18    1
    44     9    10   ar
    45    10    11   ar
    46    11    12    1
    47    49    41   ar
    48    39    34   ar
    49    11     5   ar
    50    49    44   ar
    51    18    13    1
    52    24    19   ar
    53     3     4    1
    54    43    50    1
    55    32    33    1
@<TRIPOS>MOLECULE
*****
 50 55 0 0 0
SMALL
GASTEIGER

@<TRIPOS>ATOM
      1 O         -27.0634   47.2428  -10.3562 O.2     1  UNL1       -0.2701
      2 C         -27.0887   48.1270   -9.4566 C.2     1  UNL1        0.2484
      3 N         -28.0915   48.0701   -8.4295 N.am    1  UNL1       -0.2945
      4 H         -27.9622   48.6474   -7.5678 H       1  UNL1        0.1501
      5 C         -26.0587   49.1905   -9.4562 C.ar    1  UNL1        0.0817
      6 C         -25.7695   49.8755  -10.6491 C.ar    1  UNL1        0.0194
      7 C         -24.7977   50.8815  -10.6776 C.ar    1  UNL1        0.0712
      8 CL        -24.4400   51.6800  -12.2029 Cl      1  UNL1       -0.0810
      9 C         -24.1075   51.2229   -9.5028 C.ar    1  UNL1        0.0609
     10 C         -24.4018   50.5529   -8.3089 C.ar    1  UNL1        0.0451
     11 C         -25.3721   49.5472   -8.2792 C.ar    1  UNL1        0.1457
     12 F         -25.6702   48.9644   -7.0904 F       1  UNL1       -0.2040
     13 N         -23.1141   52.2569   -9.5112 N.pl3   1  UNL1       -0.3033
     14 C         -21.7167   51.9241   -9.2272 C.3     1  UNL1        0.1123
     15 C         -21.0699   53.0451   -8.4090 C.3     1  UNL1        0.1136
     16 N         -21.3383   54.3743   -8.9879 N.pl3   1  UNL1       -0.2897
     17 C         -22.2588   54.5031  -10.1296 C.3     1  UNL1        0.1136
     18 C         -23.4895   53.6077   -9.9428 C.3     1  UNL1        0.1123
     19 C         -20.5706   55.5221   -8.5568 C.ar    1  UNL1        0.1318
     20 C         -19.7360   55.4637   -7.4265 C.ar    1  UNL1        0.0343
     21 C         -19.0093   56.5924   -7.0444 C.ar    1  UNL1        0.0083
     22 C         -19.0943   57.7756   -7.7922 C.ar    1  UNL1        0.0906
     23 C         -19.9595   57.8043   -8.8960 C.ar    1  UNL1        0.1041
     24 N         -20.6585   56.6934   -9.2484 N.ar    1  UNL1       -0.2292
     25 C         -18.3540   59.0156   -7.3602 C.3     1  UNL1        0.4200
     26 F         -17.2373   58.6821   -6.6134 F       1  UNL1       -0.1658
     27 F         -17.9532   59.7199   -8.4802 F       1  UNL1       -0.1658
     28 F         -19.1674   59.8245   -6.5856 F       1  UNL1       -0.1658
     29 C         -29.1831   47.0926   -8.4648 C.3     1  UNL1        0.1535
     30 C         -29.1987   46.2949   -7.1857 C.2     1  UNL1        0.2443
     31 O         -29.8529   45.2176   -7.1353 O.2     1  UNL1       -0.2730
     32 N         -28.3803   46.7073   -6.0783 N.am    1  UNL1       -0.2825
     33 H         -27.7528   47.5311   -6.2204 H       1  UNL1        0.1549
     34 C         -28.1723   45.9114   -4.9010 C.ar    1  UNL1        0.0535
     35 C         -29.2175   45.6399   -4.0035 C.ar    1  UNL1        0.0353
     36 C         -28.9657   44.8640   -2.8692 C.ar    1  UNL1        0.1002
     37 N         -27.7149   44.3869   -2.6322 N.ar    1  UNL1       -0.2422
     38 C         -26.6811   44.6501   -3.4746 C.ar    1  UNL1        0.1002
     39 C         -26.8890   45.4253   -4.6172 C.ar    1  UNL1        0.0353
     40 C         -30.5302   47.8099   -8.6754 C.3     1  UNL1        0.0569
     41 C         -30.6258   48.4193  -10.0467 C.ar    1  UNL1       -0.0017
     42 C         -30.7174   49.7767  -10.3394 C.ar    1  UNL1        0.0681
     43 N         -30.6466   49.9783  -11.6749 N.ar    1  UNL1       -0.3523
     44 C         -30.4964   48.7620  -12.2273 C.ar    1  UNL1        0.0563
     45 C         -30.3289   48.4638  -13.5790 C.ar    1  UNL1        0.0170
     46 C         -30.1380   47.1168  -13.9367 C.ar    1  UNL1        0.0015
     47 C         -30.1164   46.1096  -12.9469 C.ar    1  UNL1        0.0001
     48 C         -30.2868   46.4400  -11.5904 C.ar    1  UNL1        0.0012
     49 C         -30.4775   47.7840  -11.2659 C.ar    1  UNL1        0.0131
     50 H         -30.6723   50.8972  -12.1703 H       1  UNL1        0.1660
@<TRIPOS>BOND
     1     1     2    2
     2     2     3   am
     3     3    29    1
     4    29    40    1
     5    40    41    1
     6    41    42   ar
     7    42    43   ar
     8    43    44   ar
     9    44    45   ar
    10    45    46   ar
    11    46    47   ar
    12    47    48   ar
    13    48    49   ar
    14    29    30    1
    15    30    31    2
    16    30    32   am
    17    32    34    1
    18    34    35   ar
    19    35    36   ar
    20    36    37   ar
    21    37    38   ar
    22    38    39   ar
    23     2     5    1
    24     5     6   ar
    25     6     7   ar
    26     7     8    1
    27     7     9   ar
    28     9    13    1
    29    13    14    1
    30    14    15    1
    31    15    16    1
    32    16    19    1
    33    19    20   ar
    34    20    21   ar
    35    21    22   ar
    36    22    25    1
    37    25    26    1
    38    25    27    1
    39    25    28    1
    40    22    23   ar
    41    23    24   ar
    42    16    17    1
    43    17    18    1
    44     9    10   ar
    45    10    11   ar
    46    11    12    1
    47    49    41   ar
    48    39    34   ar
    49    11     5   ar
    50    49    44   ar
    51    18    13    1
    52    24    19   ar
    53     3     4    1
    54    43    50    1
    55    32    33    1
@<TRIPOS>MOLECULE
*****
 50 55 0 0 0
SMALL
GASTEIGER

@<TRIPOS>ATOM
      1 O         -27.0525   47.1615  -10.1735 O.2     1  UNL1       -0.2701
      2 C         -27.2213   48.2109   -9.4938 C.2     1  UNL1        0.2484
      3 N         -28.4320   48.3850   -8.7404 N.am    1  UNL1       -0.2945
      4 H         -28.4625   49.1232   -8.0010 H       1  UNL1        0.1501
      5 C         -26.1490   49.2310   -9.4571 C.ar    1  UNL1        0.0817
      6 C         -25.8068   49.9195  -10.6339 C.ar    1  UNL1        0.0194
      7 C         -24.7944   50.8850  -10.6281 C.ar    1  UNL1        0.0712
      8 CL        -24.3722   51.6883  -12.1342 Cl      1  UNL1       -0.0810
      9 C         -24.1159   51.1820   -9.4346 C.ar    1  UNL1        0.0609
     10 C         -24.4626   50.5088   -8.2566 C.ar    1  UNL1        0.0451
     11 C         -25.4735   49.5436   -8.2612 C.ar    1  UNL1        0.1457
     12 F         -25.8203   48.9577   -7.0872 F       1  UNL1       -0.2040
     13 N         -23.0812   52.1744   -9.4078 N.pl3   1  UNL1       -0.3033
     14 C         -21.7281   51.8019   -8.9898 C.3     1  UNL1        0.1123
     15 C         -21.1036   52.9374   -8.1742 C.3     1  UNL1        0.1136
     16 N         -21.2647   54.2445   -8.8371 N.pl3   1  UNL1       -0.2897
     17 C         -22.0804   54.3503  -10.0582 C.3     1  UNL1        0.1136
     18 C         -23.3602   53.5149   -9.9343 C.3     1  UNL1        0.1123
     19 C         -20.4864   55.3819   -8.3978 C.ar    1  UNL1        0.1318
     20 C         -19.5920   55.2852   -7.3169 C.ar    1  UNL1        0.0343
     21 C         -18.8571   56.4051   -6.9250 C.ar    1  UNL1        0.0083
     22 C         -18.9936   57.6183   -7.6151 C.ar    1  UNL1        0.0906
     23 C         -19.9167   57.6838   -8.6692 C.ar    1  UNL1        0.1041
     24 N         -20.6227   56.5807   -9.0320 N.ar    1  UNL1       -0.2292
     25 C         -18.2433   58.8474   -7.1693 C.3     1  UNL1        0.4200
     26 F         -19.0162   59.6047   -6.3060 F       1  UNL1       -0.1658
     27 F         -17.0858   58.4632   -6.5186 F       1  UNL1       -0.1658
     28 F         -17.9092   59.6361   -8.2566 F       1  UNL1       -0.1658
     29 C         -29.5505   47.4431   -8.8415 C.3     1  UNL1        0.1535
     30 C         -30.1818   47.5413  -10.2070 C.2     1  UNL1        0.2443
     31 O         -31.1452   48.3351  -10.3886 O.2     1  UNL1       -0.2730
     32 N         -29.6101   46.8189  -11.3105 N.am    1  UNL1       -0.2825
     33 H         -28.7303   46.2827  -11.1342 H       1  UNL1        0.1549
     34 C         -30.0112   47.0029  -12.6772 C.ar    1  UNL1        0.0535
     35 C         -30.4250   48.2551  -13.1592 C.ar    1  UNL1        0.0353
     36 C         -30.8102   48.3842  -14.4960 C.ar    1  UNL1        0.1002
     37 N         -30.7951   47.3019  -15.3185 N.ar    1  UNL1       -0.2422
     38 C         -30.4167   46.0746  -14.8733 C.ar    1  UNL1        0.1002
     39 C         -30.0287   45.9014  -13.5432 C.ar    1  UNL1        0.0353
     40 C         -29.0607   46.0078   -8.5703 C.3     1  UNL1        0.0569
     41 C         -29.3316   45.5880   -7.1521 C.ar    1  UNL1       -0.0017
     42 C         -30.3051   44.6863   -6.7325 C.ar    1  UNL1        0.0681
     43 N         -30.1793   44.4365   -5.4092 N.ar    1  UNL1       -0.3523
     44 C         -29.1263   45.1608   -4.9923 C.ar    1  UNL1        0.0563
     45 C         -28.5784   45.1929   -3.7106 C.ar    1  UNL1        0.0170
     46 C         -27.4371   45.9885   -3.5028 C.ar    1  UNL1        0.0015
     47 C         -26.8736   46.7238   -4.5689 C.ar    1  UNL1        0.0001
     48 C         -27.4470   46.6714   -5.8521 C.ar    1  UNL1        0.0012
     49 C         -28.5808   45.8763   -6.0274 C.ar    1  UNL1        0.0131
     50 H         -30.7645   43.7875   -4.8376 H       1  UNL1        0.1660
@<TRIPOS>BOND
     1     1     2    2
     2     2     3   am
     3     3    29    1
     4    29    40    1
     5    40    41    1
     6    41    42   ar
     7    42    43   ar
     8    43    44   ar
     9    44    45   ar
    10    45    46   ar
    11    46    47   ar
    12    47    48   ar
    13    48    49   ar
    14    29    30    1
    15    30    31    2
    16    30    32   am
    17    32    34    1
    18    34    35   ar
    19    35    36   ar
    20    36    37   ar
    21    37    38   ar
    22    38    39   ar
    23     2     5    1
    24     5     6   ar
    25     6     7   ar
    26     7     8    1
    27     7     9   ar
    28     9    13    1
    29    13    14    1
    30    14    15    1
    31    15    16    1
    32    16    19    1
    33    19    20   ar
    34    20    21   ar
    35    21    22   ar
    36    22    25    1
    37    25    26    1
    38    25    27    1
    39    25    28    1
    40    22    23   ar
    41    23    24   ar
    42    16    17    1
    43    17    18    1
    44     9    10   ar
    45    10    11   ar
    46    11    12    1
    47    49    41   ar
    48    39    34   ar
    49    11     5   ar
    50    49    44   ar
    51    18    13    1
    52    24    19   ar
    53     3     4    1
    54    43    50    1
    55    32    33    1
@<TRIPOS>MOLECULE
*****
 50 55 0 0 0
SMALL
GASTEIGER

@<TRIPOS>ATOM
      1 O         -25.7669   48.8939  -11.2398 O.2     1  UNL1       -0.2701
      2 C         -25.5501   49.3628  -10.0888 C.2     1  UNL1        0.2484
      3 N         -26.2314   48.8067   -8.9528 N.am    1  UNL1       -0.2945
      4 H         -25.8741   49.0258   -7.9953 H       1  UNL1        0.1501
      5 C         -24.5673   50.4579   -9.9255 C.ar    1  UNL1        0.0817
      6 C         -24.1558   51.1932  -11.0506 C.ar    1  UNL1        0.0194
      7 C         -23.2250   52.2302  -10.9250 C.ar    1  UNL1        0.0712
      8 CL        -22.7081   53.0926  -12.3676 Cl      1  UNL1       -0.0810
      9 C         -22.7003   52.5519   -9.6625 C.ar    1  UNL1        0.0609
     10 C         -23.1175   51.8315   -8.5365 C.ar    1  UNL1        0.0451
     11 C         -24.0469   50.7949   -8.6607 C.ar    1  UNL1        0.1457
     12 F         -24.4704   50.1615   -7.5376 F       1  UNL1       -0.2040
     13 N         -21.7516   53.6169   -9.5133 N.pl3   1  UNL1       -0.3033
     14 C         -20.6466   53.4775   -8.5627 C.3     1  UNL1        0.1123
     15 C         -20.3705   54.8219   -7.8840 C.3     1  UNL1        0.1136
     16 N         -20.2803   55.9232   -8.8602 N.pl3   1  UNL1       -0.2897
     17 C         -20.5888   55.6718  -10.2777 C.3     1  UNL1        0.1136
     18 C         -21.8214   54.7704  -10.4169 C.3     1  UNL1        0.1123
     19 C         -19.7225   57.1984   -8.4663 C.ar    1  UNL1        0.1318
     20 C         -19.0678   57.3630   -7.2327 C.ar    1  UNL1        0.0343
     21 C         -18.5407   58.6091   -6.8903 C.ar    1  UNL1        0.0083
     22 C         -18.6454   59.6900   -7.7776 C.ar    1  UNL1        0.0906
     23 C         -19.3307   59.4949   -8.9859 C.ar    1  UNL1        0.1041
     24 N         -19.8372   58.2728   -9.2973 N.ar    1  UNL1       -0.2292
     25 C         -18.1250   61.0527   -7.3974 C.3     1  UNL1        0.4200
     26 F         -18.7817   62.0420   -8.1089 F       1  UNL1       -0.1658
     27 F         -18.3307   61.2577   -6.0459 F       1  UNL1       -0.1658
     28 F         -16.7711   61.1509   -7.6678 F       1  UNL1       -0.1658
     29 C         -27.2836   47.7966   -9.0977 C.3     1  UNL1        0.1535
     30 C         -27.4911   47.0806   -7.7873 C.2     1  UNL1        0.2443
     31 O         -28.0309   45.9406   -7.7828 O.2     1  UNL1       -0.2730
     32 N         -26.9714   47.6497   -6.5738 N.am    1  UNL1       -0.2825
     33 H         -26.4129   48.5298   -6.6523 H       1  UNL1        0.1549
     34 C         -26.9400   46.9550   -5.3172 C.ar    1  UNL1        0.0535
     35 C         -25.8285   46.1903   -4.9280 C.ar    1  UNL1        0.0353
     36 C         -25.8459   45.5287   -3.6975 C.ar    1  UNL1        0.1002
     37 N         -26.9365   45.6164   -2.8905 N.ar    1  UNL1       -0.2422
     38 C         -28.0329   46.3345   -3.2509 C.ar    1  UNL1        0.1002
     39 C         -28.0582   47.0071   -4.4743 C.ar    1  UNL1        0.0353
     40 C         -28.5923   48.4586   -9.5694 C.3     1  UNL1        0.0569
     41 C         -29.3680   49.0363   -8.4181 C.ar    1  UNL1       -0.0017
     42 C         -30.4826   48.4677   -7.8089 C.ar    1  UNL1        0.0681
     43 N         -30.8434   49.1842   -6.7200 N.ar    1  UNL1       -0.3523
     44 C         -29.9582   50.1916   -6.6274 C.ar    1  UNL1        0.0563
     45 C         -29.8917   51.1681   -5.6345 C.ar    1  UNL1        0.0170
     46 C         -28.8462   52.1068   -5.7039 C.ar    1  UNL1        0.0015
     47 C         -27.8999   52.0477   -6.7505 C.ar    1  UNL1        0.0001
     48 C         -27.9909   51.0504   -7.7381 C.ar    1  UNL1        0.0012
     49 C         -29.0405   50.1351   -7.6452 C.ar    1  UNL1        0.0131
     50 H         -31.6319   48.9754   -6.0679 H       1  UNL1        0.1660
@<TRIPOS>BOND
     1     1     2    2
     2     2     3   am
     3     3    29    1
     4    29    40    1
     5    40    41    1
     6    41    42   ar
     7    42    43   ar
     8    43    44   ar
     9    44    45   ar
    10    45    46   ar
    11    46    47   ar
    12    47    48   ar
    13    48    49   ar
    14    29    30    1
    15    30    31    2
    16    30    32   am
    17    32    34    1
    18    34    35   ar
    19    35    36   ar
    20    36    37   ar
    21    37    38   ar
    22    38    39   ar
    23     2     5    1
    24     5     6   ar
    25     6     7   ar
    26     7     8    1
    27     7     9   ar
    28     9    13    1
    29    13    14    1
    30    14    15    1
    31    15    16    1
    32    16    19    1
    33    19    20   ar
    34    20    21   ar
    35    21    22   ar
    36    22    25    1
    37    25    26    1
    38    25    27    1
    39    25    28    1
    40    22    23   ar
    41    23    24   ar
    42    16    17    1
    43    17    18    1
    44     9    10   ar
    45    10    11   ar
    46    11    12    1
    47    49    41   ar
    48    39    34   ar
    49    11     5   ar
    50    49    44   ar
    51    18    13    1
    52    24    19   ar
    53     3     4    1
    54    43    50    1
    55    32    33    1
@<TRIPOS>MOLECULE
*****
 50 55 0 0 0
SMALL
GASTEIGER

@<TRIPOS>ATOM
      1 O         -27.5075   47.4598  -10.3103 O.2     1  UNL1       -0.2701
      2 C         -27.7366   48.6988  -10.2457 C.2     1  UNL1        0.2484
      3 N         -29.0923   49.1740  -10.2519 N.am    1  UNL1       -0.2945
      4 H         -29.2813   50.1587   -9.9565 H       1  UNL1        0.1501
      5 C         -26.6006   49.6409  -10.1287 C.ar    1  UNL1        0.0817
      6 C         -25.8361   49.6615   -8.9492 C.ar    1  UNL1        0.0194
      7 C         -24.7601   50.5449   -8.8106 C.ar    1  UNL1        0.0712
      8 CL        -23.8608   50.5644   -7.2997 Cl      1  UNL1       -0.0810
      9 C         -24.4283   51.4157   -9.8616 C.ar    1  UNL1        0.0609
     10 C         -25.1782   51.3893  -11.0440 C.ar    1  UNL1        0.0451
     11 C         -26.2537   50.5075  -11.1835 C.ar    1  UNL1        0.1457
     12 F         -26.9168   50.4709  -12.3669 F       1  UNL1       -0.2040
     13 N         -23.3238   52.3222   -9.7407 N.pl3   1  UNL1       -0.3033
     14 C         -21.9981   51.8091   -9.3892 C.3     1  UNL1        0.1123
     15 C         -21.2859   52.7977   -8.4619 C.3     1  UNL1        0.1136
     16 N         -21.3567   54.1794   -8.9715 N.pl3   1  UNL1       -0.2897
     17 C         -22.1724   54.4804  -10.1595 C.3     1  UNL1        0.1136
     18 C         -23.5087   53.7300  -10.1092 C.3     1  UNL1        0.1123
     19 C         -20.4940   55.2014   -8.4203 C.ar    1  UNL1        0.1318
     20 C         -19.4817   54.8867   -7.4963 C.ar    1  UNL1        0.0343
     21 C         -18.6682   55.9012   -6.9893 C.ar    1  UNL1        0.0083
     22 C         -18.8446   57.2270   -7.4109 C.ar    1  UNL1        0.0906
     23 C         -19.8833   57.5062   -8.3113 C.ar    1  UNL1        0.1041
     24 N         -20.6640   56.5022   -8.7903 N.ar    1  UNL1       -0.2292
     25 C         -18.0059   58.3379   -6.8323 C.3     1  UNL1        0.4200
     26 F         -18.6832   58.9787   -5.8092 F       1  UNL1       -0.1658
     27 F         -16.8310   57.8083   -6.3324 F       1  UNL1       -0.1658
     28 F         -17.7009   59.2756   -7.8037 F       1  UNL1       -0.1658
     29 C         -30.2284   48.2744  -10.4718 C.3     1  UNL1        0.1535
     30 C         -30.0280   47.4978  -11.7483 C.2     1  UNL1        0.2443
     31 O         -29.8615   46.2486  -11.6939 O.2     1  UNL1       -0.2730
     32 N         -30.1421   48.1670  -13.0153 N.am    1  UNL1       -0.2825
     33 H         -30.4163   49.1756  -13.0072 H       1  UNL1        0.1549
     34 C         -30.1687   47.4835  -14.2782 C.ar    1  UNL1        0.0535
     35 C         -30.3976   46.1006  -14.3605 C.ar    1  UNL1        0.0353
     36 C         -30.4102   45.4790  -15.6118 C.ar    1  UNL1        0.1002
     37 N         -30.1901   46.2075  -16.7383 N.ar    1  UNL1       -0.2422
     38 C         -29.9477   47.5439  -16.6859 C.ar    1  UNL1        0.1002
     39 C         -29.9220   48.2031  -15.4551 C.ar    1  UNL1        0.0353
     40 C         -30.3881   47.3197   -9.2732 C.3     1  UNL1        0.0569
     41 C         -30.2823   48.0510   -7.9637 C.ar    1  UNL1       -0.0017
     42 C         -31.2608   48.8570   -7.3897 C.ar    1  UNL1        0.0681
     43 N         -30.8871   49.2435   -6.1487 N.ar    1  UNL1       -0.3523
     44 C         -29.6882   48.6771   -5.9278 C.ar    1  UNL1        0.0563
     45 C         -28.9234   48.7465   -4.7641 C.ar    1  UNL1        0.0170
     46 C         -27.7120   48.0324   -4.7294 C.ar    1  UNL1        0.0015
     47 C         -27.2978   47.2713   -5.8447 C.ar    1  UNL1        0.0001
     48 C         -28.0904   47.2185   -7.0054 C.ar    1  UNL1        0.0012
     49 C         -29.2853   47.9398   -7.0120 C.ar    1  UNL1        0.0131
     50 H         -31.4361   49.8364   -5.4872 H       1  UNL1        0.1660
@<TRIPOS>BOND
     1     1     2    2
     2     2     3   am
     3     3    29    1
     4    29    40    1
     5    40    41    1
     6    41    42   ar
     7    42    43   ar
     8    43    44   ar
     9    44    45   ar
    10    45    46   ar
    11    46    47   ar
    12    47    48   ar
    13    48    49   ar
    14    29    30    1
    15    30    31    2
    16    30    32   am
    17    32    34    1
    18    34    35   ar
    19    35    36   ar
    20    36    37   ar
    21    37    38   ar
    22    38    39   ar
    23     2     5    1
    24     5     6   ar
    25     6     7   ar
    26     7     8    1
    27     7     9   ar
    28     9    13    1
    29    13    14    1
    30    14    15    1
    31    15    16    1
    32    16    19    1
    33    19    20   ar
    34    20    21   ar
    35    21    22   ar
    36    22    25    1
    37    25    26    1
    38    25    27    1
    39    25    28    1
    40    22    23   ar
    41    23    24   ar
    42    16    17    1
    43    17    18    1
    44     9    10   ar
    45    10    11   ar
    46    11    12    1
    47    49    41   ar
    48    39    34   ar
    49    11     5   ar
    50    49    44   ar
    51    18    13    1
    52    24    19   ar
    53     3     4    1
    54    43    50    1
    55    32    33    1
@<TRIPOS>MOLECULE
*****
 50 55 0 0 0
SMALL
GASTEIGER

@<TRIPOS>ATOM
      1 O         -29.4317   48.5183   -3.6616 O.2     1  UNL1       -0.2701
      2 C         -30.2822   47.8454   -4.3063 C.2     1  UNL1        0.2484
      3 N         -31.1486   46.9361   -3.6089 N.am    1  UNL1       -0.2945
      4 H         -31.9968   46.5731   -4.1002 H       1  UNL1        0.1501
      5 C         -30.3955   48.0325   -5.7706 C.ar    1  UNL1        0.0817
      6 C         -30.8892   46.9846   -6.5669 C.ar    1  UNL1        0.0194
      7 C         -31.0024   47.1333   -7.9534 C.ar    1  UNL1        0.0712
      8 CL        -31.5841   45.7792   -8.9126 Cl      1  UNL1       -0.0810
      9 C         -30.6305   48.3439   -8.5612 C.ar    1  UNL1        0.0609
     10 C         -30.1513   49.3956   -7.7706 C.ar    1  UNL1        0.0451
     11 C         -30.0372   49.2481   -6.3853 C.ar    1  UNL1        0.1457
     12 F         -29.6257   50.3110   -5.6487 F       1  UNL1       -0.2040
     13 N         -30.7474   48.5173   -9.9798 N.pl3   1  UNL1       -0.3033
     14 C         -31.1960   47.4004  -10.8137 C.3     1  UNL1        0.1123
     15 C         -30.4336   47.4024  -12.1415 C.3     1  UNL1        0.1136
     16 N         -30.4154   48.7389  -12.7639 N.pl3   1  UNL1       -0.2897
     17 C         -30.9631   49.8939  -12.0336 C.3     1  UNL1        0.1136
     18 C         -30.5516   49.8517  -10.5570 C.3     1  UNL1        0.1123
     19 C         -30.0270   48.8892  -14.1493 C.ar    1  UNL1        0.1318
     20 C         -30.4777   47.9968  -15.1383 C.ar    1  UNL1        0.0343
     21 C         -30.0824   48.1773  -16.4646 C.ar    1  UNL1        0.0083
     22 C         -29.2545   49.2531  -16.8163 C.ar    1  UNL1        0.0906
     23 C         -28.8018   50.1049  -15.7979 C.ar    1  UNL1        0.1041
     24 N         -29.1985   49.9086  -14.5130 N.ar    1  UNL1       -0.2292
     25 C         -28.7800   49.4287  -18.2363 C.3     1  UNL1        0.4200
     26 F         -28.7881   48.2179  -18.9069 F       1  UNL1       -0.1658
     27 F         -29.6186   50.3118  -18.8905 F       1  UNL1       -0.1658
     28 F         -27.4897   49.9291  -18.2612 F       1  UNL1       -0.1658
     29 C         -30.9881   46.6544   -2.1795 C.3     1  UNL1        0.1535
     30 C         -29.7723   45.7904   -1.9605 C.2     1  UNL1        0.2443
     31 O         -29.9166   44.5483   -1.7943 O.2     1  UNL1       -0.2730
     32 N         -28.4599   46.3688   -2.0566 N.am    1  UNL1       -0.2825
     33 H         -28.3933   47.3752   -2.3313 H       1  UNL1        0.1549
     34 C         -27.2478   45.5984   -2.0647 C.ar    1  UNL1        0.0535
     35 C         -26.8319   44.8713   -0.9378 C.ar    1  UNL1        0.0353
     36 C         -25.6427   44.1398   -0.9920 C.ar    1  UNL1        0.1002
     37 N         -24.8899   44.1433   -2.1240 N.ar    1  UNL1       -0.2422
     38 C         -25.2596   44.8532   -3.2226 C.ar    1  UNL1        0.1002
     39 C         -26.4386   45.6013   -3.2087 C.ar    1  UNL1        0.0353
     40 C         -30.8691   47.9718   -1.3898 C.3     1  UNL1        0.0569
     41 C         -31.1291   47.7649    0.0766 C.ar    1  UNL1       -0.0017
     42 C         -31.0723   46.5538    0.7597 C.ar    1  UNL1        0.0681
     43 N         -31.2244   46.7528    2.0887 N.ar    1  UNL1       -0.3523
     44 C         -31.3620   48.0799    2.2529 C.ar    1  UNL1        0.0563
     45 C         -31.4971   48.7720    3.4557 C.ar    1  UNL1        0.0170
     46 C         -31.5781   50.1753    3.4016 C.ar    1  UNL1        0.0015
     47 C         -31.5202   50.8482    2.1613 C.ar    1  UNL1        0.0001
     48 C         -31.3823   50.1240    0.9635 C.ar    1  UNL1        0.0012
     49 C         -31.3079   48.7327    1.0479 C.ar    1  UNL1        0.0131
     50 H         -31.2064   46.0233    2.8357 H       1  UNL1        0.1660
@<TRIPOS>BOND
     1     1     2    2
     2     2     3   am
     3     3    29    1
     4    29    40    1
     5    40    41    1
     6    41    42   ar
     7    42    43   ar
     8    43    44   ar
     9    44    45   ar
    10    45    46   ar
    11    46    47   ar
    12    47    48   ar
    13    48    49   ar
    14    29    30    1
    15    30    31    2
    16    30    32   am
    17    32    34    1
    18    34    35   ar
    19    35    36   ar
    20    36    37   ar
    21    37    38   ar
    22    38    39   ar
    23     2     5    1
    24     5     6   ar
    25     6     7   ar
    26     7     8    1
    27     7     9   ar
    28     9    13    1
    29    13    14    1
    30    14    15    1
    31    15    16    1
    32    16    19    1
    33    19    20   ar
    34    20    21   ar
    35    21    22   ar
    36    22    25    1
    37    25    26    1
    38    25    27    1
    39    25    28    1
    40    22    23   ar
    41    23    24   ar
    42    16    17    1
    43    17    18    1
    44     9    10   ar
    45    10    11   ar
    46    11    12    1
    47    49    41   ar
    48    39    34   ar
    49    11     5   ar
    50    49    44   ar
    51    18    13    1
    52    24    19   ar
    53     3     4    1
    54    43    50    1
    55    32    33    1
