@<TRIPOS>MOLECULE
*****
 38 43 0 0 0
SMALL
GASTEIGER

@<TRIPOS>ATOM
      1 C          49.4072   11.3153  -25.9784 C.ar    1  UNL1        0.1095
      2 N          49.5208   10.3994  -26.9722 N.ar    1  UNL1       -0.1677
      3 N          50.8067   10.2569  -27.2605 N.ar    1  UNL1       -0.2319
      4 C          51.3309    9.2853  -28.2109 C.3     1  UNL1        0.1554
      5 C          51.5147   11.0501  -26.4440 C.ar    1  UNL1        0.1654
      6 N          52.8640   11.1218  -26.3610 N.ar    1  UNL1       -0.2050
      7 C          53.4084   11.9687  -25.4432 C.ar    1  UNL1        0.2014
      8 N          52.6040   12.7441  -24.6545 N.ar    1  UNL1       -0.2088
      9 C          51.2389   12.6902  -24.7266 C.ar    1  UNL1        0.1382
     10 C          50.6824   11.7697  -25.6330 C.ar    1  UNL1        0.0865
     11 C          46.9021   11.9256  -25.8585 C.ar    1  UNL1        0.0809
     12 C          48.1243   11.5622  -25.3092 C.ar    1  UNL1        0.0577
     13 C          47.9185   11.5449  -23.9446 C.ar    1  UNL1        0.1231
     14 N          46.6360   11.8595  -23.6836 N.ar    1  UNL1       -0.1676
     15 N          46.0287   12.0961  -24.8366 N.ar    1  UNL1       -0.2488
     16 C          44.6295   12.5041  -24.9161 C.3     1  UNL1        0.1537
     17 C          45.6813   12.8862  -31.4456 C.3     1  UNL1        0.0310
     18 C          46.0425   12.6452  -30.0102 C.ar    1  UNL1       -0.0218
     19 C          46.3121   11.3459  -29.5576 C.ar    1  UNL1       -0.0042
     20 C          46.6065   11.1152  -28.2111 C.ar    1  UNL1        0.0012
     21 C          46.6141   12.1771  -27.2913 C.ar    1  UNL1        0.0174
     22 C          46.3297   13.4743  -27.7462 C.ar    1  UNL1        0.0012
     23 C          46.0434   13.7065  -29.0942 C.ar    1  UNL1       -0.0042
     24 N          50.4638   13.6393  -23.9672 N.pl3   1  UNL1       -0.2841
     25 C          50.6592   13.7789  -22.5360 C.3     1  UNL1        0.0941
     26 C          49.7517   14.9158  -22.1082 C.3     1  UNL1        0.0397
     27 C          49.5401   15.7842  -23.3597 C.3     1  UNL1        0.0884
     28 C          49.7811   14.8019  -24.5342 C.3     1  UNL1        0.1883
     29 N          48.1780   16.3895  -23.3926 N.3     1  UNL1       -0.2719
     30 C          48.1317   17.5777  -24.2764 C.3     1  UNL1        0.0721
     31 C          46.8165   18.3514  -24.0691 C.3     1  UNL1        0.0174
     32 C          45.6662   17.4389  -23.6190 C.3     1  UNL1        0.0029
     33 C          45.8111   16.0471  -24.2314 C.3     1  UNL1        0.0174
     34 C          47.1570   15.3995  -23.8355 C.3     1  UNL1        0.0721
     35 C          50.6039   15.4342  -25.6263 C.2     1  UNL1        0.3334
     36 O          50.5810   14.9549  -26.7913 O.2     1  UNL1       -0.2484
     37 O          51.4003   16.5413  -25.3476 O.3     1  UNL1       -0.4790
     38 H          51.9634   16.9713  -26.0714 H       1  UNL1        0.2951
@<TRIPOS>BOND
     1    17    18    1
     2    18    19   ar
     3    19    20   ar
     4    20    21   ar
     5    21    11    1
     6    11    12   ar
     7    12     1    1
     8     1     2   ar
     9     2     3   ar
    10     3     4    1
    11     3     5   ar
    12     5     6   ar
    13     6     7   ar
    14     7     8   ar
    15     8     9   ar
    16     9    24    1
    17    24    25    1
    18    25    26    1
    19    26    27    1
    20    27    29    1
    21    29    30    1
    22    30    31    1
    23    31    32    1
    24    32    33    1
    25    33    34    1
    26    27    28    1
    27    28    35    1
    28    35    36    2
    29    35    37    1
    30     9    10   ar
    31    12    13   ar
    32    13    14   ar
    33    14    15   ar
    34    15    16    1
    35    21    22   ar
    36    22    23   ar
    37    23    18   ar
    38    15    11   ar
    39    10     1   ar
    40    10     5   ar
    41    28    24    1
    42    34    29    1
    43    37    38    1
@<TRIPOS>MOLECULE
*****
 38 43 0 0 0
SMALL
GASTEIGER

@<TRIPOS>ATOM
      1 C          47.8924   12.6034  -25.4947 C.ar    1  UNL1        0.1095
      2 N          46.9248   12.4124  -26.4256 N.ar    1  UNL1       -0.1677
      3 N          46.9098   13.4650  -27.2310 N.ar    1  UNL1       -0.2319
      4 C          46.0696   13.5789  -28.4155 C.3     1  UNL1        0.1554
      5 C          47.8740   14.3109  -26.8412 C.ar    1  UNL1        0.1654
      6 N          48.2400   15.4566  -27.4623 N.ar    1  UNL1       -0.2050
      7 C          49.2700   16.1748  -26.9337 C.ar    1  UNL1        0.2014
      8 N          49.8891   15.7564  -25.7882 N.ar    1  UNL1       -0.2088
      9 C          49.5308   14.6045  -25.1428 C.ar    1  UNL1        0.1382
     10 C          48.5077   13.8360  -25.7271 C.ar    1  UNL1        0.0865
     11 C          49.3371   10.6360  -24.6553 C.ar    1  UNL1        0.0809
     12 C          48.2826   11.5348  -24.5671 C.ar    1  UNL1        0.0577
     13 C          47.5929   11.1747  -23.4273 C.ar    1  UNL1        0.1231
     14 N          48.2088   10.1287  -22.8457 N.ar    1  UNL1       -0.1676
     15 N          49.2535    9.8013  -23.5912 N.ar    1  UNL1       -0.2488
     16 C          50.1257    8.6767  -23.2673 C.3     1  UNL1        0.1537
     17 C          53.1484   10.3020  -29.0132 C.3     1  UNL1        0.0310
     18 C          52.1883   10.3568  -27.8625 C.ar    1  UNL1       -0.0218
     19 C          51.0647    9.5185  -27.8387 C.ar    1  UNL1       -0.0042
     20 C          50.1470    9.5993  -26.7880 C.ar    1  UNL1        0.0012
     21 C          50.3260   10.5353  -25.7558 C.ar    1  UNL1        0.0174
     22 C          51.4449   11.3823  -25.7910 C.ar    1  UNL1        0.0012
     23 C          52.3673   11.2961  -26.8373 C.ar    1  UNL1       -0.0042
     24 N          50.1311   14.3063  -23.8666 N.pl3   1  UNL1       -0.2841
     25 C          51.5578   14.4750  -23.6616 C.3     1  UNL1        0.0941
     26 C          51.8010   14.1594  -22.1985 C.3     1  UNL1        0.0397
     27 C          50.4672   14.4228  -21.4798 C.3     1  UNL1        0.0884
     28 C          49.4068   14.2501  -22.5972 C.3     1  UNL1        0.1883
     29 N          50.2543   13.4842  -20.3413 N.3     1  UNL1       -0.2719
     30 C          50.0633   12.0924  -20.8119 C.3     1  UNL1        0.0721
     31 C          49.5573   11.2006  -19.6630 C.3     1  UNL1        0.0174
     32 C          50.0255   11.6978  -18.2874 C.3     1  UNL1        0.0029
     33 C          51.4042   12.3474  -18.3898 C.3     1  UNL1        0.0174
     34 C          51.3914   13.5331  -19.3804 C.3     1  UNL1        0.0721
     35 C          48.3494   15.3209  -22.5287 C.2     1  UNL1        0.3334
     36 O          48.6341   16.4603  -22.0720 O.2     1  UNL1       -0.2484
     37 O          47.0534   15.0501  -22.9580 O.3     1  UNL1       -0.4790
     38 H          46.3318   15.7593  -22.9107 H       1  UNL1        0.2951
@<TRIPOS>BOND
     1    17    18    1
     2    18    19   ar
     3    19    20   ar
     4    20    21   ar
     5    21    11    1
     6    11    12   ar
     7    12     1    1
     8     1     2   ar
     9     2     3   ar
    10     3     4    1
    11     3     5   ar
    12     5     6   ar
    13     6     7   ar
    14     7     8   ar
    15     8     9   ar
    16     9    24    1
    17    24    25    1
    18    25    26    1
    19    26    27    1
    20    27    29    1
    21    29    30    1
    22    30    31    1
    23    31    32    1
    24    32    33    1
    25    33    34    1
    26    27    28    1
    27    28    35    1
    28    35    36    2
    29    35    37    1
    30     9    10   ar
    31    12    13   ar
    32    13    14   ar
    33    14    15   ar
    34    15    16    1
    35    21    22   ar
    36    22    23   ar
    37    23    18   ar
    38    15    11   ar
    39    10     1   ar
    40    10     5   ar
    41    28    24    1
    42    34    29    1
    43    37    38    1
@<TRIPOS>MOLECULE
*****
 38 43 0 0 0
SMALL
GASTEIGER

@<TRIPOS>ATOM
      1 C          49.5353   12.6206  -23.4115 C.ar    1  UNL1        0.1095
      2 N          48.9786   13.0137  -22.2389 N.ar    1  UNL1       -0.1677
      3 N          49.9561   13.3005  -21.3908 N.ar    1  UNL1       -0.2319
      4 C          49.7498   13.8531  -20.0588 C.3     1  UNL1        0.1554
      5 C          51.1274   13.1213  -22.0176 C.ar    1  UNL1        0.1654
      6 N          52.3567   13.3966  -21.5220 N.ar    1  UNL1       -0.2050
      7 C          53.4373   13.1778  -22.3223 C.ar    1  UNL1        0.2014
      8 N          53.2748   12.6637  -23.5791 N.ar    1  UNL1       -0.2088
      9 C          52.0418   12.3741  -24.0964 C.ar    1  UNL1        0.1382
     10 C          50.9264   12.6593  -23.2882 C.ar    1  UNL1        0.0865
     11 C          48.3922   13.3036  -25.6227 C.ar    1  UNL1        0.0809
     12 C          48.7184   12.4087  -24.6126 C.ar    1  UNL1        0.0577
     13 C          48.0415   11.2470  -24.9239 C.ar    1  UNL1        0.1231
     14 N          47.3601   11.4225  -26.0713 N.ar    1  UNL1       -0.1676
     15 N          47.5663   12.6636  -26.4854 N.ar    1  UNL1       -0.2488
     16 C          46.9400   13.2025  -27.6886 C.3     1  UNL1        0.1537
     17 C          49.9154   18.8834  -26.0408 C.3     1  UNL1        0.0310
     18 C          49.5410   17.4391  -25.8899 C.ar    1  UNL1       -0.0218
     19 C          50.4012   16.4336  -26.3536 C.ar    1  UNL1       -0.0042
     20 C          50.0336   15.0892  -26.2521 C.ar    1  UNL1        0.0012
     21 C          48.7902   14.7298  -25.7059 C.ar    1  UNL1        0.0174
     22 C          47.9261   15.7404  -25.2559 C.ar    1  UNL1        0.0012
     23 C          48.2970   17.0845  -25.3496 C.ar    1  UNL1       -0.0042
     24 N          51.9614   11.7022  -25.3692 N.pl3   1  UNL1       -0.2841
     25 C          52.6807   12.2112  -26.5223 C.3     1  UNL1        0.0941
     26 C          52.4340   11.2093  -27.6334 C.3     1  UNL1        0.0397
     27 C          52.1124    9.8754  -26.9387 C.3     1  UNL1        0.0884
     28 C          51.5711   10.3044  -25.5511 C.3     1  UNL1        0.1883
     29 N          51.1248    9.0698  -27.7122 N.3     1  UNL1       -0.2719
     30 C          49.8830    9.8349  -27.9723 C.3     1  UNL1        0.0721
     31 C          48.7783    8.9029  -28.5037 C.3     1  UNL1        0.0174
     32 C          49.3472    7.6988  -29.2686 C.3     1  UNL1        0.0029
     33 C          50.6359    8.0811  -29.9940 C.3     1  UNL1        0.0174
     34 C          51.7013    8.6025  -29.0037 C.3     1  UNL1        0.0721
     35 C          52.1240    9.4395  -24.4485 C.2     1  UNL1        0.3334
     36 O          51.4045    8.5467  -23.9261 O.2     1  UNL1       -0.2484
     37 O          53.4262    9.6332  -23.9964 O.3     1  UNL1       -0.4790
     38 H          53.8072    9.0629  -23.2510 H       1  UNL1        0.2951
@<TRIPOS>BOND
     1    17    18    1
     2    18    19   ar
     3    19    20   ar
     4    20    21   ar
     5    21    11    1
     6    11    12   ar
     7    12     1    1
     8     1     2   ar
     9     2     3   ar
    10     3     4    1
    11     3     5   ar
    12     5     6   ar
    13     6     7   ar
    14     7     8   ar
    15     8     9   ar
    16     9    24    1
    17    24    25    1
    18    25    26    1
    19    26    27    1
    20    27    29    1
    21    29    30    1
    22    30    31    1
    23    31    32    1
    24    32    33    1
    25    33    34    1
    26    27    28    1
    27    28    35    1
    28    35    36    2
    29    35    37    1
    30     9    10   ar
    31    12    13   ar
    32    13    14   ar
    33    14    15   ar
    34    15    16    1
    35    21    22   ar
    36    22    23   ar
    37    23    18   ar
    38    15    11   ar
    39    10     1   ar
    40    10     5   ar
    41    28    24    1
    42    34    29    1
    43    37    38    1
@<TRIPOS>MOLECULE
*****
 38 43 0 0 0
SMALL
GASTEIGER

@<TRIPOS>ATOM
      1 C          48.3674   11.8150  -25.3130 C.ar    1  UNL1        0.1095
      2 N          48.1799   11.9319  -26.6511 N.ar    1  UNL1       -0.1677
      3 N          46.8959   12.1768  -26.8706 N.ar    1  UNL1       -0.2319
      4 C          46.3282   12.4620  -28.1815 C.3     1  UNL1        0.1554
      5 C          46.2689   12.2446  -25.6876 C.ar    1  UNL1        0.1654
      6 N          44.9707   12.5684  -25.4813 N.ar    1  UNL1       -0.2050
      7 C          44.5156   12.6172  -24.1981 C.ar    1  UNL1        0.2014
      8 N          45.3484   12.3143  -23.1565 N.ar    1  UNL1       -0.2088
      9 C          46.6617   11.9799  -23.3443 C.ar    1  UNL1        0.1382
     10 C          47.1414   11.9906  -24.6666 C.ar    1  UNL1        0.0865
     11 C          50.6673   12.7178  -24.5661 C.ar    1  UNL1        0.0809
     12 C          49.7134   11.7232  -24.7347 C.ar    1  UNL1        0.0577
     13 C          50.3202   10.5612  -24.3033 C.ar    1  UNL1        0.1231
     14 N          51.5658   10.8410  -23.8765 N.ar    1  UNL1       -0.1676
     15 N          51.7750   12.1382  -24.0434 N.ar    1  UNL1       -0.2488
     16 C          53.0468   12.7753  -23.7164 C.3     1  UNL1        0.1537
     17 C          50.2862   18.2838  -26.1483 C.3     1  UNL1        0.0310
     18 C          50.3388   16.8449  -25.7293 C.ar    1  UNL1       -0.0218
     19 C          50.6557   16.5049  -24.4065 C.ar    1  UNL1       -0.0042
     20 C          50.7469   15.1634  -24.0259 C.ar    1  UNL1        0.0012
     21 C          50.5449   14.1403  -24.9672 C.ar    1  UNL1        0.0174
     22 C          50.2418   14.4853  -26.2936 C.ar    1  UNL1        0.0012
     23 C          50.1422   15.8267  -26.6727 C.ar    1  UNL1       -0.0042
     24 N          47.4353   11.5349  -22.2122 N.pl3   1  UNL1       -0.2841
     25 C          48.0881   10.2388  -22.2245 C.3     1  UNL1        0.0941
     26 C          48.8687   10.1617  -20.9268 C.3     1  UNL1        0.0397
     27 C          49.1427   11.6161  -20.5089 C.3     1  UNL1        0.0884
     28 C          48.0052   12.4161  -21.1935 C.3     1  UNL1        0.1883
     29 N          49.1421   11.7782  -19.0269 N.3     1  UNL1       -0.2719
     30 C          50.4308   12.3222  -18.5385 C.3     1  UNL1        0.0721
     31 C          50.5178   12.2050  -17.0055 C.3     1  UNL1        0.0174
     32 C          49.1362   12.2507  -16.3364 C.3     1  UNL1        0.0029
     33 C          48.1858   13.1511  -17.1233 C.3     1  UNL1        0.0174
     34 C          48.0281   12.6601  -18.5798 C.3     1  UNL1        0.0721
     35 C          48.5169   13.6935  -21.8068 C.2     1  UNL1        0.3334
     36 O          49.6950   14.0763  -21.5761 O.2     1  UNL1       -0.2484
     37 O          47.6856   14.4594  -22.6190 O.3     1  UNL1       -0.4790
     38 H          48.0155   15.3236  -23.0316 H       1  UNL1        0.2951
@<TRIPOS>BOND
     1    17    18    1
     2    18    19   ar
     3    19    20   ar
     4    20    21   ar
     5    21    11    1
     6    11    12   ar
     7    12     1    1
     8     1     2   ar
     9     2     3   ar
    10     3     4    1
    11     3     5   ar
    12     5     6   ar
    13     6     7   ar
    14     7     8   ar
    15     8     9   ar
    16     9    24    1
    17    24    25    1
    18    25    26    1
    19    26    27    1
    20    27    29    1
    21    29    30    1
    22    30    31    1
    23    31    32    1
    24    32    33    1
    25    33    34    1
    26    27    28    1
    27    28    35    1
    28    35    36    2
    29    35    37    1
    30     9    10   ar
    31    12    13   ar
    32    13    14   ar
    33    14    15   ar
    34    15    16    1
    35    21    22   ar
    36    22    23   ar
    37    23    18   ar
    38    15    11   ar
    39    10     1   ar
    40    10     5   ar
    41    28    24    1
    42    34    29    1
    43    37    38    1
@<TRIPOS>MOLECULE
*****
 38 43 0 0 0
SMALL
GASTEIGER

@<TRIPOS>ATOM
      1 C          47.9190   11.1110  -27.4361 C.ar    1  UNL1        0.1095
      2 N          47.8014   10.2310  -28.4613 N.ar    1  UNL1       -0.1677
      3 N          46.9876   10.7549  -29.3669 N.ar    1  UNL1       -0.2319
      4 C          46.6957   10.1450  -30.6572 C.3     1  UNL1        0.1554
      5 C          46.6076   11.9689  -28.9437 C.ar    1  UNL1        0.1654
      6 N          45.8521   12.8603  -29.6272 N.ar    1  UNL1       -0.2050
      7 C          45.5930   14.0645  -29.0452 C.ar    1  UNL1        0.2014
      8 N          46.0620   14.3421  -27.7909 N.ar    1  UNL1       -0.2088
      9 C          46.8226   13.4530  -27.0818 C.ar    1  UNL1        0.1382
     10 C          47.1378   12.2359  -27.7125 C.ar    1  UNL1        0.0865
     11 C          50.1122   10.2381  -26.3919 C.ar    1  UNL1        0.0809
     12 C          48.8944   10.9040  -26.3588 C.ar    1  UNL1        0.0577
     13 C          48.7284   11.2925  -25.0450 C.ar    1  UNL1        0.1231
     14 N          49.7976   10.9019  -24.3266 N.ar    1  UNL1       -0.1676
     15 N          50.6250   10.2605  -25.1379 N.ar    1  UNL1       -0.2488
     16 C          51.8747    9.6665  -24.6731 C.3     1  UNL1        0.1537
     17 C          52.3974    7.5739  -31.0080 C.3     1  UNL1        0.0310
     18 C          51.8304    8.2335  -29.7864 C.ar    1  UNL1       -0.0218
     19 C          50.6093    7.7999  -29.2512 C.ar    1  UNL1       -0.0042
     20 C          50.0594    8.4421  -28.1385 C.ar    1  UNL1        0.0012
     21 C          50.7107    9.5427  -27.5570 C.ar    1  UNL1        0.0174
     22 C          51.9261    9.9824  -28.1048 C.ar    1  UNL1        0.0012
     23 C          52.4804    9.3351  -29.2124 C.ar    1  UNL1       -0.0042
     24 N          47.1572   13.7596  -25.7135 N.pl3   1  UNL1       -0.2841
     25 C          47.8818   14.9725  -25.3820 C.3     1  UNL1        0.0941
     26 C          47.9668   14.9975  -23.8683 C.3     1  UNL1        0.0397
     27 C          46.7835   14.1553  -23.3626 C.3     1  UNL1        0.0884
     28 C          46.4814   13.1985  -24.5441 C.3     1  UNL1        0.1883
     29 N          47.1182   13.4238  -22.1073 N.3     1  UNL1       -0.2719
     30 C          46.6782   12.0103  -22.1675 C.3     1  UNL1        0.0721
     31 C          46.7631   11.3607  -20.7739 C.3     1  UNL1        0.0174
     32 C          47.8545   11.9946  -19.8989 C.3     1  UNL1        0.0029
     33 C          49.0316   12.4565  -20.7559 C.3     1  UNL1        0.0174
     34 C          48.5792   13.4787  -21.8227 C.3     1  UNL1        0.0721
     35 C          45.0003   13.0662  -24.7857 C.2     1  UNL1        0.3334
     36 O          44.2414   14.0565  -24.6098 O.2     1  UNL1       -0.2484
     37 O          44.4659   11.8467  -25.1916 O.3     1  UNL1       -0.4790
     38 H          43.4709   11.7430  -25.3506 H       1  UNL1        0.2951
@<TRIPOS>BOND
     1    17    18    1
     2    18    19   ar
     3    19    20   ar
     4    20    21   ar
     5    21    11    1
     6    11    12   ar
     7    12     1    1
     8     1     2   ar
     9     2     3   ar
    10     3     4    1
    11     3     5   ar
    12     5     6   ar
    13     6     7   ar
    14     7     8   ar
    15     8     9   ar
    16     9    24    1
    17    24    25    1
    18    25    26    1
    19    26    27    1
    20    27    29    1
    21    29    30    1
    22    30    31    1
    23    31    32    1
    24    32    33    1
    25    33    34    1
    26    27    28    1
    27    28    35    1
    28    35    36    2
    29    35    37    1
    30     9    10   ar
    31    12    13   ar
    32    13    14   ar
    33    14    15   ar
    34    15    16    1
    35    21    22   ar
    36    22    23   ar
    37    23    18   ar
    38    15    11   ar
    39    10     1   ar
    40    10     5   ar
    41    28    24    1
    42    34    29    1
    43    37    38    1
@<TRIPOS>MOLECULE
*****
 38 43 0 0 0
SMALL
GASTEIGER

@<TRIPOS>ATOM
      1 C          48.7837   11.7956  -25.5976 C.ar    1  UNL1        0.1095
      2 N          48.5781   11.0552  -26.7152 N.ar    1  UNL1       -0.1677
      3 N          47.3945   11.3794  -27.2161 N.ar    1  UNL1       -0.2319
      4 C          46.8673   10.8645  -28.4726 C.3     1  UNL1        0.1554
      5 C          46.8564   12.3365  -26.4470 C.ar    1  UNL1        0.1654
      6 N          45.6974   12.9974  -26.6762 N.ar    1  UNL1       -0.2050
      7 C          45.3242   13.9671  -25.7950 C.ar    1  UNL1        0.2014
      8 N          46.0914   14.2351  -24.6951 N.ar    1  UNL1       -0.2088
      9 C          47.2629   13.5750  -24.4429 C.ar    1  UNL1        0.1382
     10 C          47.6737   12.6178  -25.3882 C.ar    1  UNL1        0.0865
     11 C          50.9348   12.8661  -24.6546 C.ar    1  UNL1        0.0809
     12 C          50.0818   11.8014  -24.9124 C.ar    1  UNL1        0.0577
     13 C          50.7445   10.6840  -24.4466 C.ar    1  UNL1        0.1231
     14 N          51.9247   11.0550  -23.9162 N.ar    1  UNL1       -0.1676
     15 N          52.0403   12.3676  -24.0501 N.ar    1  UNL1       -0.2488
     16 C          53.2256   13.0986  -23.6127 C.3     1  UNL1        0.1537
     17 C          50.2291   18.4081  -26.2092 C.3     1  UNL1        0.0310
     18 C          50.3661   16.9733  -25.7952 C.ar    1  UNL1       -0.0218
     19 C          50.7565   16.6486  -24.4883 C.ar    1  UNL1       -0.0042
     20 C          50.9260   15.3129  -24.1143 C.ar    1  UNL1        0.0012
     21 C          50.7297   14.2813  -25.0475 C.ar    1  UNL1        0.0174
     22 C          50.3527   14.6115  -26.3587 C.ar    1  UNL1        0.0012
     23 C          50.1750   15.9468  -26.7308 C.ar    1  UNL1       -0.0042
     24 N          47.9397   13.8115  -23.1922 N.pl3   1  UNL1       -0.2841
     25 C          47.9289   15.1279  -22.5815 C.3     1  UNL1        0.0941
     26 C          48.6499   14.9703  -21.2569 C.3     1  UNL1        0.0397
     27 C          48.5062   13.4891  -20.8688 C.3     1  UNL1        0.0884
     28 C          48.2944   12.7719  -22.2265 C.3     1  UNL1        0.1883
     29 N          49.7054   12.9868  -20.1392 N.3     1  UNL1       -0.2719
     30 C          50.8244   13.9560  -20.1991 C.3     1  UNL1        0.0721
     31 C          52.1283   13.3037  -19.7035 C.3     1  UNL1        0.0174
     32 C          51.8715   12.1893  -18.6784 C.3     1  UNL1        0.0029
     33 C          50.6402   12.5084  -17.8326 C.3     1  UNL1        0.0174
     34 C          49.3850   12.6837  -18.7164 C.3     1  UNL1        0.0721
     35 C          47.2159   11.7238  -22.1378 C.2     1  UNL1        0.3334
     36 O          47.4560   10.5397  -22.4953 O.2     1  UNL1       -0.2484
     37 O          45.9489   12.0642  -21.6726 O.3     1  UNL1       -0.4790
     38 H          45.2133   11.3704  -21.6148 H       1  UNL1        0.2951
@<TRIPOS>BOND
     1    17    18    1
     2    18    19   ar
     3    19    20   ar
     4    20    21   ar
     5    21    11    1
     6    11    12   ar
     7    12     1    1
     8     1     2   ar
     9     2     3   ar
    10     3     4    1
    11     3     5   ar
    12     5     6   ar
    13     6     7   ar
    14     7     8   ar
    15     8     9   ar
    16     9    24    1
    17    24    25    1
    18    25    26    1
    19    26    27    1
    20    27    29    1
    21    29    30    1
    22    30    31    1
    23    31    32    1
    24    32    33    1
    25    33    34    1
    26    27    28    1
    27    28    35    1
    28    35    36    2
    29    35    37    1
    30     9    10   ar
    31    12    13   ar
    32    13    14   ar
    33    14    15   ar
    34    15    16    1
    35    21    22   ar
    36    22    23   ar
    37    23    18   ar
    38    15    11   ar
    39    10     1   ar
    40    10     5   ar
    41    28    24    1
    42    34    29    1
    43    37    38    1
@<TRIPOS>MOLECULE
*****
 38 43 0 0 0
SMALL
GASTEIGER

@<TRIPOS>ATOM
      1 C          48.6579   13.8847  -21.7345 C.ar    1  UNL1        0.1095
      2 N          48.9376   14.0779  -20.4216 N.ar    1  UNL1       -0.1677
      3 N          48.8933   12.9026  -19.8103 N.ar    1  UNL1       -0.2319
      4 C          49.2367   12.6934  -18.4102 C.3     1  UNL1        0.1554
      5 C          48.6161   11.9603  -20.7226 C.ar    1  UNL1        0.1654
      6 N          48.5758   10.6235  -20.5134 N.ar    1  UNL1       -0.2050
      7 C          48.3064    9.8135  -21.5752 C.ar    1  UNL1        0.2014
      8 N          48.0538   10.3495  -22.8078 N.ar    1  UNL1       -0.2088
      9 C          48.0846   11.6976  -23.0387 C.ar    1  UNL1        0.1382
     10 C          48.4232   12.5248  -21.9525 C.ar    1  UNL1        0.0865
     11 C          49.7055   15.0824  -23.7669 C.ar    1  UNL1        0.0809
     12 C          48.8065   14.9667  -22.7152 C.ar    1  UNL1        0.0577
     13 C          48.0907   16.1467  -22.7178 C.ar    1  UNL1        0.1231
     14 N          48.5185   16.9249  -23.7293 N.ar    1  UNL1       -0.1676
     15 N          49.4958   16.2855  -24.3540 N.ar    1  UNL1       -0.2488
     16 C          50.2151   16.8655  -25.4839 C.3     1  UNL1        0.1537
     17 C          53.8095   11.2317  -25.1661 C.3     1  UNL1        0.0310
     18 C          52.7769   12.2620  -24.8183 C.ar    1  UNL1       -0.0218
     19 C          52.7170   12.7937  -23.5224 C.ar    1  UNL1       -0.0042
     20 C          51.7280   13.7219  -23.1861 C.ar    1  UNL1        0.0012
     21 C          50.7691   14.1164  -24.1339 C.ar    1  UNL1        0.0174
     22 C          50.8242   13.5709  -25.4262 C.ar    1  UNL1        0.0012
     23 C          51.8182   12.6489  -25.7653 C.ar    1  UNL1       -0.0042
     24 N          47.6672   12.1929  -24.3266 N.pl3   1  UNL1       -0.2841
     25 C          48.1546   11.5812  -25.5490 C.3     1  UNL1        0.0941
     26 C          47.4385   12.2964  -26.6781 C.3     1  UNL1        0.0397
     27 C          46.1366   12.8481  -26.0733 C.3     1  UNL1        0.0884
     28 C          46.4616   12.9862  -24.5640 C.3     1  UNL1        0.1883
     29 N          45.7418   14.1454  -26.6929 N.3     1  UNL1       -0.2719
     30 C          46.5322   15.2726  -26.1457 C.3     1  UNL1        0.0721
     31 C          45.9169   16.6182  -26.5722 C.3     1  UNL1        0.0174
     32 C          45.1741   16.5225  -27.9130 C.3     1  UNL1        0.0029
     33 C          45.8470   15.5032  -28.8303 C.3     1  UNL1        0.0174
     34 C          45.8920   14.1049  -28.1743 C.3     1  UNL1        0.0721
     35 C          45.3202   12.5079  -23.7049 C.2     1  UNL1        0.3334
     36 O          44.1425   12.5274  -24.1525 O.2     1  UNL1       -0.2484
     37 O          45.5628   12.0553  -22.4112 O.3     1  UNL1       -0.4790
     38 H          44.8033   11.7377  -21.8212 H       1  UNL1        0.2951
@<TRIPOS>BOND
     1    17    18    1
     2    18    19   ar
     3    19    20   ar
     4    20    21   ar
     5    21    11    1
     6    11    12   ar
     7    12     1    1
     8     1     2   ar
     9     2     3   ar
    10     3     4    1
    11     3     5   ar
    12     5     6   ar
    13     6     7   ar
    14     7     8   ar
    15     8     9   ar
    16     9    24    1
    17    24    25    1
    18    25    26    1
    19    26    27    1
    20    27    29    1
    21    29    30    1
    22    30    31    1
    23    31    32    1
    24    32    33    1
    25    33    34    1
    26    27    28    1
    27    28    35    1
    28    35    36    2
    29    35    37    1
    30     9    10   ar
    31    12    13   ar
    32    13    14   ar
    33    14    15   ar
    34    15    16    1
    35    21    22   ar
    36    22    23   ar
    37    23    18   ar
    38    15    11   ar
    39    10     1   ar
    40    10     5   ar
    41    28    24    1
    42    34    29    1
    43    37    38    1
@<TRIPOS>MOLECULE
*****
 38 43 0 0 0
SMALL
GASTEIGER

@<TRIPOS>ATOM
      1 C          48.9632   16.2380  -24.5408 C.ar    1  UNL1        0.1095
      2 N          49.5522   17.3277  -25.0931 N.ar    1  UNL1       -0.1677
      3 N          48.8880   17.6447  -26.1955 N.ar    1  UNL1       -0.2319
      4 C          49.1645   18.8208  -27.0094 C.3     1  UNL1        0.1554
      5 C          47.8672   16.7874  -26.3368 C.ar    1  UNL1        0.1654
      6 N          46.9024   16.8328  -27.2854 N.ar    1  UNL1       -0.2050
      7 C          45.9212   15.8883  -27.2514 C.ar    1  UNL1        0.2014
      8 N          45.9383   14.9068  -26.2992 N.ar    1  UNL1       -0.2088
      9 C          46.9069   14.8404  -25.3354 C.ar    1  UNL1        0.1382
     10 C          47.8827   15.8536  -25.3388 C.ar    1  UNL1        0.0865
     11 C          50.2400   14.7361  -22.8745 C.ar    1  UNL1        0.0809
     12 C          49.3527   15.7490  -23.2127 C.ar    1  UNL1        0.0577
     13 C          48.8245   16.1843  -22.0143 C.ar    1  UNL1        0.1231
     14 N          49.3781   15.4878  -21.0044 N.ar    1  UNL1       -0.1676
     15 N          50.2235   14.6113  -21.5253 N.ar    1  UNL1       -0.2488
     16 C          50.9719   13.6624  -20.7068 C.3     1  UNL1        0.1537
     17 C          53.2726   11.4511  -26.5678 C.3     1  UNL1        0.0310
     18 C          52.4616   12.2633  -25.6027 C.ar    1  UNL1       -0.0218
     19 C          51.3473   12.9874  -26.0498 C.ar    1  UNL1       -0.0042
     20 C          50.6168   13.7784  -25.1591 C.ar    1  UNL1        0.0012
     21 C          51.0022   13.8760  -23.8117 C.ar    1  UNL1        0.0174
     22 C          52.1268   13.1605  -23.3714 C.ar    1  UNL1        0.0012
     23 C          52.8526   12.3627  -24.2601 C.ar    1  UNL1       -0.0042
     24 N          46.9383   13.6972  -24.4577 N.pl3   1  UNL1       -0.2841
     25 C          46.0514   13.6185  -23.3118 C.3     1  UNL1        0.0941
     26 C          46.3025   12.2573  -22.6928 C.3     1  UNL1        0.0397
     27 C          46.8487   11.3704  -23.8243 C.3     1  UNL1        0.0884
     28 C          47.4718   12.3839  -24.8179 C.3     1  UNL1        0.1883
     29 N          47.8423   10.3785  -23.3229 N.3     1  UNL1       -0.2719
     30 C          49.2234   10.7471  -23.7127 C.3     1  UNL1        0.0721
     31 C          50.1879    9.5765  -23.4468 C.3     1  UNL1        0.0174
     32 C          49.7185    8.6837  -22.2887 C.3     1  UNL1        0.0029
     33 C          48.9851    9.5103  -21.2340 C.3     1  UNL1        0.0174
     34 C          47.7642   10.2361  -21.8422 C.3     1  UNL1        0.0721
     35 C          47.1393   12.0369  -26.2457 C.2     1  UNL1        0.3334
     36 O          48.0436   11.6302  -27.0231 O.2     1  UNL1       -0.2484
     37 O          45.8352   12.1766  -26.7120 O.3     1  UNL1       -0.4790
     38 H          45.6002   11.9532  -27.6716 H       1  UNL1        0.2951
@<TRIPOS>BOND
     1    17    18    1
     2    18    19   ar
     3    19    20   ar
     4    20    21   ar
     5    21    11    1
     6    11    12   ar
     7    12     1    1
     8     1     2   ar
     9     2     3   ar
    10     3     4    1
    11     3     5   ar
    12     5     6   ar
    13     6     7   ar
    14     7     8   ar
    15     8     9   ar
    16     9    24    1
    17    24    25    1
    18    25    26    1
    19    26    27    1
    20    27    29    1
    21    29    30    1
    22    30    31    1
    23    31    32    1
    24    32    33    1
    25    33    34    1
    26    27    28    1
    27    28    35    1
    28    35    36    2
    29    35    37    1
    30     9    10   ar
    31    12    13   ar
    32    13    14   ar
    33    14    15   ar
    34    15    16    1
    35    21    22   ar
    36    22    23   ar
    37    23    18   ar
    38    15    11   ar
    39    10     1   ar
    40    10     5   ar
    41    28    24    1
    42    34    29    1
    43    37    38    1
@<TRIPOS>MOLECULE
*****
 38 43 0 0 0
SMALL
GASTEIGER

@<TRIPOS>ATOM
      1 C          50.2453   12.8241  -23.6147 C.ar    1  UNL1        0.1095
      2 N          51.1395   12.9521  -24.6262 N.ar    1  UNL1       -0.1677
      3 N          51.5596   11.7414  -24.9648 N.ar    1  UNL1       -0.2319
      4 C          52.4531   11.4664  -26.0820 C.3     1  UNL1        0.1554
      5 C          50.9233   10.8427  -24.2003 C.ar    1  UNL1        0.1654
      6 N          51.0076    9.4953  -24.3014 N.ar    1  UNL1       -0.2050
      7 C          50.2581    8.7379  -23.4525 C.ar    1  UNL1        0.2014
      8 N          49.4697    9.3333  -22.5068 N.ar    1  UNL1       -0.2088
      9 C          49.3748   10.6927  -22.3850 C.ar    1  UNL1        0.1382
     10 C          50.1036   11.4694  -23.3038 C.ar    1  UNL1        0.0865
     11 C          48.3711   14.5952  -23.7281 C.ar    1  UNL1        0.0809
     12 C          49.4610   13.9696  -23.1379 C.ar    1  UNL1        0.0577
     13 C          49.7291   14.7037  -22.0004 C.ar    1  UNL1        0.1231
     14 N          48.8366   15.7058  -21.8964 N.ar    1  UNL1       -0.1676
     15 N          48.0255   15.6432  -22.9416 N.ar    1  UNL1       -0.2488
     16 C          46.9564   16.6119  -23.1632 C.3     1  UNL1        0.1537
     17 C          46.0168   13.1990  -28.8405 C.3     1  UNL1        0.0310
     18 C          46.5864   13.5837  -27.5077 C.ar    1  UNL1       -0.0218
     19 C          47.3630   14.7440  -27.3789 C.ar    1  UNL1       -0.0042
     20 C          47.9296   15.0800  -26.1465 C.ar    1  UNL1        0.0012
     21 C          47.7476   14.2493  -25.0283 C.ar    1  UNL1        0.0174
     22 C          46.9811   13.0812  -25.1652 C.ar    1  UNL1        0.0012
     23 C          46.4074   12.7492  -26.3955 C.ar    1  UNL1       -0.0042
     24 N          48.6378   11.2422  -21.2746 N.pl3   1  UNL1       -0.2841
     25 C          47.3052   11.7842  -21.4655 C.3     1  UNL1        0.0941
     26 C          46.8210   12.1758  -20.0830 C.3     1  UNL1        0.0397
     27 C          47.6068   11.2991  -19.0935 C.3     1  UNL1        0.0884
     28 C          48.9004   10.9391  -19.8680 C.3     1  UNL1        0.1883
     29 N          47.8870   12.0160  -17.8167 N.3     1  UNL1       -0.2719
     30 C          49.3371   12.0411  -17.5138 C.3     1  UNL1        0.0721
     31 C          49.5766   12.5165  -16.0688 C.3     1  UNL1        0.0174
     32 C          48.4714   13.4608  -15.5734 C.3     1  UNL1        0.0029
     33 C          47.9256   14.3028  -16.7250 C.3     1  UNL1        0.0174
     34 C          47.3618   13.4094  -17.8525 C.3     1  UNL1        0.0721
     35 C          49.2709    9.4903  -19.6858 C.2     1  UNL1        0.3334
     36 O          48.3752    8.6042  -19.6949 O.2     1  UNL1       -0.2484
     37 O          50.6015    9.1293  -19.4945 O.3     1  UNL1       -0.4790
     38 H          50.8628    8.1594  -19.3639 H       1  UNL1        0.2951
@<TRIPOS>BOND
     1    17    18    1
     2    18    19   ar
     3    19    20   ar
     4    20    21   ar
     5    21    11    1
     6    11    12   ar
     7    12     1    1
     8     1     2   ar
     9     2     3   ar
    10     3     4    1
    11     3     5   ar
    12     5     6   ar
    13     6     7   ar
    14     7     8   ar
    15     8     9   ar
    16     9    24    1
    17    24    25    1
    18    25    26    1
    19    26    27    1
    20    27    29    1
    21    29    30    1
    22    30    31    1
    23    31    32    1
    24    32    33    1
    25    33    34    1
    26    27    28    1
    27    28    35    1
    28    35    36    2
    29    35    37    1
    30     9    10   ar
    31    12    13   ar
    32    13    14   ar
    33    14    15   ar
    34    15    16    1
    35    21    22   ar
    36    22    23   ar
    37    23    18   ar
    38    15    11   ar
    39    10     1   ar
    40    10     5   ar
    41    28    24    1
    42    34    29    1
    43    37    38    1
