@<TRIPOS>MOLECULE
*****
 42 46 0 0 0
SMALL
GASTEIGER

@<TRIPOS>ATOM
      1 C          -9.1266  -14.8383   27.7868 C.3     1  UNL1        0.1332
      2 N          -7.7768  -14.5869   27.2829 N.ar    1  UNL1       -0.2977
      3 C          -6.7691  -13.8925   27.8805 C.ar    1  UNL1        0.2018
      4 N          -5.6160  -13.8716   27.1595 N.ar    1  UNL1       -0.2135
      5 C          -5.9283  -14.5936   26.0694 C.ar    1  UNL1        0.0999
      6 C          -5.0884  -14.9122   24.9940 C.ar    1  UNL1        0.0282
      7 C          -5.6014  -15.7350   23.9589 C.ar    1  UNL1        0.0888
      8 C          -6.9464  -16.1679   24.0585 C.ar    1  UNL1        0.1401
      9 C          -7.7497  -15.8339   25.1236 C.ar    1  UNL1        0.0327
     10 C          -7.2230  -15.0341   26.1407 C.ar    1  UNL1        0.0789
     11 C          -9.1082  -16.4155   24.9414 C.3     1  UNL1        0.0709
     12 C          -8.9692  -17.1906   23.5896 C.3     1  UNL1        0.1375
     13 C          -9.9591  -16.6724   22.5381 C.3     1  UNL1        0.0439
     14 C          -9.1459  -18.7015   23.7919 C.3     1  UNL1        0.0439
     15 O          -7.6368  -16.9345   23.1437 O.3     1  UNL1       -0.4824
     16 C          -4.7504  -16.1013   22.8072 C.2     1  UNL1        0.2525
     17 O          -4.5083  -15.2341   21.9241 O.2     1  UNL1       -0.2697
     18 N          -4.2019  -17.4254   22.6884 N.am    1  UNL1       -0.2805
     19 H          -4.3305  -18.1018   23.4733 H       1  UNL1        0.1552
     20 C          -3.5037  -17.8865   21.5205 C.ar    1  UNL1        0.0488
     21 C          -2.0987  -17.8637   21.4930 C.ar    1  UNL1        0.0183
     22 C          -1.3900  -18.3603   20.3878 C.ar    1  UNL1        0.0726
     23 C          -2.1014  -18.9476   19.3317 C.ar    1  UNL1        0.0037
     24 C          -3.4962  -18.9880   19.3535 C.ar    1  UNL1       -0.0007
     25 C          -4.2147  -18.4370   20.4285 C.ar    1  UNL1        0.0204
     26 C           0.1182  -18.3714   20.3922 C.3     1  UNL1        0.4186
     27 F           0.6152  -17.0844   20.2783 F       1  UNL1       -0.1659
     28 F           0.5661  -18.9242   21.5773 F       1  UNL1       -0.1659
     29 F           0.6059  -19.1179   19.3334 F       1  UNL1       -0.1659
     30 C          -5.7278  -18.5043   20.4254 C.3     1  UNL1        0.1648
     31 O          -6.2931  -17.2366   20.6274 O.3     1  UNL1       -0.3772
     32 H          -6.1435  -17.0090   21.5825 H       1  UNL1        0.2109
     33 N          -6.8778  -13.2863   29.1773 N.pl3   1  UNL1       -0.2814
     34 H          -6.5503  -13.8225   30.0108 H       1  UNL1        0.1551
     35 C          -7.1256  -11.8824   29.3415 C.ar    1  UNL1        0.0889
     36 C          -6.0879  -10.9675   29.0964 C.ar    1  UNL1        0.1543
     37 F          -4.8699  -11.4069   28.6910 F       1  UNL1       -0.2028
     38 C          -6.3073   -9.5952   29.2468 C.ar    1  UNL1        0.0310
     39 C          -7.5570   -9.1259   29.6556 C.ar    1  UNL1        0.0033
     40 C          -8.5884  -10.0278   29.9262 C.ar    1  UNL1        0.0128
     41 C          -8.3804  -11.4047   29.7787 C.ar    1  UNL1        0.0733
     42 CL         -9.6830  -12.5013   30.2231 Cl      1  UNL1       -0.0809
@<TRIPOS>BOND
     1     1     2    1
     2     2     3   ar
     3     3    33    1
     4    33    35    1
     5    35    36   ar
     6    36    37    1
     7    36    38   ar
     8    38    39   ar
     9    39    40   ar
    10    40    41   ar
    11    41    42    1
    12     3     4   ar
    13     4     5   ar
    14     5     6   ar
    15     6     7   ar
    16     7    16    1
    17    16    17    2
    18    16    18   am
    19    18    20    1
    20    20    21   ar
    21    21    22   ar
    22    22    26    1
    23    26    27    1
    24    26    28    1
    25    26    29    1
    26    22    23   ar
    27    23    24   ar
    28    24    25   ar
    29    25    30    1
    30    30    31    1
    31     7     8   ar
    32     8     9   ar
    33     9    10   ar
    34     9    11    1
    35    11    12    1
    36    12    13    1
    37    12    14    1
    38    12    15    1
    39    10     2   ar
    40    41    35   ar
    41    10     5   ar
    42    25    20   ar
    43    15     8    1
    44    33    34    1
    45    18    19    1
    46    31    32    1
@<TRIPOS>MOLECULE
*****
 42 46 0 0 0
SMALL
GASTEIGER

@<TRIPOS>ATOM
      1 C          -8.8293  -10.3111   32.0489 C.3     1  UNL1        0.1332
      2 N          -9.1738  -11.5264   31.3118 N.ar    1  UNL1       -0.2977
      3 C         -10.2675  -12.3237   31.4640 C.ar    1  UNL1        0.2018
      4 N         -10.3099  -13.3669   30.5923 N.ar    1  UNL1       -0.2135
      5 C          -9.1919  -13.1987   29.8652 C.ar    1  UNL1        0.0999
      6 C          -8.7476  -13.9898   28.7974 C.ar    1  UNL1        0.0282
      7 C          -7.5582  -13.6086   28.1254 C.ar    1  UNL1        0.0888
      8 C          -6.8706  -12.4607   28.5900 C.ar    1  UNL1        0.1401
      9 C          -7.3276  -11.7066   29.6454 C.ar    1  UNL1        0.0327
     10 C          -8.5083  -12.0893   30.2864 C.ar    1  UNL1        0.0789
     11 C          -6.3903  -10.5809   29.9128 C.3     1  UNL1        0.0709
     12 C          -5.3025  -10.7719   28.8048 C.3     1  UNL1        0.1375
     13 C          -3.9090  -10.9793   29.4126 C.3     1  UNL1        0.0439
     14 C          -5.2888   -9.5897   27.8265 C.3     1  UNL1        0.0439
     15 O          -5.6858  -11.9535   28.1001 O.3     1  UNL1       -0.4824
     16 C          -7.0541  -14.4100   26.9903 C.2     1  UNL1        0.2525
     17 O          -5.8162  -14.6331   26.8998 O.2     1  UNL1       -0.2697
     18 N          -7.9561  -14.9321   25.9993 N.am    1  UNL1       -0.2805
     19 H          -8.9848  -14.8218   26.1391 H       1  UNL1        0.1552
     20 C          -7.5139  -15.5786   24.7948 C.ar    1  UNL1        0.0488
     21 C          -6.3350  -15.1464   24.1634 C.ar    1  UNL1        0.0183
     22 C          -5.8497  -15.7961   23.0176 C.ar    1  UNL1        0.0726
     23 C          -6.5205  -16.9333   22.5451 C.ar    1  UNL1        0.0037
     24 C          -7.6848  -17.3799   23.1716 C.ar    1  UNL1       -0.0007
     25 C          -8.2109  -16.6976   24.2821 C.ar    1  UNL1        0.0204
     26 C          -4.5588  -15.3498   22.3778 C.3     1  UNL1        0.4186
     27 F          -3.4953  -16.0972   22.8539 F       1  UNL1       -0.1659
     28 F          -4.6484  -15.5149   21.0084 F       1  UNL1       -0.1659
     29 F          -4.3090  -14.0171   22.6562 F       1  UNL1       -0.1659
     30 C          -9.4719  -17.2130   24.9440 C.3     1  UNL1        0.1648
     31 O          -9.2550  -17.4931   26.3013 O.3     1  UNL1       -0.3772
     32 H          -8.7054  -18.3196   26.3354 H       1  UNL1        0.2109
     33 N         -11.3172  -12.0662   32.4089 N.pl3   1  UNL1       -0.2814
     34 H         -11.7488  -11.1162   32.4327 H       1  UNL1        0.1551
     35 C         -11.9974  -13.1262   33.0966 C.ar    1  UNL1        0.0889
     36 C         -13.2519  -13.5543   32.6311 C.ar    1  UNL1        0.1543
     37 F         -13.8051  -12.9831   31.5316 F       1  UNL1       -0.2028
     38 C         -13.9313  -14.5873   33.2832 C.ar    1  UNL1        0.0310
     39 C         -13.3725  -15.1911   34.4111 C.ar    1  UNL1        0.0033
     40 C         -12.1375  -14.7567   34.8974 C.ar    1  UNL1        0.0128
     41 C         -11.4477  -13.7230   34.2522 C.ar    1  UNL1        0.0733
     42 CL         -9.9418  -13.1506   34.9607 Cl      1  UNL1       -0.0809
@<TRIPOS>BOND
     1     1     2    1
     2     2     3   ar
     3     3    33    1
     4    33    35    1
     5    35    36   ar
     6    36    37    1
     7    36    38   ar
     8    38    39   ar
     9    39    40   ar
    10    40    41   ar
    11    41    42    1
    12     3     4   ar
    13     4     5   ar
    14     5     6   ar
    15     6     7   ar
    16     7    16    1
    17    16    17    2
    18    16    18   am
    19    18    20    1
    20    20    21   ar
    21    21    22   ar
    22    22    26    1
    23    26    27    1
    24    26    28    1
    25    26    29    1
    26    22    23   ar
    27    23    24   ar
    28    24    25   ar
    29    25    30    1
    30    30    31    1
    31     7     8   ar
    32     8     9   ar
    33     9    10   ar
    34     9    11    1
    35    11    12    1
    36    12    13    1
    37    12    14    1
    38    12    15    1
    39    10     2   ar
    40    41    35   ar
    41    10     5   ar
    42    25    20   ar
    43    15     8    1
    44    33    34    1
    45    18    19    1
    46    31    32    1
