@<TRIPOS>MOLECULE
*****
 47 52 0 0 0
SMALL
GASTEIGER

@<TRIPOS>ATOM
      1 C          -8.2110  -12.8235   28.9448 C.ar    1  UNL1        0.0702
      2 C          -6.8722  -12.4093   29.0237 C.ar    1  UNL1        0.0191
      3 C          -6.5248  -11.3058   29.8044 C.ar    1  UNL1        0.0356
      4 C          -7.5237  -10.6063   30.5020 C.ar    1  UNL1        0.1318
      5 N          -8.8193  -11.0101   30.3848 N.ar    1  UNL1       -0.2279
      6 C          -9.1808  -12.0809   29.6298 C.ar    1  UNL1        0.1149
      7 N          -7.2059   -9.4599   31.3173 N.pl3   1  UNL1       -0.2932
      8 C          -6.2759   -8.4274   30.8372 C.3     1  UNL1        0.0923
      9 C          -5.4109   -7.8995   31.9885 C.3     1  UNL1        0.0252
     10 C          -6.2485   -7.4889   33.2169 C.3     1  UNL1        0.0472
     11 C          -7.1662   -8.6491   33.6487 C.3     1  UNL1        0.0252
     12 C          -8.0335   -9.1618   32.4940 C.3     1  UNL1        0.0923
     13 C          -7.0366   -6.1854   32.9868 C.3     1  UNL1        0.2054
     14 O          -7.2587   -5.9934   31.5913 O.3     1  UNL1       -0.4755
     15 C          -8.5175   -5.7923   31.0063 C.ar    1  UNL1        0.1388
     16 C          -8.6733   -4.7170   30.1256 C.ar    1  UNL1        0.0369
     17 C          -9.9051   -4.4739   29.5159 C.ar    1  UNL1        0.0033
     18 C         -10.9958   -5.3044   29.7809 C.ar    1  UNL1        0.0066
     19 C         -10.8641   -6.3915   30.6630 C.ar    1  UNL1        0.0785
     20 C          -9.6191   -6.6297   31.2736 C.ar    1  UNL1        0.0433
     21 C         -12.0174   -7.2746   30.9471 C.2     1  UNL1        0.3381
     22 O         -11.8869   -8.5282   30.9071 O.2     1  UNL1       -0.2451
     23 O         -13.2594   -6.7290   31.2618 O.3     1  UNL1       -0.4771
     24 H         -14.0549   -7.3248   31.4578 H       1  UNL1        0.2954
     25 C          -7.7213  -14.9778   27.6935 C.2     1  UNL1        0.2839
     26 O          -6.5765  -15.0883   28.2080 O.2     1  UNL1       -0.2665
     27 N          -8.6122  -13.9386   28.1305 N.am    1  UNL1       -0.2766
     28 H          -9.6301  -14.0463   27.9184 H       1  UNL1        0.1553
     29 C          -8.8191  -17.3704   23.3952 C.ar    1  UNL1        0.0374
     30 C          -9.5330  -18.5930   23.2191 C.ar    1  UNL1        0.0029
     31 C         -10.0105  -19.3009   24.3484 C.ar    1  UNL1        0.0032
     32 C          -9.8159  -18.8054   25.6436 C.ar    1  UNL1        0.0375
     33 C          -9.1221  -17.6123   25.7912 C.ar    1  UNL1        0.1453
     34 O          -8.8472  -17.0073   26.9185 O.2     1  UNL1       -0.4492
     35 C          -8.1590  -15.9180   26.6425 C.ar    1  UNL1        0.1946
     36 C          -7.9517  -15.8212   25.2597 C.ar    1  UNL1        0.0203
     37 C          -7.1545  -14.7757   24.5329 C.3     1  UNL1        0.0345
     38 C          -8.6220  -16.9162   24.7168 C.ar    1  UNL1        0.0364
     39 C          -9.8319  -19.1371   21.8747 C.ar    1  UNL1        0.0001
     40 C         -11.1616  -19.2982   21.4494 C.ar    1  UNL1        0.0000
     41 C         -11.4369  -19.8159   20.1801 C.ar    1  UNL1        0.0000
     42 C         -10.3894  -20.1840   19.3314 C.ar    1  UNL1        0.0000
     43 C          -9.0646  -20.0387   19.7521 C.ar    1  UNL1        0.0000
     44 C          -8.7848  -19.5211   21.0207 C.ar    1  UNL1        0.0000
     45 C          -9.1627  -15.5727   21.5654 C.3     1  UNL1        0.0773
     46 C          -8.3146  -16.6071   22.2358 C.2     1  UNL1        0.1736
     47 O          -7.1409  -16.8054   21.8234 O.2     1  UNL1       -0.2913
@<TRIPOS>BOND
     1    45    46    1
     2    46    47    2
     3    46    29    1
     4    29    30   ar
     5    30    39    1
     6    39    40   ar
     7    40    41   ar
     8    41    42   ar
     9    42    43   ar
    10    43    44   ar
    11    30    31   ar
    12    31    32   ar
    13    32    33   ar
    14    33    34   ar
    15    34    35   ar
    16    35    25    1
    17    25    26    2
    18    25    27   am
    19    27     1    1
    20     1     2   ar
    21     2     3   ar
    22     3     4   ar
    23     4     7    1
    24     7     8    1
    25     8     9    1
    26     9    10    1
    27    10    13    1
    28    13    14    1
    29    14    15    1
    30    15    16   ar
    31    16    17   ar
    32    17    18   ar
    33    18    19   ar
    34    19    21    1
    35    21    22    2
    36    21    23    1
    37    19    20   ar
    38    10    11    1
    39    11    12    1
    40     4     5   ar
    41     5     6   ar
    42    35    36   ar
    43    36    37    1
    44    36    38   ar
    45    38    29   ar
    46    44    39   ar
    47    38    33   ar
    48     6     1   ar
    49    12     7    1
    50    20    15   ar
    51    27    28    1
    52    23    24    1
