@<TRIPOS>MOLECULE
*****
 45 50 0 0 0
SMALL
GASTEIGER

@<TRIPOS>ATOM
      1 C          12.3968   80.6855   25.4945 C.ar    1  UNL1        0.0702
      2 C          11.5255   81.7220   25.1281 C.ar    1  UNL1        0.0191
      3 C          12.0182   82.8628   24.4924 C.ar    1  UNL1        0.0356
      4 C          13.3970   82.9769   24.2302 C.ar    1  UNL1        0.1318
      5 N          14.2207   81.9611   24.6165 N.ar    1  UNL1       -0.2279
      6 C          13.7632   80.8419   25.2363 C.ar    1  UNL1        0.1149
      7 N          13.9533   84.1445   23.5754 N.pl3   1  UNL1       -0.2932
      8 C          13.5773   85.4947   24.0356 C.3     1  UNL1        0.0923
      9 C          14.3676   86.5922   23.3161 C.3     1  UNL1        0.0252
     10 C          14.3460   86.3249   21.8049 C.3     1  UNL1        0.0472
     11 C          15.0453   84.9837   21.4755 C.3     1  UNL1        0.0252
     12 C          15.0875   83.9817   22.6476 C.3     1  UNL1        0.0923
     13 C          14.9535   87.5096   21.0270 C.3     1  UNL1        0.2054
     14 O          14.1166   87.8783   19.9272 O.3     1  UNL1       -0.4754
     15 C          14.2492   87.4515   18.5957 C.ar    1  UNL1        0.1393
     16 C          14.2070   88.4245   17.5917 C.ar    1  UNL1        0.0436
     17 C          14.3273   88.0652   16.2475 C.ar    1  UNL1        0.0378
     18 BR         14.2511   89.4081   14.8913 Br      1  UNL1       -0.0489
     19 C          14.5011   86.7251   15.8940 C.ar    1  UNL1        0.0133
     20 C          14.5645   85.7308   16.8857 C.ar    1  UNL1        0.0790
     21 C          14.4451   86.1029   18.2372 C.ar    1  UNL1        0.0434
     22 C          14.7573   84.3105   16.5157 C.2     1  UNL1        0.3381
     23 O          15.4373   83.5453   17.2519 O.2     1  UNL1       -0.2451
     24 O          14.1904   83.8052   15.3484 O.3     1  UNL1       -0.4771
     25 H          14.3172   82.8351   15.0859 H       1  UNL1        0.2954
     26 C          11.2674   78.4166   25.5137 C.2     1  UNL1        0.2839
     27 O          11.4776   78.1993   24.2901 O.2     1  UNL1       -0.2665
     28 N          11.9291   79.5069   26.1726 N.am    1  UNL1       -0.2766
     29 H          12.1800   79.3868   27.1794 H       1  UNL1        0.1553
     30 C           8.1337   77.7993   25.0052 C.3     1  UNL1        0.0345
     31 C           9.0439   77.2226   26.0471 C.ar    1  UNL1        0.0202
     32 C          10.4030   77.4859   26.2604 C.ar    1  UNL1        0.1946
     33 O          10.8537   76.7504   27.2616 O.2     1  UNL1       -0.4492
     34 C           9.8530   76.0409   27.7229 C.ar    1  UNL1        0.1452
     35 C           9.8743   75.1351   28.7777 C.ar    1  UNL1        0.0375
     36 C           8.6755   74.4795   29.1088 C.ar    1  UNL1        0.0031
     37 C           7.4798   74.7377   28.3852 C.ar    1  UNL1        0.0002
     38 C           7.5023   75.6671   27.3176 C.ar    1  UNL1        0.0028
     39 C           8.7095   76.2982   27.0169 C.ar    1  UNL1        0.0337
     40 C           6.2190   74.0403   28.7447 C.ar    1  UNL1        0.0000
     41 C           5.7645   72.9459   27.9844 C.ar    1  UNL1        0.0000
     42 C           4.5764   72.2918   28.3247 C.ar    1  UNL1        0.0000
     43 C           3.8304   72.7203   29.4249 C.ar    1  UNL1        0.0000
     44 C           4.2708   73.8045   30.1871 C.ar    1  UNL1        0.0000
     45 C           5.4575   74.4629   29.8510 C.ar    1  UNL1        0.0000
@<TRIPOS>BOND
     1    30    31    1
     2    31    32   ar
     3    32    26    1
     4    26    27    2
     5    26    28   am
     6    28     1    1
     7     1     2   ar
     8     2     3   ar
     9     3     4   ar
    10     4     7    1
    11     7     8    1
    12     8     9    1
    13     9    10    1
    14    10    13    1
    15    13    14    1
    16    14    15    1
    17    15    16   ar
    18    16    17   ar
    19    17    18    1
    20    17    19   ar
    21    19    20   ar
    22    20    22    1
    23    22    23    2
    24    22    24    1
    25    20    21   ar
    26    10    11    1
    27    11    12    1
    28     4     5   ar
    29     5     6   ar
    30    32    33   ar
    31    33    34   ar
    32    34    35   ar
    33    35    36   ar
    34    36    37   ar
    35    37    40    1
    36    40    41   ar
    37    41    42   ar
    38    42    43   ar
    39    43    44   ar
    40    44    45   ar
    41    37    38   ar
    42    38    39   ar
    43    39    31   ar
    44     6     1   ar
    45    39    34   ar
    46    12     7    1
    47    45    40   ar
    48    21    15   ar
    49    28    29    1
    50    24    25    1
@<TRIPOS>MOLECULE
*****
 45 50 0 0 0
SMALL
GASTEIGER

@<TRIPOS>ATOM
      1 C          11.8380   80.3860   25.0556 C.ar    1  UNL1        0.0702
      2 C          11.1111   81.5800   24.9395 C.ar    1  UNL1        0.0191
      3 C          11.7682   82.7780   24.6537 C.ar    1  UNL1        0.0356
      4 C          13.1672   82.7874   24.4939 C.ar    1  UNL1        0.1318
      5 N          13.8475   81.6137   24.6326 N.ar    1  UNL1       -0.2279
      6 C          13.2288   80.4363   24.9105 C.ar    1  UNL1        0.1149
      7 N          13.8916   84.0081   24.1997 N.pl3   1  UNL1       -0.2932
      8 C          13.7006   85.1993   25.0487 C.3     1  UNL1        0.0923
      9 C          14.6479   86.3407   24.6657 C.3     1  UNL1        0.0252
     10 C          14.6134   86.5395   23.1443 C.3     1  UNL1        0.0472
     11 C          15.1236   85.2733   22.4143 C.3     1  UNL1        0.0252
     12 C          15.0066   83.9729   23.2359 C.3     1  UNL1        0.0923
     13 C          15.3928   87.8059   22.7362 C.3     1  UNL1        0.2054
     14 O          15.6736   87.8002   21.3337 O.3     1  UNL1       -0.4754
     15 C          14.7686   87.5045   20.3010 C.ar    1  UNL1        0.1393
     16 C          15.0445   86.4000   19.4884 C.ar    1  UNL1        0.0436
     17 C          14.1875   86.0558   18.4408 C.ar    1  UNL1        0.0378
     18 BR         14.5913   84.5529   17.3334 Br      1  UNL1       -0.0489
     19 C          13.0370   86.8107   18.2010 C.ar    1  UNL1        0.0133
     20 C          12.7286   87.9146   19.0147 C.ar    1  UNL1        0.0790
     21 C          13.5966   88.2518   20.0693 C.ar    1  UNL1        0.0434
     22 C          11.5057   88.7119   18.7692 C.2     1  UNL1        0.3381
     23 O          11.4473   89.5074   17.7926 O.2     1  UNL1       -0.2451
     24 O          10.4070   88.5924   19.6165 O.3     1  UNL1       -0.4771
     25 H           9.5659   89.1342   19.4576 H       1  UNL1        0.2954
     26 C          10.1895   78.5270   24.5552 C.2     1  UNL1        0.2839
     27 O          10.1464   78.7728   23.3197 O.2     1  UNL1       -0.2665
     28 N          11.1985   79.1378   25.3733 N.am    1  UNL1       -0.2766
     29 H          11.5634   78.5911   26.1852 H       1  UNL1        0.1553
     30 C           8.6009   78.7040   27.3668 C.3     1  UNL1        0.0345
     31 C           8.5611   77.6161   26.3364 C.ar    1  UNL1        0.0202
     32 C           9.2443   77.5454   25.1157 C.ar    1  UNL1        0.1946
     33 O           8.9157   76.4355   24.4780 O.2     1  UNL1       -0.4492
     34 C           8.0728   75.7724   25.2312 C.ar    1  UNL1        0.1452
     35 C           7.4745   74.5479   24.9547 C.ar    1  UNL1        0.0375
     36 C           6.5955   74.0118   25.9120 C.ar    1  UNL1        0.0031
     37 C           6.3291   74.7033   27.1249 C.ar    1  UNL1        0.0002
     38 C           6.9588   75.9480   27.3662 C.ar    1  UNL1        0.0028
     39 C           7.8244   76.4496   26.3939 C.ar    1  UNL1        0.0337
     40 C           5.3997   74.1269   28.1294 C.ar    1  UNL1        0.0000
     41 C           4.9313   74.9084   29.2029 C.ar    1  UNL1        0.0000
     42 C           4.0571   74.3625   30.1478 C.ar    1  UNL1        0.0000
     43 C           3.6405   73.0345   30.0326 C.ar    1  UNL1        0.0000
     44 C           4.0978   72.2490   28.9723 C.ar    1  UNL1        0.0000
     45 C           4.9728   72.7892   28.0250 C.ar    1  UNL1        0.0000
@<TRIPOS>BOND
     1    30    31    1
     2    31    32   ar
     3    32    26    1
     4    26    27    2
     5    26    28   am
     6    28     1    1
     7     1     2   ar
     8     2     3   ar
     9     3     4   ar
    10     4     7    1
    11     7     8    1
    12     8     9    1
    13     9    10    1
    14    10    13    1
    15    13    14    1
    16    14    15    1
    17    15    16   ar
    18    16    17   ar
    19    17    18    1
    20    17    19   ar
    21    19    20   ar
    22    20    22    1
    23    22    23    2
    24    22    24    1
    25    20    21   ar
    26    10    11    1
    27    11    12    1
    28     4     5   ar
    29     5     6   ar
    30    32    33   ar
    31    33    34   ar
    32    34    35   ar
    33    35    36   ar
    34    36    37   ar
    35    37    40    1
    36    40    41   ar
    37    41    42   ar
    38    42    43   ar
    39    43    44   ar
    40    44    45   ar
    41    37    38   ar
    42    38    39   ar
    43    39    31   ar
    44     6     1   ar
    45    39    34   ar
    46    12     7    1
    47    45    40   ar
    48    21    15   ar
    49    28    29    1
    50    24    25    1
@<TRIPOS>MOLECULE
*****
 45 50 0 0 0
SMALL
GASTEIGER

@<TRIPOS>ATOM
      1 C          11.8834   80.4097   25.0471 C.ar    1  UNL1        0.0702
      2 C          11.1645   81.6105   24.9528 C.ar    1  UNL1        0.0191
      3 C          11.8284   82.8076   24.6793 C.ar    1  UNL1        0.0356
      4 C          13.2263   82.8092   24.5102 C.ar    1  UNL1        0.1318
      5 N          13.8989   81.6287   24.6276 N.ar    1  UNL1       -0.2279
      6 C          13.2735   80.4521   24.8933 C.ar    1  UNL1        0.1149
      7 N          13.9576   84.0287   24.2282 N.pl3   1  UNL1       -0.2932
      8 C          13.7542   85.2202   25.0736 C.3     1  UNL1        0.0923
      9 C          14.7098   86.3600   24.7068 C.3     1  UNL1        0.0252
     10 C          14.7015   86.5587   23.1850 C.3     1  UNL1        0.0472
     11 C          15.2219   85.2916   22.4639 C.3     1  UNL1        0.0252
     12 C          15.0888   83.9915   23.2834 C.3     1  UNL1        0.0923
     13 C          15.4898   87.8237   22.7901 C.3     1  UNL1        0.2054
     14 O          15.7309   87.8532   21.3805 O.3     1  UNL1       -0.4754
     15 C          14.8448   87.4406   20.3718 C.ar    1  UNL1        0.1393
     16 C          13.6766   88.1868   20.1847 C.ar    1  UNL1        0.0436
     17 C          12.7518   87.8261   19.2024 C.ar    1  UNL1        0.0378
     18 BR         11.1554   88.8496   18.9740 Br      1  UNL1       -0.0489
     19 C          12.9922   86.7165   18.3885 C.ar    1  UNL1        0.0133
     20 C          14.1672   85.9612   18.5453 C.ar    1  UNL1        0.0790
     21 C          15.0942   86.3341   19.5357 C.ar    1  UNL1        0.0434
     22 C          14.4297   84.7899   17.6789 C.2     1  UNL1        0.3381
     23 O          15.5640   84.6257   17.1532 O.2     1  UNL1       -0.2451
     24 O          13.4247   83.8574   17.4343 O.3     1  UNL1       -0.4771
     25 H          13.5940   83.0531   16.8423 H       1  UNL1        0.2954
     26 C          10.1953   78.5858   24.5491 C.2     1  UNL1        0.2839
     27 O          10.1182   78.8648   23.3224 O.2     1  UNL1       -0.2665
     28 N          11.2369   79.1618   25.3516 N.am    1  UNL1       -0.2766
     29 H          11.6188   78.5893   26.1373 H       1  UNL1        0.1553
     30 C           8.5927   78.7726   27.3521 C.3     1  UNL1        0.0345
     31 C           8.5651   77.6768   26.3296 C.ar    1  UNL1        0.0202
     32 C           9.2543   77.6019   25.1125 C.ar    1  UNL1        0.1946
     33 O           8.9362   76.4852   24.4815 O.2     1  UNL1       -0.4492
     34 C           8.0945   75.8218   25.2357 C.ar    1  UNL1        0.1452
     35 C           7.5059   74.5912   24.9656 C.ar    1  UNL1        0.0375
     36 C           6.6261   74.0562   25.9228 C.ar    1  UNL1        0.0031
     37 C           6.3494   74.7547   27.1293 C.ar    1  UNL1        0.0002
     38 C           6.9695   76.0054   27.3643 C.ar    1  UNL1        0.0028
     39 C           7.8361   76.5058   26.3923 C.ar    1  UNL1        0.0337
     40 C           5.4194   74.1792   28.1338 C.ar    1  UNL1        0.0000
     41 C           4.9529   74.9609   29.2079 C.ar    1  UNL1        0.0000
     42 C           4.0781   74.4160   30.1529 C.ar    1  UNL1        0.0000
     43 C           3.6590   73.0887   30.0370 C.ar    1  UNL1        0.0000
     44 C           4.1144   72.3031   28.9760 C.ar    1  UNL1        0.0000
     45 C           4.9901   72.8424   28.0287 C.ar    1  UNL1        0.0000
@<TRIPOS>BOND
     1    30    31    1
     2    31    32   ar
     3    32    26    1
     4    26    27    2
     5    26    28   am
     6    28     1    1
     7     1     2   ar
     8     2     3   ar
     9     3     4   ar
    10     4     7    1
    11     7     8    1
    12     8     9    1
    13     9    10    1
    14    10    13    1
    15    13    14    1
    16    14    15    1
    17    15    16   ar
    18    16    17   ar
    19    17    18    1
    20    17    19   ar
    21    19    20   ar
    22    20    22    1
    23    22    23    2
    24    22    24    1
    25    20    21   ar
    26    10    11    1
    27    11    12    1
    28     4     5   ar
    29     5     6   ar
    30    32    33   ar
    31    33    34   ar
    32    34    35   ar
    33    35    36   ar
    34    36    37   ar
    35    37    40    1
    36    40    41   ar
    37    41    42   ar
    38    42    43   ar
    39    43    44   ar
    40    44    45   ar
    41    37    38   ar
    42    38    39   ar
    43    39    31   ar
    44     6     1   ar
    45    39    34   ar
    46    12     7    1
    47    45    40   ar
    48    21    15   ar
    49    28    29    1
    50    24    25    1
@<TRIPOS>MOLECULE
*****
 45 50 0 0 0
SMALL
GASTEIGER

@<TRIPOS>ATOM
      1 C          12.0361   81.1757   25.2060 C.ar    1  UNL1        0.0702
      2 C          13.4020   81.0574   24.9092 C.ar    1  UNL1        0.0191
      3 C          14.1063   82.1471   24.3944 C.ar    1  UNL1        0.0356
      4 C          13.4384   83.3646   24.1613 C.ar    1  UNL1        0.1318
      5 N          12.1061   83.4417   24.4414 N.ar    1  UNL1       -0.2279
      6 C          11.4007   82.3943   24.9428 C.ar    1  UNL1        0.1149
      7 N          14.1287   84.5210   23.6250 N.pl3   1  UNL1       -0.2932
      8 C          14.2371   85.7519   24.4307 C.3     1  UNL1        0.0923
      9 C          15.1141   86.8106   23.7549 C.3     1  UNL1        0.0252
     10 C          14.6915   86.9574   22.2868 C.3     1  UNL1        0.0472
     11 C          14.9176   85.6338   21.5165 C.3     1  UNL1        0.0252
     12 C          14.9465   84.3745   22.4070 C.3     1  UNL1        0.0923
     13 C          15.4074   88.1514   21.6240 C.3     1  UNL1        0.2054
     14 O          14.4616   89.1266   21.1764 O.3     1  UNL1       -0.4754
     15 C          13.8705   89.1959   19.9042 C.ar    1  UNL1        0.1393
     16 C          14.7181   89.2879   18.7954 C.ar    1  UNL1        0.0436
     17 C          14.1935   89.3657   17.5035 C.ar    1  UNL1        0.0378
     18 BR         15.3686   89.5066   16.0043 Br      1  UNL1       -0.0489
     19 C          12.8107   89.3426   17.3070 C.ar    1  UNL1        0.0133
     20 C          11.9386   89.2328   18.4039 C.ar    1  UNL1        0.0790
     21 C          12.4767   89.1522   19.7013 C.ar    1  UNL1        0.0434
     22 C          10.4729   89.1993   18.1992 C.2     1  UNL1        0.3381
     23 O           9.9804   89.4500   17.0659 O.2     1  UNL1       -0.2451
     24 O           9.6223   88.8917   19.2581 O.3     1  UNL1       -0.4771
     25 H           8.6179   88.8670   19.1286 H       1  UNL1        0.2954
     26 C           9.9719   79.7051   25.2277 C.2     1  UNL1        0.2839
     27 O           9.6329   80.0057   24.0515 O.2     1  UNL1       -0.2665
     28 N          11.2728   80.0680   25.7141 N.am    1  UNL1       -0.2766
     29 H          11.7331   79.4264   26.3979 H       1  UNL1        0.1553
     30 C           9.0103   76.6582   24.7262 C.3     1  UNL1        0.0345
     31 C           8.6205   77.5925   25.8316 C.ar    1  UNL1        0.0202
     32 C           9.0446   78.9094   26.0510 C.ar    1  UNL1        0.1946
     33 O           8.4941   79.3829   27.1551 O.2     1  UNL1       -0.4492
     34 C           7.7182   78.4503   27.6508 C.ar    1  UNL1        0.1452
     35 C           6.9411   78.5204   28.8018 C.ar    1  UNL1        0.0375
     36 C           6.1764   77.3937   29.1514 C.ar    1  UNL1        0.0031
     37 C           6.1992   76.2202   28.3499 C.ar    1  UNL1        0.0002
     38 C           7.0049   76.1907   27.1863 C.ar    1  UNL1        0.0028
     39 C           7.7507   77.3267   26.8706 C.ar    1  UNL1        0.0337
     40 C           5.3864   75.0365   28.7282 C.ar    1  UNL1        0.0000
     41 C           4.4360   75.1219   29.7636 C.ar    1  UNL1        0.0000
     42 C           3.6729   74.0053   30.1184 C.ar    1  UNL1        0.0000
     43 C           3.8478   72.7939   29.4455 C.ar    1  UNL1        0.0000
     44 C           4.7870   72.6964   28.4166 C.ar    1  UNL1        0.0000
     45 C           5.5537   73.8094   28.0582 C.ar    1  UNL1        0.0000
@<TRIPOS>BOND
     1    30    31    1
     2    31    32   ar
     3    32    26    1
     4    26    27    2
     5    26    28   am
     6    28     1    1
     7     1     2   ar
     8     2     3   ar
     9     3     4   ar
    10     4     7    1
    11     7     8    1
    12     8     9    1
    13     9    10    1
    14    10    13    1
    15    13    14    1
    16    14    15    1
    17    15    16   ar
    18    16    17   ar
    19    17    18    1
    20    17    19   ar
    21    19    20   ar
    22    20    22    1
    23    22    23    2
    24    22    24    1
    25    20    21   ar
    26    10    11    1
    27    11    12    1
    28     4     5   ar
    29     5     6   ar
    30    32    33   ar
    31    33    34   ar
    32    34    35   ar
    33    35    36   ar
    34    36    37   ar
    35    37    40    1
    36    40    41   ar
    37    41    42   ar
    38    42    43   ar
    39    43    44   ar
    40    44    45   ar
    41    37    38   ar
    42    38    39   ar
    43    39    31   ar
    44     6     1   ar
    45    39    34   ar
    46    12     7    1
    47    45    40   ar
    48    21    15   ar
    49    28    29    1
    50    24    25    1
@<TRIPOS>MOLECULE
*****
 45 50 0 0 0
SMALL
GASTEIGER

@<TRIPOS>ATOM
      1 C          12.8238   80.8314   25.4639 C.ar    1  UNL1        0.0702
      2 C          14.1515   80.9394   25.0244 C.ar    1  UNL1        0.0191
      3 C          14.5908   82.1052   24.3947 C.ar    1  UNL1        0.0356
      4 C          13.6929   83.1704   24.1901 C.ar    1  UNL1        0.1318
      5 N          12.4038   83.0269   24.6110 N.ar    1  UNL1       -0.2279
      6 C          11.9544   81.9017   25.2258 C.ar    1  UNL1        0.1149
      7 N          14.1041   84.3981   23.5381 N.pl3   1  UNL1       -0.2932
      8 C          13.7823   85.7003   24.1519 C.3     1  UNL1        0.0923
      9 C          14.4146   86.8705   23.3919 C.3     1  UNL1        0.0252
     10 C          14.1426   86.7061   21.8904 C.3     1  UNL1        0.0472
     11 C          14.8050   85.4149   21.3515 C.3     1  UNL1        0.0252
     12 C          15.0676   84.3375   22.4238 C.3     1  UNL1        0.0923
     13 C          14.5830   87.9610   21.1100 C.3     1  UNL1        0.2054
     14 O          13.4479   88.7264   20.6958 O.3     1  UNL1       -0.4754
     15 C          12.9635   88.8608   19.3842 C.ar    1  UNL1        0.1393
     16 C          11.5928   89.0822   19.2148 C.ar    1  UNL1        0.0436
     17 C          11.0471   89.2189   17.9366 C.ar    1  UNL1        0.0378
     18 BR          9.1703   89.5051   17.7270 Br      1  UNL1       -0.0489
     19 C          11.8719   89.1445   16.8117 C.ar    1  UNL1        0.0133
     20 C          13.2551   88.9404   16.9567 C.ar    1  UNL1        0.0790
     21 C          13.7960   88.8066   18.2486 C.ar    1  UNL1        0.0434
     22 C          14.1338   88.8696   15.7675 C.2     1  UNL1        0.3381
     23 O          13.7101   88.3723   14.6890 O.2     1  UNL1       -0.2451
     24 O          15.4393   89.3505   15.8287 O.3     1  UNL1       -0.4771
     25 H          16.0488   89.3059   15.0208 H       1  UNL1        0.2954
     26 C          11.5649   78.6322   25.4112 C.2     1  UNL1        0.2839
     27 O          11.6863   78.4870   24.1651 O.2     1  UNL1       -0.2665
     28 N          12.3294   79.6371   26.0941 N.am    1  UNL1       -0.2766
     29 H          12.6341   79.4355   27.0727 H       1  UNL1        0.1553
     30 C           8.3938   78.1493   24.9974 C.3     1  UNL1        0.0345
     31 C           9.3194   77.4968   25.9795 C.ar    1  UNL1        0.0202
     32 C          10.6943   77.7021   26.1515 C.ar    1  UNL1        0.1946
     33 O          11.1535   76.9093   27.1038 O.2     1  UNL1       -0.4492
     34 C          10.1445   76.2171   27.5734 C.ar    1  UNL1        0.1452
     35 C          10.1705   75.2672   28.5886 C.ar    1  UNL1        0.0375
     36 C           8.9610   74.6414   28.9379 C.ar    1  UNL1        0.0031
     37 C           7.7501   74.9727   28.2715 C.ar    1  UNL1        0.0002
     38 C           7.7683   75.9450   27.2428 C.ar    1  UNL1        0.0028
     39 C           8.9864   76.5448   26.9225 C.ar    1  UNL1        0.0337
     40 C           6.4782   74.3062   28.6498 C.ar    1  UNL1        0.0000
     41 C           5.9703   73.2430   27.8790 C.ar    1  UNL1        0.0000
     42 C           4.7718   72.6180   28.2371 C.ar    1  UNL1        0.0000
     43 C           4.0684   73.0447   29.3657 C.ar    1  UNL1        0.0000
     44 C           4.5619   74.0980   30.1386 C.ar    1  UNL1        0.0000
     45 C           5.7593   74.7274   29.7848 C.ar    1  UNL1        0.0000
@<TRIPOS>BOND
     1    30    31    1
     2    31    32   ar
     3    32    26    1
     4    26    27    2
     5    26    28   am
     6    28     1    1
     7     1     2   ar
     8     2     3   ar
     9     3     4   ar
    10     4     7    1
    11     7     8    1
    12     8     9    1
    13     9    10    1
    14    10    13    1
    15    13    14    1
    16    14    15    1
    17    15    16   ar
    18    16    17   ar
    19    17    18    1
    20    17    19   ar
    21    19    20   ar
    22    20    22    1
    23    22    23    2
    24    22    24    1
    25    20    21   ar
    26    10    11    1
    27    11    12    1
    28     4     5   ar
    29     5     6   ar
    30    32    33   ar
    31    33    34   ar
    32    34    35   ar
    33    35    36   ar
    34    36    37   ar
    35    37    40    1
    36    40    41   ar
    37    41    42   ar
    38    42    43   ar
    39    43    44   ar
    40    44    45   ar
    41    37    38   ar
    42    38    39   ar
    43    39    31   ar
    44     6     1   ar
    45    39    34   ar
    46    12     7    1
    47    45    40   ar
    48    21    15   ar
    49    28    29    1
    50    24    25    1
@<TRIPOS>MOLECULE
*****
 45 50 0 0 0
SMALL
GASTEIGER

@<TRIPOS>ATOM
      1 C          11.0848   79.4023   23.9045 C.ar    1  UNL1        0.0702
      2 C           9.9430   79.6758   23.1368 C.ar    1  UNL1        0.0191
      3 C           9.0551   78.6502   22.8078 C.ar    1  UNL1        0.0356
      4 C           9.3150   77.3350   23.2386 C.ar    1  UNL1        0.1318
      5 N          10.4436   77.0981   23.9664 N.ar    1  UNL1       -0.2279
      6 C          11.3216   78.0806   24.2982 C.ar    1  UNL1        0.1149
      7 N           8.4227   76.2385   22.9178 N.pl3   1  UNL1       -0.2932
      8 C           8.6822   75.4026   21.7305 C.3     1  UNL1        0.0923
      9 C           7.7159   74.2177   21.6345 C.3     1  UNL1        0.0252
     10 C           6.2805   74.7149   21.8536 C.3     1  UNL1        0.0472
     11 C           6.1170   75.3092   23.2736 C.3     1  UNL1        0.0252
     12 C           7.4320   75.7966   23.9162 C.3     1  UNL1        0.0923
     13 C           5.2597   73.5958   21.5650 C.3     1  UNL1        0.2054
     14 O           4.1733   74.0897   20.7764 O.3     1  UNL1       -0.4754
     15 C           3.7871   75.4324   20.6327 C.ar    1  UNL1        0.1393
     16 C           4.3998   76.1829   19.6238 C.ar    1  UNL1        0.0436
     17 C           4.0644   77.5249   19.4322 C.ar    1  UNL1        0.0378
     18 BR          4.9246   78.5358   18.0587 Br      1  UNL1       -0.0489
     19 C           3.1024   78.1289   20.2451 C.ar    1  UNL1        0.0133
     20 C           2.4597   77.3909   21.2542 C.ar    1  UNL1        0.0790
     21 C           2.8023   76.0388   21.4377 C.ar    1  UNL1        0.0434
     22 C           1.4333   78.0250   22.1121 C.2     1  UNL1        0.3381
     23 O           1.7001   79.0750   22.7573 O.2     1  UNL1       -0.2451
     24 O           0.1619   77.4664   22.2166 O.3     1  UNL1       -0.4771
     25 H          -0.5471   77.8921   22.8016 H       1  UNL1        0.2954
     26 C          11.6917   81.6335   24.9425 C.2     1  UNL1        0.2839
     27 O          10.6897   81.6546   25.7068 O.2     1  UNL1       -0.2665
     28 N          12.0342   80.4284   24.2418 N.am    1  UNL1       -0.2766
     29 H          13.0461   80.2391   24.0650 H       1  UNL1        0.1553
     30 C          13.6148   82.8636   27.2335 C.3     1  UNL1        0.0345
     31 C          13.3675   83.3741   25.8460 C.ar    1  UNL1        0.0202
     32 C          12.5398   82.8350   24.8528 C.ar    1  UNL1        0.1946
     33 O          12.6198   83.5642   23.7536 O.2     1  UNL1       -0.4492
     34 C          13.4383   84.5603   23.9893 C.ar    1  UNL1        0.1452
     35 C          13.8091   85.5751   23.1140 C.ar    1  UNL1        0.0375
     36 C          14.7066   86.5523   23.5789 C.ar    1  UNL1        0.0031
     37 C          15.2171   86.5014   24.9044 C.ar    1  UNL1        0.0002
     38 C          14.8142   85.4503   25.7627 C.ar    1  UNL1        0.0028
     39 C          13.9229   84.4981   25.2674 C.ar    1  UNL1        0.0337
     40 C          16.1636   87.5397   25.3850 C.ar    1  UNL1        0.0000
     41 C          16.0525   88.0618   26.6879 C.ar    1  UNL1        0.0000
     42 C          16.9445   89.0403   27.1373 C.ar    1  UNL1        0.0000
     43 C          17.9557   89.5074   26.2947 C.ar    1  UNL1        0.0000
     44 C          18.0765   88.9974   25.0002 C.ar    1  UNL1        0.0000
     45 C          17.1868   88.0196   24.5451 C.ar    1  UNL1        0.0000
@<TRIPOS>BOND
     1    30    31    1
     2    31    32   ar
     3    32    26    1
     4    26    27    2
     5    26    28   am
     6    28     1    1
     7     1     2   ar
     8     2     3   ar
     9     3     4   ar
    10     4     7    1
    11     7     8    1
    12     8     9    1
    13     9    10    1
    14    10    13    1
    15    13    14    1
    16    14    15    1
    17    15    16   ar
    18    16    17   ar
    19    17    18    1
    20    17    19   ar
    21    19    20   ar
    22    20    22    1
    23    22    23    2
    24    22    24    1
    25    20    21   ar
    26    10    11    1
    27    11    12    1
    28     4     5   ar
    29     5     6   ar
    30    32    33   ar
    31    33    34   ar
    32    34    35   ar
    33    35    36   ar
    34    36    37   ar
    35    37    40    1
    36    40    41   ar
    37    41    42   ar
    38    42    43   ar
    39    43    44   ar
    40    44    45   ar
    41    37    38   ar
    42    38    39   ar
    43    39    31   ar
    44     6     1   ar
    45    39    34   ar
    46    12     7    1
    47    45    40   ar
    48    21    15   ar
    49    28    29    1
    50    24    25    1
@<TRIPOS>MOLECULE
*****
 45 50 0 0 0
SMALL
GASTEIGER

@<TRIPOS>ATOM
      1 C           8.3515   77.5435   22.6838 C.ar    1  UNL1        0.0702
      2 C           8.7067   78.7342   22.0329 C.ar    1  UNL1        0.0191
      3 C           9.6204   79.6109   22.6204 C.ar    1  UNL1        0.0356
      4 C          10.1768   79.3026   23.8766 C.ar    1  UNL1        0.1318
      5 N           9.7962   78.1472   24.4928 N.ar    1  UNL1       -0.2279
      6 C           8.9089   77.2795   23.9398 C.ar    1  UNL1        0.1149
      7 N          11.1266   80.1847   24.5256 N.pl3   1  UNL1       -0.2932
      8 C          10.6921   81.5123   24.9997 C.3     1  UNL1        0.0923
      9 C          11.7947   82.2388   25.7764 C.3     1  UNL1        0.0252
     10 C          13.1075   82.1615   24.9853 C.3     1  UNL1        0.0472
     11 C          13.5674   80.6917   24.8288 C.3     1  UNL1        0.0252
     12 C          12.4340   79.6524   24.9511 C.3     1  UNL1        0.0923
     13 C          14.1915   83.0499   25.6283 C.3     1  UNL1        0.2054
     14 O          13.9338   84.4331   25.3709 O.3     1  UNL1       -0.4754
     15 C          13.9735   85.0726   24.1209 C.ar    1  UNL1        0.1393
     16 C          13.3493   86.3190   24.0059 C.ar    1  UNL1        0.0436
     17 C          13.3480   87.0043   22.7891 C.ar    1  UNL1        0.0378
     18 BR         12.4762   88.6981   22.6499 Br      1  UNL1       -0.0489
     19 C          13.9817   86.4515   21.6738 C.ar    1  UNL1        0.0133
     20 C          14.6312   85.2085   21.7687 C.ar    1  UNL1        0.0790
     21 C          14.6295   84.5269   22.9995 C.ar    1  UNL1        0.0434
     22 C          15.3114   84.6233   20.5913 C.2     1  UNL1        0.3381
     23 O          15.6422   85.3523   19.6170 O.2     1  UNL1       -0.2451
     24 O          15.5915   83.2599   20.5472 O.3     1  UNL1       -0.4771
     25 H          16.0558   82.8496   19.7457 H       1  UNL1        0.2954
     26 C           6.6487   76.8913   20.9234 C.2     1  UNL1        0.2839
     27 O           7.1089   77.6796   20.0542 O.2     1  UNL1       -0.2665
     28 N           7.3956   76.6286   22.1207 N.am    1  UNL1       -0.2766
     29 H           7.3187   75.6763   22.5431 H       1  UNL1        0.1553
     30 C           4.0989   78.0090   19.2773 C.3     1  UNL1        0.0345
     31 C           4.2739   76.6757   19.9394 C.ar    1  UNL1        0.0202
     32 C           5.3825   76.1910   20.6452 C.ar    1  UNL1        0.1946
     33 O           5.1552   74.9532   21.0483 O.2     1  UNL1       -0.4492
     34 C           3.9490   74.6180   20.6603 C.ar    1  UNL1        0.1452
     35 C           3.2976   73.4084   20.8746 C.ar    1  UNL1        0.0375
     36 C           1.9941   73.2621   20.3686 C.ar    1  UNL1        0.0031
     37 C           1.3643   74.3212   19.6602 C.ar    1  UNL1        0.0002
     38 C           2.0636   75.5362   19.4635 C.ar    1  UNL1        0.0028
     39 C           3.3554   75.6455   19.9790 C.ar    1  UNL1        0.0337
     40 C          -0.0134   74.1559   19.1312 C.ar    1  UNL1        0.0000
     41 C          -0.9526   75.1989   19.2418 C.ar    1  UNL1        0.0000
     42 C          -2.2495   75.0400   18.7437 C.ar    1  UNL1        0.0000
     43 C          -2.6231   73.8421   18.1305 C.ar    1  UNL1        0.0000
     44 C          -1.7006   72.8001   18.0145 C.ar    1  UNL1        0.0000
     45 C          -0.4027   72.9530   18.5116 C.ar    1  UNL1        0.0000
@<TRIPOS>BOND
     1    30    31    1
     2    31    32   ar
     3    32    26    1
     4    26    27    2
     5    26    28   am
     6    28     1    1
     7     1     2   ar
     8     2     3   ar
     9     3     4   ar
    10     4     7    1
    11     7     8    1
    12     8     9    1
    13     9    10    1
    14    10    13    1
    15    13    14    1
    16    14    15    1
    17    15    16   ar
    18    16    17   ar
    19    17    18    1
    20    17    19   ar
    21    19    20   ar
    22    20    22    1
    23    22    23    2
    24    22    24    1
    25    20    21   ar
    26    10    11    1
    27    11    12    1
    28     4     5   ar
    29     5     6   ar
    30    32    33   ar
    31    33    34   ar
    32    34    35   ar
    33    35    36   ar
    34    36    37   ar
    35    37    40    1
    36    40    41   ar
    37    41    42   ar
    38    42    43   ar
    39    43    44   ar
    40    44    45   ar
    41    37    38   ar
    42    38    39   ar
    43    39    31   ar
    44     6     1   ar
    45    39    34   ar
    46    12     7    1
    47    45    40   ar
    48    21    15   ar
    49    28    29    1
    50    24    25    1
@<TRIPOS>MOLECULE
*****
 45 50 0 0 0
SMALL
GASTEIGER

@<TRIPOS>ATOM
      1 C          11.7989   80.4477   24.3161 C.ar    1  UNL1        0.0702
      2 C          10.4696   80.7046   23.9493 C.ar    1  UNL1        0.0191
      3 C           9.5189   79.6834   23.9914 C.ar    1  UNL1        0.0356
      4 C           9.9007   78.3886   24.3922 C.ar    1  UNL1        0.1318
      5 N          11.2047   78.1663   24.7236 N.ar    1  UNL1       -0.2279
      6 C          12.1467   79.1449   24.6898 C.ar    1  UNL1        0.1149
      7 N           8.9483   77.2972   24.4479 N.pl3   1  UNL1       -0.2932
      8 C           7.5434   77.5648   24.8094 C.3     1  UNL1        0.0923
      9 C           6.6650   76.3163   24.6815 C.3     1  UNL1        0.0252
     10 C           7.3621   75.1333   25.3671 C.3     1  UNL1        0.0472
     11 C           8.7040   74.8075   24.6674 C.3     1  UNL1        0.0252
     12 C           9.3170   75.9861   23.8833 C.3     1  UNL1        0.0923
     13 C           6.4267   73.9097   25.4405 C.3     1  UNL1        0.2054
     14 O           5.5639   73.9969   26.5780 O.3     1  UNL1       -0.4754
     15 C           5.9205   74.4262   27.8670 C.ar    1  UNL1        0.1393
     16 C           7.0728   73.8793   28.4411 C.ar    1  UNL1        0.0436
     17 C           7.4787   74.2599   29.7220 C.ar    1  UNL1        0.0378
     18 BR          9.0468   73.4890   30.4935 Br      1  UNL1       -0.0489
     19 C           6.7381   75.2018   30.4399 C.ar    1  UNL1        0.0133
     20 C           5.5864   75.7790   29.8776 C.ar    1  UNL1        0.0790
     21 C           5.1870   75.3913   28.5855 C.ar    1  UNL1        0.0434
     22 C           4.8037   76.7840   30.6317 C.2     1  UNL1        0.3381
     23 O           5.3858   77.7288   31.2305 O.2     1  UNL1       -0.2451
     24 O           3.4151   76.6949   30.6889 O.3     1  UNL1       -0.4771
     25 H           2.8706   77.3770   31.2030 H       1  UNL1        0.2954
     26 C          12.7491   82.6935   25.0074 C.2     1  UNL1        0.2839
     27 O          12.0907   82.7451   26.0809 O.2     1  UNL1       -0.2665
     28 N          12.8104   81.4684   24.2617 N.am    1  UNL1       -0.2766
     29 H          13.6895   81.2618   23.7366 H       1  UNL1        0.1553
     30 C          15.3660   82.7833   23.1089 C.3     1  UNL1        0.0345
     31 C          14.6508   83.9221   23.7711 C.ar    1  UNL1        0.0202
     32 C          13.5128   83.8813   24.5867 C.ar    1  UNL1        0.1946
     33 O          13.1729   85.1059   24.9491 O.2     1  UNL1       -0.4492
     34 C          14.0438   85.9363   24.4299 C.ar    1  UNL1        0.1452
     35 C          14.0734   87.3205   24.5593 C.ar    1  UNL1        0.0375
     36 C          15.1073   88.0216   23.9142 C.ar    1  UNL1        0.0031
     37 C          16.0910   87.3328   23.1540 C.ar    1  UNL1        0.0002
     38 C          16.0233   85.9228   23.0473 C.ar    1  UNL1        0.0028
     39 C          14.9834   85.2604   23.7001 C.ar    1  UNL1        0.0337
     40 C          17.1793   88.0836   22.4780 C.ar    1  UNL1        0.0000
     41 C          18.3959   88.3332   23.1412 C.ar    1  UNL1        0.0000
     42 C          19.4185   89.0414   22.5025 C.ar    1  UNL1        0.0000
     43 C          19.2399   89.5069   21.1978 C.ar    1  UNL1        0.0000
     44 C          18.0378   89.2656   20.5292 C.ar    1  UNL1        0.0000
     45 C          17.0115   88.5589   21.1632 C.ar    1  UNL1        0.0000
@<TRIPOS>BOND
     1    30    31    1
     2    31    32   ar
     3    32    26    1
     4    26    27    2
     5    26    28   am
     6    28     1    1
     7     1     2   ar
     8     2     3   ar
     9     3     4   ar
    10     4     7    1
    11     7     8    1
    12     8     9    1
    13     9    10    1
    14    10    13    1
    15    13    14    1
    16    14    15    1
    17    15    16   ar
    18    16    17   ar
    19    17    18    1
    20    17    19   ar
    21    19    20   ar
    22    20    22    1
    23    22    23    2
    24    22    24    1
    25    20    21   ar
    26    10    11    1
    27    11    12    1
    28     4     5   ar
    29     5     6   ar
    30    32    33   ar
    31    33    34   ar
    32    34    35   ar
    33    35    36   ar
    34    36    37   ar
    35    37    40    1
    36    40    41   ar
    37    41    42   ar
    38    42    43   ar
    39    43    44   ar
    40    44    45   ar
    41    37    38   ar
    42    38    39   ar
    43    39    31   ar
    44     6     1   ar
    45    39    34   ar
    46    12     7    1
    47    45    40   ar
    48    21    15   ar
    49    28    29    1
    50    24    25    1
