@<TRIPOS>MOLECULE
*****
 50 55 0 0 0
SMALL
GASTEIGER

@<TRIPOS>ATOM
      1 C          59.5569   83.8654   12.8560 C.2     1  UNL1        0.2483
      2 O          58.3637   83.9083   13.2640 O.2     1  UNL1       -0.2701
      3 N          60.0551   82.6651   12.2423 N.am    1  UNL1       -0.2945
      4 H          60.9351   82.7310   11.6840 H       1  UNL1        0.1501
      5 C          60.6933   87.4723   13.3852 C.ar    1  UNL1        0.0482
      6 C          62.0816   87.3354   13.1724 C.ar    1  UNL1        0.0484
      7 C          62.6209   86.0768   12.8852 C.ar    1  UNL1        0.0146
      8 C          61.7947   84.9582   12.7900 C.ar    1  UNL1        0.0080
      9 C          60.4089   85.0734   12.9829 C.ar    1  UNL1        0.0806
     10 C          59.8603   86.3424   13.2647 C.ar    1  UNL1        0.1440
     11 F          58.5160   86.4988   13.3769 F       1  UNL1       -0.2042
     12 N          62.9495   88.4765   13.2299 N.pl3   1  UNL1       -0.3042
     13 C          63.9339   88.5790   14.3098 C.3     1  UNL1        0.1122
     14 C          64.1444   90.0465   14.6843 C.3     1  UNL1        0.1123
     15 N          64.3519   90.8505   13.4754 N.pl3   1  UNL1       -0.3034
     16 C          63.3666   90.7445   12.3946 C.3     1  UNL1        0.1123
     17 C          63.1562   89.2772   12.0204 C.3     1  UNL1        0.1122
     18 C          65.2077   92.0018   13.5420 C.ar    1  UNL1        0.0595
     19 C          65.7660   92.3859   14.7708 C.ar    1  UNL1        0.0154
     20 C          66.6077   93.4967   14.8460 C.ar    1  UNL1        0.0022
     21 C          66.8970   94.2345   13.6969 C.ar    1  UNL1        0.0123
     22 C          66.3430   93.8681   12.4654 C.ar    1  UNL1        0.0694
     23 CL         66.7259   94.8322   11.0449 Cl      1  UNL1       -0.0813
     24 C          65.4933   92.7493   12.3822 C.ar    1  UNL1        0.0815
     25 CL         64.7558   92.3063   10.8429 Cl      1  UNL1       -0.0801
     26 C          60.0840   88.8211   13.6777 C.3     1  UNL1        0.1722
     27 C          59.5693   90.0321   11.7879 C.3     1  UNL1        0.1746
     28 O          59.0852   89.0895   12.7176 O.3     1  UNL1       -0.3462
     29 C          59.2979   81.4036   12.2588 C.3     1  UNL1        0.1535
     30 C          58.7873   81.0431   10.8822 C.2     1  UNL1        0.2443
     31 O          57.9241   80.1325   10.7483 O.2     1  UNL1       -0.2730
     32 N          59.1934   81.8269    9.7487 N.am    1  UNL1       -0.2825
     33 H          59.7061   82.7190    9.9331 H       1  UNL1        0.1549
     34 C          58.7734   81.5598    8.4006 C.ar    1  UNL1        0.0535
     35 C          57.6119   82.1406    7.8649 C.ar    1  UNL1        0.0353
     36 C          57.2334   81.8392    6.5541 C.ar    1  UNL1        0.1002
     37 N          57.9779   80.9799    5.8090 N.ar    1  UNL1       -0.2422
     38 C          59.0963   80.3903    6.3078 C.ar    1  UNL1        0.1002
     39 C          59.5090   80.6630    7.6142 C.ar    1  UNL1        0.0353
     40 C          60.1383   80.2508   12.8481 C.3     1  UNL1        0.0569
     41 C          61.5517   80.6576   13.1600 C.ar    1  UNL1       -0.0017
     42 C          62.1835   80.5679   14.3965 C.ar    1  UNL1        0.0681
     43 N          63.4329   81.0806   14.3271 N.ar    1  UNL1       -0.3523
     44 C          63.5952   81.4938   13.0581 C.ar    1  UNL1        0.0563
     45 C          64.7211   82.1027   12.5056 C.ar    1  UNL1        0.0170
     46 C          64.6727   82.4658   11.1472 C.ar    1  UNL1        0.0015
     47 C          63.5139   82.2140   10.3798 C.ar    1  UNL1        0.0001
     48 C          62.3929   81.5969   10.9633 C.ar    1  UNL1        0.0012
     49 C          62.4688   81.2515   12.3136 C.ar    1  UNL1        0.0131
     50 H          64.1251   81.1470   15.1062 H       1  UNL1        0.1660
@<TRIPOS>BOND
     1    27    28    1
     2    28    26    1
     3    26     5    1
     4     5     6   ar
     5     6    12    1
     6    12    13    1
     7    13    14    1
     8    14    15    1
     9    15    18    1
    10    18    19   ar
    11    19    20   ar
    12    20    21   ar
    13    21    22   ar
    14    22    23    1
    15    22    24   ar
    16    24    25    1
    17    15    16    1
    18    16    17    1
    19     6     7   ar
    20     7     8   ar
    21     8     9   ar
    22     9     1    1
    23     1     2    2
    24     1     3   am
    25     3    29    1
    26    29    40    1
    27    40    41    1
    28    41    42   ar
    29    42    43   ar
    30    43    44   ar
    31    44    45   ar
    32    45    46   ar
    33    46    47   ar
    34    47    48   ar
    35    48    49   ar
    36    29    30    1
    37    30    31    2
    38    30    32   am
    39    32    34    1
    40    34    35   ar
    41    35    36   ar
    42    36    37   ar
    43    37    38   ar
    44    38    39   ar
    45     9    10   ar
    46    10    11    1
    47    10     5   ar
    48    17    12    1
    49    49    41   ar
    50    39    34   ar
    51    24    18   ar
    52    49    44   ar
    53     3     4    1
    54    43    50    1
    55    32    33    1
@<TRIPOS>MOLECULE
*****
 50 55 0 0 0
SMALL
GASTEIGER

@<TRIPOS>ATOM
      1 C          59.1360   84.2049   12.6372 C.2     1  UNL1        0.2483
      2 O          57.8979   84.4476   12.6472 O.2     1  UNL1       -0.2701
      3 N          59.5946   82.8596   12.4235 N.am    1  UNL1       -0.2945
      4 H          60.5950   82.7209   12.1582 H       1  UNL1        0.1501
      5 C          61.1173   87.0953   14.1543 C.ar    1  UNL1        0.0482
      6 C          61.9102   87.4684   13.0481 C.ar    1  UNL1        0.0484
      7 C          61.8023   86.7628   11.8449 C.ar    1  UNL1        0.0146
      8 C          60.9040   85.7038   11.7240 C.ar    1  UNL1        0.0080
      9 C          60.0944   85.3248   12.8065 C.ar    1  UNL1        0.0806
     10 C          60.1945   86.0392   14.0191 C.ar    1  UNL1        0.1440
     11 F          59.3686   85.7478   15.0570 F       1  UNL1       -0.2042
     12 N          62.8171   88.5767   13.1351 N.pl3   1  UNL1       -0.3042
     13 C          64.0648   88.4292   13.8884 C.3     1  UNL1        0.1122
     14 C          64.4445   89.7629   14.5325 C.3     1  UNL1        0.1123
     15 N          64.3516   90.8439   13.5457 N.pl3   1  UNL1       -0.3034
     16 C          63.1027   90.9883   12.7910 C.3     1  UNL1        0.1123
     17 C          62.7231   89.6547   12.1471 C.3     1  UNL1        0.1122
     18 C          65.2499   91.9597   13.6469 C.ar    1  UNL1        0.0595
     19 C          65.8235   92.2832   14.8861 C.ar    1  UNL1        0.0154
     20 C          66.7063   93.3588   14.9948 C.ar    1  UNL1        0.0022
     21 C          67.0219   94.1215   13.8691 C.ar    1  UNL1        0.0123
     22 C          66.4533   93.8155   12.6278 C.ar    1  UNL1        0.0694
     23 CL         66.8705   94.8094   11.2379 Cl      1  UNL1       -0.0813
     24 C          65.5622   92.7326   12.5109 C.ar    1  UNL1        0.0815
     25 CL         64.8071   92.3667   10.9600 Cl      1  UNL1       -0.0801
     26 C          61.2007   87.8515   15.4571 C.3     1  UNL1        0.1722
     27 C          62.5568   86.9368   17.0779 C.3     1  UNL1        0.1746
     28 O          61.2622   86.9253   16.5201 O.3     1  UNL1       -0.3462
     29 C          58.6776   81.7090   12.4267 C.3     1  UNL1        0.1535
     30 C          58.4700   81.1590   11.0339 C.2     1  UNL1        0.2443
     31 O          57.8362   80.0801   10.8698 O.2     1  UNL1       -0.2730
     32 N          58.8845   81.9341    9.8975 N.am    1  UNL1       -0.2825
     33 H          59.1750   82.9243   10.0642 H       1  UNL1        0.1549
     34 C          58.7417   81.4961    8.5363 C.ar    1  UNL1        0.0535
     35 C          59.7852   80.8395    7.8630 C.ar    1  UNL1        0.0353
     36 C          59.6068   80.4459    6.5344 C.ar    1  UNL1        0.1002
     37 N          58.4360   80.7090    5.8957 N.ar    1  UNL1       -0.2422
     38 C          57.4163   81.3579    6.5174 C.ar    1  UNL1        0.1002
     39 C          57.5539   81.7701    7.8450 C.ar    1  UNL1        0.0353
     40 C          59.1684   80.6013   13.3831 C.3     1  UNL1        0.0569
     41 C          60.6648   80.4562   13.3910 C.ar    1  UNL1       -0.0017
     42 C          61.3951   79.3974   12.8603 C.ar    1  UNL1        0.0681
     43 N          62.7152   79.5671   13.0992 N.ar    1  UNL1       -0.3523
     44 C          62.8248   80.7232   13.7765 C.ar    1  UNL1        0.0563
     45 C          63.9934   81.3145   14.2546 C.ar    1  UNL1        0.0170
     46 C          63.8775   82.5311   14.9516 C.ar    1  UNL1        0.0015
     47 C          62.6110   83.1235   15.1518 C.ar    1  UNL1        0.0001
     48 C          61.4487   82.5050   14.6572 C.ar    1  UNL1        0.0012
     49 C          61.5945   81.2971   13.9731 C.ar    1  UNL1        0.0131
     50 H          63.4885   78.9237   12.8190 H       1  UNL1        0.1660
@<TRIPOS>BOND
     1    27    28    1
     2    28    26    1
     3    26     5    1
     4     5     6   ar
     5     6    12    1
     6    12    13    1
     7    13    14    1
     8    14    15    1
     9    15    18    1
    10    18    19   ar
    11    19    20   ar
    12    20    21   ar
    13    21    22   ar
    14    22    23    1
    15    22    24   ar
    16    24    25    1
    17    15    16    1
    18    16    17    1
    19     6     7   ar
    20     7     8   ar
    21     8     9   ar
    22     9     1    1
    23     1     2    2
    24     1     3   am
    25     3    29    1
    26    29    40    1
    27    40    41    1
    28    41    42   ar
    29    42    43   ar
    30    43    44   ar
    31    44    45   ar
    32    45    46   ar
    33    46    47   ar
    34    47    48   ar
    35    48    49   ar
    36    29    30    1
    37    30    31    2
    38    30    32   am
    39    32    34    1
    40    34    35   ar
    41    35    36   ar
    42    36    37   ar
    43    37    38   ar
    44    38    39   ar
    45     9    10   ar
    46    10    11    1
    47    10     5   ar
    48    17    12    1
    49    49    41   ar
    50    39    34   ar
    51    24    18   ar
    52    49    44   ar
    53     3     4    1
    54    43    50    1
    55    32    33    1
@<TRIPOS>MOLECULE
*****
 50 55 0 0 0
SMALL
GASTEIGER

@<TRIPOS>ATOM
      1 C          59.5117   85.3733    9.1465 C.2     1  UNL1        0.2483
      2 O          58.3340   85.6123    8.7619 O.2     1  UNL1       -0.2701
      3 N          60.0629   84.0575    8.9717 N.am    1  UNL1       -0.2945
      4 H          61.0986   83.9478    9.0471 H       1  UNL1        0.1501
      5 C          60.6258   88.2840   11.3527 C.ar    1  UNL1        0.0482
      6 C          61.8847   88.5684   10.7820 C.ar    1  UNL1        0.0484
      7 C          62.3539   87.7984    9.7123 C.ar    1  UNL1        0.0146
      8 C          61.5793   86.7623    9.1933 C.ar    1  UNL1        0.0080
      9 C          60.3174   86.4711    9.7353 C.ar    1  UNL1        0.0806
     10 C          59.8373   87.2507   10.8090 C.ar    1  UNL1        0.1440
     11 F          58.5885   87.0449   11.3013 F       1  UNL1       -0.2042
     12 N          62.6865   89.6515   11.2744 N.pl3   1  UNL1       -0.3042
     13 C          62.8243   90.8688   10.4713 C.3     1  UNL1        0.1122
     14 C          64.2090   91.4804   10.6867 C.3     1  UNL1        0.1123
     15 N          64.5096   91.5553   12.1203 N.pl3   1  UNL1       -0.3034
     16 C          64.3686   90.3362   12.9229 C.3     1  UNL1        0.1123
     17 C          62.9840   89.7249   12.7073 C.3     1  UNL1        0.1122
     18 C          65.3268   92.6315   12.6061 C.ar    1  UNL1        0.0595
     19 C          65.5271   93.7696   11.8100 C.ar    1  UNL1        0.0154
     20 C          66.3106   94.8266   12.2759 C.ar    1  UNL1        0.0022
     21 C          66.9025   94.7555   13.5380 C.ar    1  UNL1        0.0123
     22 C          66.7176   93.6248   14.3411 C.ar    1  UNL1        0.0694
     23 CL         67.4905   93.5728   15.9202 Cl      1  UNL1       -0.0813
     24 C          65.9290   92.5552   13.8777 C.ar    1  UNL1        0.0815
     25 CL         65.7265   91.1080   14.8646 Cl      1  UNL1       -0.0801
     26 C          60.0885   89.1109   12.4945 C.3     1  UNL1        0.1722
     27 C          60.1273   88.4761   14.7077 C.3     1  UNL1        0.1746
     28 O          59.5204   88.2482   13.4560 O.3     1  UNL1       -0.3462
     29 C          59.2394   82.9115    8.5554 C.3     1  UNL1        0.1535
     30 C          59.9959   81.6085    8.6794 C.2     1  UNL1        0.2443
     31 O          59.8807   80.7248    7.7859 O.2     1  UNL1       -0.2730
     32 N          60.9401   81.4369    9.7485 N.am    1  UNL1       -0.2825
     33 H          61.1895   82.2782   10.3165 H       1  UNL1        0.1549
     34 C          61.6994   80.2351    9.9590 C.ar    1  UNL1        0.0535
     35 C          62.5145   79.6957    8.9500 C.ar    1  UNL1        0.0353
     36 C          63.2224   78.5161    9.1944 C.ar    1  UNL1        0.1002
     37 N          63.1114   77.8897   10.3957 N.ar    1  UNL1       -0.2422
     38 C          62.3167   78.3799   11.3834 C.ar    1  UNL1        0.1002
     39 C          61.5907   79.5559   11.1798 C.ar    1  UNL1        0.0353
     40 C          57.9165   82.8518    9.3484 C.3     1  UNL1        0.0569
     41 C          58.1184   82.5055   10.7975 C.ar    1  UNL1       -0.0017
     42 C          58.2875   83.4044   11.8460 C.ar    1  UNL1        0.0681
     43 N          58.5043   82.7429   13.0053 N.ar    1  UNL1       -0.3523
     44 C          58.4744   81.4344   12.6978 C.ar    1  UNL1        0.0563
     45 C          58.6586   80.3586   13.5653 C.ar    1  UNL1        0.0170
     46 C          58.5955   79.0606   13.0261 C.ar    1  UNL1        0.0015
     47 C          58.3512   78.8690   11.6482 C.ar    1  UNL1        0.0001
     48 C          58.1679   79.9731   10.7966 C.ar    1  UNL1        0.0012
     49 C          58.2397   81.2485   11.3592 C.ar    1  UNL1        0.0131
     50 H          58.6689   83.1670   13.9452 H       1  UNL1        0.1660
@<TRIPOS>BOND
     1    27    28    1
     2    28    26    1
     3    26     5    1
     4     5     6   ar
     5     6    12    1
     6    12    13    1
     7    13    14    1
     8    14    15    1
     9    15    18    1
    10    18    19   ar
    11    19    20   ar
    12    20    21   ar
    13    21    22   ar
    14    22    23    1
    15    22    24   ar
    16    24    25    1
    17    15    16    1
    18    16    17    1
    19     6     7   ar
    20     7     8   ar
    21     8     9   ar
    22     9     1    1
    23     1     2    2
    24     1     3   am
    25     3    29    1
    26    29    40    1
    27    40    41    1
    28    41    42   ar
    29    42    43   ar
    30    43    44   ar
    31    44    45   ar
    32    45    46   ar
    33    46    47   ar
    34    47    48   ar
    35    48    49   ar
    36    29    30    1
    37    30    31    2
    38    30    32   am
    39    32    34    1
    40    34    35   ar
    41    35    36   ar
    42    36    37   ar
    43    37    38   ar
    44    38    39   ar
    45     9    10   ar
    46    10    11    1
    47    10     5   ar
    48    17    12    1
    49    49    41   ar
    50    39    34   ar
    51    24    18   ar
    52    49    44   ar
    53     3     4    1
    54    43    50    1
    55    32    33    1
@<TRIPOS>MOLECULE
*****
 50 55 0 0 0
SMALL
GASTEIGER

@<TRIPOS>ATOM
      1 C          59.3064   83.9449   12.6638 C.2     1  UNL1        0.2483
      2 O          58.0643   84.0179   12.8730 O.2     1  UNL1       -0.2701
      3 N          59.8877   82.6914   12.2683 N.am    1  UNL1       -0.2945
      4 H          60.8447   82.7069   11.8508 H       1  UNL1        0.1501
      5 C          61.6444   86.8526   11.8516 C.ar    1  UNL1        0.0482
      6 C          61.7208   87.4780   13.1143 C.ar    1  UNL1        0.0484
      7 C          60.9971   86.9585   14.1931 C.ar    1  UNL1        0.0146
      8 C          60.2139   85.8163   14.0351 C.ar    1  UNL1        0.0080
      9 C          60.1349   85.1689   12.7919 C.ar    1  UNL1        0.0806
     10 C          60.8697   85.6851   11.7036 C.ar    1  UNL1        0.1440
     11 F          60.8765   85.0356   10.5110 F       1  UNL1       -0.2042
     12 N          62.5470   88.6341   13.3126 N.pl3   1  UNL1       -0.3042
     13 C          62.1850   89.8976   12.6657 C.3     1  UNL1        0.1122
     14 C          63.4492   90.6803   12.3091 C.3     1  UNL1        0.1123
     15 N          64.3570   90.7233   13.4601 N.pl3   1  UNL1       -0.3034
     16 C          64.7161   89.4577   14.1077 C.3     1  UNL1        0.1123
     17 C          63.4520   88.6752   14.4641 C.3     1  UNL1        0.1122
     18 C          65.1947   91.8750   13.6449 C.ar    1  UNL1        0.0595
     19 C          65.6957   92.1758   14.9207 C.ar    1  UNL1        0.0154
     20 C          66.5195   93.2864   15.1106 C.ar    1  UNL1        0.0022
     21 C          66.8479   94.1069   14.0302 C.ar    1  UNL1        0.0123
     22 C          66.3512   93.8240   12.7531 C.ar    1  UNL1        0.0694
     23 CL         66.7816   94.8905   11.4223 Cl      1  UNL1       -0.0813
     24 C          65.5198   92.7060   12.5544 C.ar    1  UNL1        0.0815
     25 CL         64.8537   92.3669   10.9572 Cl      1  UNL1       -0.0801
     26 C          62.4294   87.3815   10.6768 C.3     1  UNL1        0.1722
     27 C          60.9651   88.8540    9.6818 C.3     1  UNL1        0.1746
     28 O          61.5506   87.5750    9.5897 O.3     1  UNL1       -0.3462
     29 C          59.1300   81.4305   12.3016 C.3     1  UNL1        0.1535
     30 C          58.6666   81.0233   10.9214 C.2     1  UNL1        0.2443
     31 O          57.8273   80.0904   10.7876 O.2     1  UNL1       -0.2730
     32 N          59.0877   81.7863    9.7793 N.am    1  UNL1       -0.2825
     33 H          59.5756   82.6941    9.9541 H       1  UNL1        0.1549
     34 C          58.7120   81.4751    8.4276 C.ar    1  UNL1        0.0535
     35 C          59.4901   80.6221    7.6272 C.ar    1  UNL1        0.0353
     36 C          59.0943   80.3607    6.3131 C.ar    1  UNL1        0.1002
     37 N          57.9714   80.9389    5.8104 N.ar    1  UNL1       -0.2422
     38 C          57.2095   81.7815    6.5567 C.ar    1  UNL1        0.1002
     39 C          57.5705   82.0710    7.8747 C.ar    1  UNL1        0.0353
     40 C          59.9494   80.2990   12.9579 C.3     1  UNL1        0.0569
     41 C          61.3663   80.7019   13.2589 C.ar    1  UNL1       -0.0017
     42 C          61.9983   80.6377   14.4969 C.ar    1  UNL1        0.0681
     43 N          63.2517   81.1383   14.4141 N.ar    1  UNL1       -0.3523
     44 C          63.4163   81.5187   13.1352 C.ar    1  UNL1        0.0563
     45 C          64.5468   82.1046   12.5672 C.ar    1  UNL1        0.0170
     46 C          64.5003   82.4344   11.2003 C.ar    1  UNL1        0.0015
     47 C          63.3389   82.1731   10.4400 C.ar    1  UNL1        0.0001
     48 C          62.2134   81.5798   11.0392 C.ar    1  UNL1        0.0012
     49 C          62.2875   81.2672   12.3976 C.ar    1  UNL1        0.0131
     50 H          63.9450   81.2183   15.1909 H       1  UNL1        0.1660
@<TRIPOS>BOND
     1    27    28    1
     2    28    26    1
     3    26     5    1
     4     5     6   ar
     5     6    12    1
     6    12    13    1
     7    13    14    1
     8    14    15    1
     9    15    18    1
    10    18    19   ar
    11    19    20   ar
    12    20    21   ar
    13    21    22   ar
    14    22    23    1
    15    22    24   ar
    16    24    25    1
    17    15    16    1
    18    16    17    1
    19     6     7   ar
    20     7     8   ar
    21     8     9   ar
    22     9     1    1
    23     1     2    2
    24     1     3   am
    25     3    29    1
    26    29    40    1
    27    40    41    1
    28    41    42   ar
    29    42    43   ar
    30    43    44   ar
    31    44    45   ar
    32    45    46   ar
    33    46    47   ar
    34    47    48   ar
    35    48    49   ar
    36    29    30    1
    37    30    31    2
    38    30    32   am
    39    32    34    1
    40    34    35   ar
    41    35    36   ar
    42    36    37   ar
    43    37    38   ar
    44    38    39   ar
    45     9    10   ar
    46    10    11    1
    47    10     5   ar
    48    17    12    1
    49    49    41   ar
    50    39    34   ar
    51    24    18   ar
    52    49    44   ar
    53     3     4    1
    54    43    50    1
    55    32    33    1
@<TRIPOS>MOLECULE
*****
 50 55 0 0 0
SMALL
GASTEIGER

@<TRIPOS>ATOM
      1 C          60.3489   84.7879    9.1760 C.2     1  UNL1        0.2483
      2 O          59.5973   85.1799    8.2414 O.2     1  UNL1       -0.2701
      3 N          60.5624   83.3803    9.3731 N.am    1  UNL1       -0.2945
      4 H          61.3731   83.0870    9.9623 H       1  UNL1        0.1501
      5 C          61.6489   88.1056   10.5484 C.ar    1  UNL1        0.0482
      6 C          62.3779   87.6498   11.6675 C.ar    1  UNL1        0.0484
      7 C          62.4136   86.2833   11.9653 C.ar    1  UNL1        0.0146
      8 C          61.7485   85.3651   11.1545 C.ar    1  UNL1        0.0080
      9 C          61.0296   85.7942   10.0275 C.ar    1  UNL1        0.0806
     10 C          60.9981   87.1707    9.7193 C.ar    1  UNL1        0.1440
     11 F          60.3786   87.6071    8.5923 F       1  UNL1       -0.2042
     12 N          63.1001   88.5702   12.4980 N.pl3   1  UNL1       -0.3042
     13 C          63.7903   88.0748   13.6913 C.3     1  UNL1        0.1122
     14 C          63.7722   89.1438   14.7844 C.3     1  UNL1        0.1123
     15 N          64.1830   90.4382   14.2305 N.pl3   1  UNL1       -0.3034
     16 C          63.4924   90.9312   13.0345 C.3     1  UNL1        0.1123
     17 C          63.5106   89.8621   11.9418 C.3     1  UNL1        0.1122
     18 C          64.8904   91.3633   15.0706 C.ar    1  UNL1        0.0595
     19 C          64.3339   91.7582   16.2968 C.ar    1  UNL1        0.0154
     20 C          65.0171   92.6485   17.1267 C.ar    1  UNL1        0.0022
     21 C          66.2591   93.1538   16.7390 C.ar    1  UNL1        0.0123
     22 C          66.8244   92.7747   15.5165 C.ar    1  UNL1        0.0694
     23 CL         68.3865   93.4439   15.0627 Cl      1  UNL1       -0.0813
     24 C          66.1411   91.8776   14.6746 C.ar    1  UNL1        0.0815
     25 CL         66.8254   91.4285   13.1127 Cl      1  UNL1       -0.0801
     26 C          61.6098   89.5717   10.1944 C.3     1  UNL1        0.1722
     27 C          59.7915   90.3252   11.3896 C.3     1  UNL1        0.1746
     28 O          60.2633   89.9848   10.1056 O.3     1  UNL1       -0.3462
     29 C          59.7728   82.3608    8.6644 C.3     1  UNL1        0.1535
     30 C          60.4578   81.0132    8.6847 C.2     1  UNL1        0.2443
     31 O          60.2774   80.1998    7.7370 O.2     1  UNL1       -0.2730
     32 N          61.4101   80.7185    9.7192 N.am    1  UNL1       -0.2825
     33 H          61.7162   81.5046   10.3366 H       1  UNL1        0.1549
     34 C          62.1050   79.4657    9.8325 C.ar    1  UNL1        0.0535
     35 C          61.7443   78.5108   10.7976 C.ar    1  UNL1        0.0353
     36 C          62.4589   77.3131   10.8813 C.ar    1  UNL1        0.1002
     37 N          63.5035   77.0813   10.0429 N.ar    1  UNL1       -0.2422
     38 C          63.8850   77.9948    9.1116 C.ar    1  UNL1        0.1002
     39 C          63.1984   79.2058    8.9954 C.ar    1  UNL1        0.0353
     40 C          58.3444   82.2555    9.2397 C.3     1  UNL1        0.0569
     41 C          58.3239   82.1553   10.7397 C.ar    1  UNL1       -0.0017
     42 C          58.2412   83.2152   11.6375 C.ar    1  UNL1        0.0681
     43 N          58.3093   82.7629   12.9101 N.ar    1  UNL1       -0.3523
     44 C          58.4352   81.4272   12.8236 C.ar    1  UNL1        0.0563
     45 C          58.5534   80.5202   13.8759 C.ar    1  UNL1        0.0170
     46 C          58.6852   79.1563   13.5570 C.ar    1  UNL1        0.0015
     47 C          58.6943   78.7339   12.2092 C.ar    1  UNL1        0.0001
     48 C          58.5719   79.6712   11.1678 C.ar    1  UNL1        0.0012
     49 C          58.4466   81.0175   11.5146 C.ar    1  UNL1        0.0131
     50 H          58.2781   83.3392   13.7803 H       1  UNL1        0.1660
@<TRIPOS>BOND
     1    27    28    1
     2    28    26    1
     3    26     5    1
     4     5     6   ar
     5     6    12    1
     6    12    13    1
     7    13    14    1
     8    14    15    1
     9    15    18    1
    10    18    19   ar
    11    19    20   ar
    12    20    21   ar
    13    21    22   ar
    14    22    23    1
    15    22    24   ar
    16    24    25    1
    17    15    16    1
    18    16    17    1
    19     6     7   ar
    20     7     8   ar
    21     8     9   ar
    22     9     1    1
    23     1     2    2
    24     1     3   am
    25     3    29    1
    26    29    40    1
    27    40    41    1
    28    41    42   ar
    29    42    43   ar
    30    43    44   ar
    31    44    45   ar
    32    45    46   ar
    33    46    47   ar
    34    47    48   ar
    35    48    49   ar
    36    29    30    1
    37    30    31    2
    38    30    32   am
    39    32    34    1
    40    34    35   ar
    41    35    36   ar
    42    36    37   ar
    43    37    38   ar
    44    38    39   ar
    45     9    10   ar
    46    10    11    1
    47    10     5   ar
    48    17    12    1
    49    49    41   ar
    50    39    34   ar
    51    24    18   ar
    52    49    44   ar
    53     3     4    1
    54    43    50    1
    55    32    33    1
@<TRIPOS>MOLECULE
*****
 50 55 0 0 0
SMALL
GASTEIGER

@<TRIPOS>ATOM
      1 C          59.9794   85.5169    8.3566 C.2     1  UNL1        0.2483
      2 O          59.2446   85.7755    7.3640 O.2     1  UNL1       -0.2701
      3 N          60.1419   84.1546    8.7846 N.am    1  UNL1       -0.2945
      4 H          60.9401   83.9343    9.4208 H       1  UNL1        0.1501
      5 C          60.8040   88.9309    9.8551 C.ar    1  UNL1        0.0482
      6 C          62.1220   88.7002   10.3037 C.ar    1  UNL1        0.0484
      7 C          62.7052   87.4402   10.1316 C.ar    1  UNL1        0.0146
      8 C          62.0004   86.4143    9.5041 C.ar    1  UNL1        0.0080
      9 C          60.6936   86.6255    9.0363 C.ar    1  UNL1        0.0806
     10 C          60.1051   87.8973    9.2008 C.ar    1  UNL1        0.1440
     11 F          58.8743   88.1549    8.6880 F       1  UNL1       -0.2042
     12 N          62.8818   89.7490   10.9211 N.pl3   1  UNL1       -0.3042
     13 C          63.1413   90.9842   10.1775 C.3     1  UNL1        0.1122
     14 C          64.5029   91.5547   10.5755 C.3     1  UNL1        0.1123
     15 N          64.6305   91.5825   12.0363 N.pl3   1  UNL1       -0.3034
     16 C          64.3679   90.3456   12.7789 C.3     1  UNL1        0.1123
     17 C          63.0064   89.7753   12.3808 C.3     1  UNL1        0.1122
     18 C          65.4064   92.6241   12.6489 C.ar    1  UNL1        0.0595
     19 C          65.6470   93.8173   11.9506 C.ar    1  UNL1        0.0154
     20 C          66.3906   94.8410   12.5397 C.ar    1  UNL1        0.0022
     21 C          66.9021   94.6817   13.8286 C.ar    1  UNL1        0.0123
     22 C          66.6763   93.4954   14.5355 C.ar    1  UNL1        0.0694
     23 CL         67.3483   93.3331   16.1528 Cl      1  UNL1       -0.0813
     24 C          65.9276   92.4589   13.9475 C.ar    1  UNL1        0.0815
     25 CL         65.6752   90.9437   14.8135 Cl      1  UNL1       -0.0801
     26 C          60.1588   90.2857   10.0115 C.3     1  UNL1        0.1722
     27 C          59.1251   89.7283   11.9922 C.3     1  UNL1        0.1746
     28 O          60.0618   90.5899   11.3861 O.3     1  UNL1       -0.3462
     29 C          59.3181   83.0604    8.2470 C.3     1  UNL1        0.1535
     30 C          59.9886   81.7177    8.4294 C.2     1  UNL1        0.2443
     31 O          59.9024   80.8417    7.5252 O.2     1  UNL1       -0.2730
     32 N          60.8265   81.4945    9.5749 N.am    1  UNL1       -0.2825
     33 H          61.0719   82.3209   10.1661 H       1  UNL1        0.1549
     34 C          61.4979   80.2528    9.8442 C.ar    1  UNL1        0.0535
     35 C          61.0506   79.3794   10.8493 C.ar    1  UNL1        0.0353
     36 C          61.7445   78.1902   11.0866 C.ar    1  UNL1        0.1002
     37 N          62.8517   77.8888   10.3579 N.ar    1  UNL1       -0.2422
     38 C          63.3167   78.7236    9.3912 C.ar    1  UNL1        0.1002
     39 C          62.6534   79.9234    9.1231 C.ar    1  UNL1        0.0353
     40 C          57.9085   83.0562    8.8760 C.3     1  UNL1        0.0569
     41 C          57.9389   83.0601   10.3792 C.ar    1  UNL1       -0.0017
     42 C          58.0418   81.9460   11.2064 C.ar    1  UNL1        0.0681
     43 N          57.9774   82.3146   12.5058 N.ar    1  UNL1       -0.3523
     44 C          57.8340   83.6514   12.5063 C.ar    1  UNL1        0.0563
     45 C          57.7122   84.4873   13.6154 C.ar    1  UNL1        0.0170
     46 C          57.5608   85.8670   13.3858 C.ar    1  UNL1        0.0015
     47 C          57.5363   86.3749   12.0680 C.ar    1  UNL1        0.0001
     48 C          57.6627   85.5081   10.9677 C.ar    1  UNL1        0.0012
     49 C          57.8076   84.1441   11.2264 C.ar    1  UNL1        0.0131
     50 H          58.0225   81.6841   13.3370 H       1  UNL1        0.1660
@<TRIPOS>BOND
     1    27    28    1
     2    28    26    1
     3    26     5    1
     4     5     6   ar
     5     6    12    1
     6    12    13    1
     7    13    14    1
     8    14    15    1
     9    15    18    1
    10    18    19   ar
    11    19    20   ar
    12    20    21   ar
    13    21    22   ar
    14    22    23    1
    15    22    24   ar
    16    24    25    1
    17    15    16    1
    18    16    17    1
    19     6     7   ar
    20     7     8   ar
    21     8     9   ar
    22     9     1    1
    23     1     2    2
    24     1     3   am
    25     3    29    1
    26    29    40    1
    27    40    41    1
    28    41    42   ar
    29    42    43   ar
    30    43    44   ar
    31    44    45   ar
    32    45    46   ar
    33    46    47   ar
    34    47    48   ar
    35    48    49   ar
    36    29    30    1
    37    30    31    2
    38    30    32   am
    39    32    34    1
    40    34    35   ar
    41    35    36   ar
    42    36    37   ar
    43    37    38   ar
    44    38    39   ar
    45     9    10   ar
    46    10    11    1
    47    10     5   ar
    48    17    12    1
    49    49    41   ar
    50    39    34   ar
    51    24    18   ar
    52    49    44   ar
    53     3     4    1
    54    43    50    1
    55    32    33    1
@<TRIPOS>MOLECULE
*****
 50 55 0 0 0
SMALL
GASTEIGER

@<TRIPOS>ATOM
      1 C          59.8623   84.5790    9.7562 C.2     1  UNL1        0.2483
      2 O          58.7019   84.8677    9.3537 O.2     1  UNL1       -0.2701
      3 N          60.4537   83.3247    9.3785 N.am    1  UNL1       -0.2945
      4 H          61.4861   83.2174    9.4926 H       1  UNL1        0.1501
      5 C          60.6786   87.4799   12.1013 C.ar    1  UNL1        0.0482
      6 C          62.0887   87.4244   12.0933 C.ar    1  UNL1        0.0484
      7 C          62.7421   86.4368   11.3483 C.ar    1  UNL1        0.0146
      8 C          62.0111   85.5166   10.5987 C.ar    1  UNL1        0.0080
      9 C          60.6081   85.5623   10.5797 C.ar    1  UNL1        0.0806
     10 C          59.9458   86.5619   11.3233 C.ar    1  UNL1        0.1440
     11 F          58.5944   86.6810   11.2609 F       1  UNL1       -0.2042
     12 N          62.8655   88.3811   12.8280 N.pl3   1  UNL1       -0.3042
     13 C          63.7208   87.9238   13.9259 C.3     1  UNL1        0.1122
     14 C          63.7896   88.9965   15.0132 C.3     1  UNL1        0.1123
     15 N          64.0685   90.3054   14.4132 N.pl3   1  UNL1       -0.3034
     16 C          63.2127   90.7602   13.3127 C.3     1  UNL1        0.1123
     17 C          63.1440   89.6874   12.2257 C.3     1  UNL1        0.1122
     18 C          64.8317   91.2662   15.1593 C.ar    1  UNL1        0.0595
     19 C          64.3583   91.7221   16.3992 C.ar    1  UNL1        0.0154
     20 C          65.0965   92.6478   17.1384 C.ar    1  UNL1        0.0022
     21 C          66.3110   93.1277   16.6456 C.ar    1  UNL1        0.0123
     22 C          66.7935   92.6877   15.4080 C.ar    1  UNL1        0.0694
     23 CL         68.3232   93.3267   14.8205 Cl      1  UNL1       -0.0813
     24 C          66.0543   91.7547   14.6573 C.ar    1  UNL1        0.0815
     25 CL         66.6328   91.2279   13.0770 Cl      1  UNL1       -0.0801
     26 C          59.9500   88.5463   12.8810 C.3     1  UNL1        0.1722
     27 C          60.0657   88.5055   15.1805 C.3     1  UNL1        0.1746
     28 O          59.4128   87.9699   14.0518 O.3     1  UNL1       -0.3462
     29 C          59.6818   82.2623    8.7148 C.3     1  UNL1        0.1535
     30 C          60.4426   80.9562    8.6873 C.2     1  UNL1        0.2443
     31 O          60.3832   80.2130    7.6691 O.2     1  UNL1       -0.2730
     32 N          61.3301   80.6308    9.7691 N.am    1  UNL1       -0.2825
     33 H          61.5412   81.3800   10.4669 H       1  UNL1        0.1549
     34 C          62.0881   79.4121    9.8420 C.ar    1  UNL1        0.0535
     35 C          61.7630   78.3991   10.7594 C.ar    1  UNL1        0.0353
     36 C          62.5383   77.2377   10.8056 C.ar    1  UNL1        0.1002
     37 N          63.6067   77.0966    9.9770 N.ar    1  UNL1       -0.2422
     38 C          63.9542   78.0679    9.0919 C.ar    1  UNL1        0.1002
     39 C          63.2067   79.2455    9.0146 C.ar    1  UNL1        0.0353
     40 C          58.2995   82.0747    9.3755 C.3     1  UNL1        0.0569
     41 C          58.2564   80.9052   10.3193 C.ar    1  UNL1       -0.0017
     42 C          57.6108   79.6918   10.1024 C.ar    1  UNL1        0.0681
     43 N          57.7280   78.8935   11.1876 N.ar    1  UNL1       -0.3523
     44 C          58.4410   79.5925   12.0879 C.ar    1  UNL1        0.0563
     45 C          58.8104   79.1884   13.3702 C.ar    1  UNL1        0.0170
     46 C          59.5543   80.0886   14.1547 C.ar    1  UNL1        0.0015
     47 C          59.9096   81.3574   13.6457 C.ar    1  UNL1        0.0001
     48 C          59.5243   81.7379   12.3477 C.ar    1  UNL1        0.0012
     49 C          58.7837   80.8255   11.5944 C.ar    1  UNL1        0.0131
     50 H          57.3356   77.9326   11.3015 H       1  UNL1        0.1660
@<TRIPOS>BOND
     1    27    28    1
     2    28    26    1
     3    26     5    1
     4     5     6   ar
     5     6    12    1
     6    12    13    1
     7    13    14    1
     8    14    15    1
     9    15    18    1
    10    18    19   ar
    11    19    20   ar
    12    20    21   ar
    13    21    22   ar
    14    22    23    1
    15    22    24   ar
    16    24    25    1
    17    15    16    1
    18    16    17    1
    19     6     7   ar
    20     7     8   ar
    21     8     9   ar
    22     9     1    1
    23     1     2    2
    24     1     3   am
    25     3    29    1
    26    29    40    1
    27    40    41    1
    28    41    42   ar
    29    42    43   ar
    30    43    44   ar
    31    44    45   ar
    32    45    46   ar
    33    46    47   ar
    34    47    48   ar
    35    48    49   ar
    36    29    30    1
    37    30    31    2
    38    30    32   am
    39    32    34    1
    40    34    35   ar
    41    35    36   ar
    42    36    37   ar
    43    37    38   ar
    44    38    39   ar
    45     9    10   ar
    46    10    11    1
    47    10     5   ar
    48    17    12    1
    49    49    41   ar
    50    39    34   ar
    51    24    18   ar
    52    49    44   ar
    53     3     4    1
    54    43    50    1
    55    32    33    1
@<TRIPOS>MOLECULE
*****
 50 55 0 0 0
SMALL
GASTEIGER

@<TRIPOS>ATOM
      1 C          63.0290   90.1914   11.1696 C.2     1  UNL1        0.2483
      2 O          63.1942   90.7410   10.0460 O.2     1  UNL1       -0.2701
      3 N          63.3963   90.8970   12.3666 N.am    1  UNL1       -0.2945
      4 H          63.0172   90.5484   13.2750 H       1  UNL1        0.1501
      5 C          62.2844   86.5821   12.1696 C.ar    1  UNL1        0.0482
      6 C          61.2400   86.2793   11.2702 C.ar    1  UNL1        0.0484
      7 C          60.7855   87.2556   10.3772 C.ar    1  UNL1        0.0146
      8 C          61.3686   88.5215   10.3563 C.ar    1  UNL1        0.0080
      9 C          62.4191   88.8403   11.2315 C.ar    1  UNL1        0.0806
     10 C          62.8856   87.8557   12.1280 C.ar    1  UNL1        0.1440
     11 F          63.9518   88.1085   12.9302 F       1  UNL1       -0.2042
     12 N          60.6464   84.9733   11.2470 N.pl3   1  UNL1       -0.3042
     13 C          59.2431   84.8128   11.6355 C.3     1  UNL1        0.1122
     14 C          59.0412   83.4542   12.3071 C.3     1  UNL1        0.1123
     15 N          59.6659   82.3973   11.5047 N.pl3   1  UNL1       -0.3034
     16 C          61.0700   82.5611   11.1149 C.3     1  UNL1        0.1123
     17 C          61.2716   83.9196   10.4434 C.3     1  UNL1        0.1122
     18 C          59.0782   81.0871   11.4983 C.ar    1  UNL1        0.0595
     19 C          58.3697   80.6459   10.3702 C.ar    1  UNL1        0.0154
     20 C          57.8032   79.3705   10.3480 C.ar    1  UNL1        0.0022
     21 C          57.9367   78.5263   11.4516 C.ar    1  UNL1        0.0123
     22 C          58.6347   78.9540   12.5865 C.ar    1  UNL1        0.0694
     23 CL         58.7694   77.8617   13.9585 Cl      1  UNL1       -0.0813
     24 C          59.2082   80.2387   12.6158 C.ar    1  UNL1        0.0815
     25 CL         60.0518   80.8024   14.0581 Cl      1  UNL1       -0.0801
     26 C          62.8057   85.5417   13.1298 C.3     1  UNL1        0.1722
     27 C          61.9559   84.0657   14.6796 C.3     1  UNL1        0.1746
     28 O          61.8754   85.3809   14.1788 O.3     1  UNL1       -0.3462
     29 C          64.1580   92.1554   12.3323 C.3     1  UNL1        0.1535
     30 C          65.4632   92.0365   13.0858 C.2     1  UNL1        0.2443
     31 O          66.3069   91.1595   12.7513 O.2     1  UNL1       -0.2730
     32 N          65.7893   93.0058   14.0948 N.am    1  UNL1       -0.2825
     33 H          65.1832   93.8544   14.1676 H       1  UNL1        0.1549
     34 C          66.9971   92.9741   14.8728 C.ar    1  UNL1        0.0535
     35 C          67.7077   94.1481   15.1732 C.ar    1  UNL1        0.0353
     36 C          68.8862   94.0673   15.9194 C.ar    1  UNL1        0.1002
     37 N          69.3468   92.8593   16.3395 N.ar    1  UNL1       -0.2422
     38 C          68.6888   91.7062   16.0484 C.ar    1  UNL1        0.1002
     39 C          67.5076   91.7422   15.3034 C.ar    1  UNL1        0.0353
     40 C          64.4057   92.6237   10.8825 C.3     1  UNL1        0.0569
     41 C          65.7376   93.2984   10.7054 C.ar    1  UNL1       -0.0017
     42 C          66.0646   94.5949   11.0904 C.ar    1  UNL1        0.0681
     43 N          67.3313   94.8920   10.7218 N.ar    1  UNL1       -0.3523
     44 C          67.8065   93.7950   10.1068 C.ar    1  UNL1        0.0563
     45 C          69.0697   93.6236    9.5422 C.ar    1  UNL1        0.0170
     46 C          69.3568   92.3872    8.9355 C.ar    1  UNL1        0.0015
     47 C          68.3867   91.3609    8.9081 C.ar    1  UNL1        0.0001
     48 C          67.1207   91.5613    9.4869 C.ar    1  UNL1        0.0012
     49 C          66.8634   92.7993   10.0780 C.ar    1  UNL1        0.0131
     50 H          67.8320   95.7949   10.8784 H       1  UNL1        0.1660
@<TRIPOS>BOND
     1    27    28    1
     2    28    26    1
     3    26     5    1
     4     5     6   ar
     5     6    12    1
     6    12    13    1
     7    13    14    1
     8    14    15    1
     9    15    18    1
    10    18    19   ar
    11    19    20   ar
    12    20    21   ar
    13    21    22   ar
    14    22    23    1
    15    22    24   ar
    16    24    25    1
    17    15    16    1
    18    16    17    1
    19     6     7   ar
    20     7     8   ar
    21     8     9   ar
    22     9     1    1
    23     1     2    2
    24     1     3   am
    25     3    29    1
    26    29    40    1
    27    40    41    1
    28    41    42   ar
    29    42    43   ar
    30    43    44   ar
    31    44    45   ar
    32    45    46   ar
    33    46    47   ar
    34    47    48   ar
    35    48    49   ar
    36    29    30    1
    37    30    31    2
    38    30    32   am
    39    32    34    1
    40    34    35   ar
    41    35    36   ar
    42    36    37   ar
    43    37    38   ar
    44    38    39   ar
    45     9    10   ar
    46    10    11    1
    47    10     5   ar
    48    17    12    1
    49    49    41   ar
    50    39    34   ar
    51    24    18   ar
    52    49    44   ar
    53     3     4    1
    54    43    50    1
    55    32    33    1
@<TRIPOS>MOLECULE
*****
 50 55 0 0 0
SMALL
GASTEIGER

@<TRIPOS>ATOM
      1 C          63.1852   90.3861   13.3119 C.2     1  UNL1        0.2483
      2 O          63.2304   91.0683   14.3723 O.2     1  UNL1       -0.2701
      3 N          63.7413   90.9205   12.0990 N.am    1  UNL1       -0.2945
      4 H          63.9318   90.2572   11.3153 H       1  UNL1        0.1501
      5 C          61.4387   87.2161   14.5291 C.ar    1  UNL1        0.0482
      6 C          61.5215   86.4182   13.3680 C.ar    1  UNL1        0.0484
      7 C          62.1197   86.9314   12.2121 C.ar    1  UNL1        0.0146
      8 C          62.6510   88.2201   12.2031 C.ar    1  UNL1        0.0080
      9 C          62.5934   89.0262   13.3511 C.ar    1  UNL1        0.0806
     10 C          61.9981   88.5091   14.5212 C.ar    1  UNL1        0.1440
     11 F          61.9991   89.2346   15.6692 F       1  UNL1       -0.2042
     12 N          61.0140   85.0762   13.3614 N.pl3   1  UNL1       -0.3042
     13 C          61.9219   83.9614   13.6419 C.3     1  UNL1        0.1122
     14 C          61.4922   82.7279   12.8471 C.3     1  UNL1        0.1123
     15 N          60.0506   82.5063   13.0004 N.pl3   1  UNL1       -0.3034
     16 C          59.1437   83.6243   12.7215 C.3     1  UNL1        0.1123
     17 C          59.5735   84.8575   13.5163 C.3     1  UNL1        0.1122
     18 C          59.5451   81.1624   12.9758 C.ar    1  UNL1        0.0595
     19 C          59.6321   80.3631   14.1259 C.ar    1  UNL1        0.0154
     20 C          59.1347   79.0590   14.1172 C.ar    1  UNL1        0.0022
     21 C          58.5489   78.5413   12.9609 C.ar    1  UNL1        0.0123
     22 C          58.4604   79.3234   11.8040 C.ar    1  UNL1        0.0694
     23 CL         57.7243   78.6274   10.3662 Cl      1  UNL1       -0.0813
     24 C          58.9601   80.6390   11.8055 C.ar    1  UNL1        0.0815
     25 CL         58.8925   81.6167   10.3396 Cl      1  UNL1       -0.0801
     26 C          60.8156   86.6800   15.7942 C.3     1  UNL1        0.1722
     27 C          62.4800   86.3827   17.3576 C.3     1  UNL1        0.1746
     28 O          61.6962   85.7431   16.3759 O.3     1  UNL1       -0.3462
     29 C          64.1743   92.3221   11.9861 C.3     1  UNL1        0.1535
     30 C          65.3506   92.6155   12.8893 C.2     1  UNL1        0.2443
     31 O          65.3834   93.6878   13.5539 O.2     1  UNL1       -0.2730
     32 N          66.3619   91.6136   13.0829 N.am    1  UNL1       -0.2825
     33 H          66.1717   90.6536   12.7156 H       1  UNL1        0.1549
     34 C          67.5219   91.7985   13.9106 C.ar    1  UNL1        0.0535
     35 C          67.4158   91.9238   15.3058 C.ar    1  UNL1        0.0353
     36 C          68.5698   92.1184   16.0690 C.ar    1  UNL1        0.1002
     37 N          69.7838   92.1987   15.4628 N.ar    1  UNL1       -0.2422
     38 C          69.9137   92.0982   14.1135 C.ar    1  UNL1        0.1002
     39 C          68.7851   91.9049   13.3134 C.ar    1  UNL1        0.0353
     40 C          64.5029   92.6933   10.5243 C.3     1  UNL1        0.0569
     41 C          65.8565   93.3298   10.3727 C.ar    1  UNL1       -0.0017
     42 C          66.1909   94.6442   10.6836 C.ar    1  UNL1        0.0681
     43 N          67.4814   94.8918   10.3640 N.ar    1  UNL1       -0.3523
     44 C          67.9643   93.7456    9.8535 C.ar    1  UNL1        0.0563
     45 C          69.2515   93.5122    9.3712 C.ar    1  UNL1        0.0170
     46 C          69.5432   92.2309    8.8686 C.ar    1  UNL1        0.0015
     47 C          68.5539   91.2228    8.8605 C.ar    1  UNL1        0.0001
     48 C          67.2639   91.4864    9.3547 C.ar    1  UNL1        0.0012
     49 C          67.0027   92.7675    9.8433 C.ar    1  UNL1        0.0131
     50 H          67.9926   95.7944   10.4841 H       1  UNL1        0.1660
@<TRIPOS>BOND
     1    27    28    1
     2    28    26    1
     3    26     5    1
     4     5     6   ar
     5     6    12    1
     6    12    13    1
     7    13    14    1
     8    14    15    1
     9    15    18    1
    10    18    19   ar
    11    19    20   ar
    12    20    21   ar
    13    21    22   ar
    14    22    23    1
    15    22    24   ar
    16    24    25    1
    17    15    16    1
    18    16    17    1
    19     6     7   ar
    20     7     8   ar
    21     8     9   ar
    22     9     1    1
    23     1     2    2
    24     1     3   am
    25     3    29    1
    26    29    40    1
    27    40    41    1
    28    41    42   ar
    29    42    43   ar
    30    43    44   ar
    31    44    45   ar
    32    45    46   ar
    33    46    47   ar
    34    47    48   ar
    35    48    49   ar
    36    29    30    1
    37    30    31    2
    38    30    32   am
    39    32    34    1
    40    34    35   ar
    41    35    36   ar
    42    36    37   ar
    43    37    38   ar
    44    38    39   ar
    45     9    10   ar
    46    10    11    1
    47    10     5   ar
    48    17    12    1
    49    49    41   ar
    50    39    34   ar
    51    24    18   ar
    52    49    44   ar
    53     3     4    1
    54    43    50    1
    55    32    33    1
