@<TRIPOS>MOLECULE
*****
 49 55 0 0 0
SMALL
GASTEIGER

@<TRIPOS>ATOM
      1 C          59.5082   84.7186   13.5692 C.ar    1  UNL1        0.0481
      2 C          58.3018   84.6317   12.8567 C.ar    1  UNL1        0.0176
      3 C          57.9416   83.4413   12.2198 C.ar    1  UNL1        0.0382
      4 C          58.7694   82.3156   12.2908 C.ar    1  UNL1        0.1388
      5 C          59.9909   82.4070   12.9824 C.ar    1  UNL1        0.0382
      6 C          60.3563   83.6005   13.6115 C.ar    1  UNL1        0.0176
      7 N          61.5360   88.1199   14.5737 N.pl3   1  UNL1       -0.3041
      8 C          61.9541   86.8494   15.1885 C.3     1  UNL1        0.1122
      9 C          60.7594   85.9157   15.4105 C.3     1  UNL1        0.1122
     10 N          59.8802   85.9417   14.2329 N.pl3   1  UNL1       -0.3041
     11 C          59.4213   87.2326   13.6942 C.3     1  UNL1        0.1122
     12 C          60.1051   88.4083   14.4013 C.3     1  UNL1        0.1122
     13 C          64.4724   90.8551   13.1333 C.ar    1  UNL1        0.0699
     14 C          63.4438   90.4021   12.2900 C.ar    1  UNL1        0.0190
     15 C          62.4813   89.5054   12.7619 C.ar    1  UNL1        0.0160
     16 C          62.5352   89.0342   14.0830 C.ar    1  UNL1        0.0480
     17 C          63.5637   89.4838   14.9264 C.ar    1  UNL1        0.0160
     18 C          64.5250   90.3825   14.4557 C.ar    1  UNL1        0.0190
     19 N          66.6095   93.2047   11.3749 N.ar    1  UNL1       -0.2024
     20 N          67.2997   93.0448   12.4940 N.ar    1  UNL1       -0.1442
     21 C          66.5994   92.1754   13.2547 C.ar    1  UNL1        0.2073
     22 N          65.4631   91.7771   12.6390 N.ar    1  UNL1       -0.2398
     23 C          65.5064   92.4355   11.4638 C.ar    1  UNL1        0.3522
     24 O          64.6463   92.3194   10.5495 O.2     1  UNL1       -0.2444
     25 C          67.0418   94.0630   10.2657 C.3     1  UNL1        0.1099
     26 C          65.8564   94.8827    9.7378 C.3     1  UNL1        0.0265
     27 C          68.8468   92.3428    9.6986 C.3     1  UNL1        0.0021
     28 C          67.7096   93.2134    9.1642 C.3     1  UNL1        0.0245
     29 O          58.3425   81.1416   11.6526 O.3     1  UNL1       -0.4727
     30 C          58.3187   80.9135   10.2412 C.3     1  UNL1        0.2374
     31 C          58.5950   82.2039    9.4507 C.3     1  UNL1        0.1909
     32 C          58.8059   81.9540    7.9738 C.3     1  UNL1        0.1783
     33 O          60.1087   82.3607    7.6955 O.3     1  UNL1       -0.3282
     34 C          60.4704   83.2192    8.7549 C.3     1  UNL1        0.2081
     35 O          59.7519   82.8379    9.9128 O.3     1  UNL1       -0.3269
     36 C          60.1538   84.6714    8.3562 C.ar    1  UNL1        0.0390
     37 C          59.3602   85.4788    9.2012 C.ar    1  UNL1        0.0021
     38 C          59.0830   86.8069    8.8740 C.ar    1  UNL1        0.0113
     39 C          59.5902   87.3602    7.6998 C.ar    1  UNL1        0.0585
     40 CL         59.2403   89.0303    7.2934 Cl      1  UNL1       -0.0822
     41 C          60.3769   86.5837    6.8488 C.ar    1  UNL1        0.0226
     42 C          60.6647   85.2497    7.1632 C.ar    1  UNL1        0.0590
     43 CL         61.6667   84.3576    6.0211 Cl      1  UNL1       -0.0824
     44 C          61.9845   83.0274    9.0367 C.3     1  UNL1        0.0609
     45 C          62.4064   83.1200   10.5242 C.3     1  UNL1        0.0052
     46 C          62.7073   84.5571   10.9314 C.3     1  UNL1        0.0002
     47 C          63.6095   84.4431   12.1480 C.3     1  UNL1        0.0000
     48 C          64.3539   83.1188   12.0035 C.3     1  UNL1        0.0000
     49 C          63.6792   82.3489   10.8701 C.3     1  UNL1        0.0002
@<TRIPOS>BOND
     1    27    28    1
     2    28    25    1
     3    25    26    1
     4    25    19    1
     5    19    20   ar
     6    20    21   ar
     7    21    22   ar
     8    22    13    1
     9    13    14   ar
    10    14    15   ar
    11    15    16   ar
    12    16     7    1
    13     7     8    1
    14     8     9    1
    15     9    10    1
    16    10     1    1
    17     1     2   ar
    18     2     3   ar
    19     3     4   ar
    20     4    29    1
    21    29    30    1
    22    30    31    1
    23    31    32    1
    24    32    33    1
    25    33    34    1
    26    34    44    1
    27    44    45    1
    28    45    46    1
    29    46    47    1
    30    47    48    1
    31    48    49    1
    32    34    36    1
    33    36    37   ar
    34    37    38   ar
    35    38    39   ar
    36    39    40    1
    37    39    41   ar
    38    41    42   ar
    39    42    43    1
    40    34    35    1
    41     4     5   ar
    42     5     6   ar
    43    10    11    1
    44    11    12    1
    45    16    17   ar
    46    17    18   ar
    47    22    23   ar
    48    23    24    2
    49    23    19   ar
    50    18    13   ar
    51    12     7    1
    52     6     1   ar
    53    35    31    1
    54    49    45    1
    55    42    36   ar
@<TRIPOS>MOLECULE
*****
 49 55 0 0 0
SMALL
GASTEIGER

@<TRIPOS>ATOM
      1 C          60.9576   86.1679    8.6836 C.ar    1  UNL1        0.0481
      2 C          60.4685   84.8670    8.8809 C.ar    1  UNL1        0.0176
      3 C          61.3475   83.8151    9.1514 C.ar    1  UNL1        0.0382
      4 C          62.7252   84.0422    9.2413 C.ar    1  UNL1        0.1388
      5 C          63.2208   85.3396    9.0188 C.ar    1  UNL1        0.0382
      6 C          62.3428   86.3904    8.7385 C.ar    1  UNL1        0.0176
      7 N          59.3664   89.5757    7.0881 N.pl3   1  UNL1       -0.3041
      8 C          60.2617   89.6996    8.2500 C.3     1  UNL1        0.1122
      9 C          60.1241   88.4993    9.1927 C.3     1  UNL1        0.1122
     10 N          60.0544   87.2565    8.4111 N.pl3   1  UNL1       -0.3041
     11 C          59.0903   87.1447    7.3041 C.3     1  UNL1        0.1122
     12 C          58.3873   88.4806    7.0380 C.3     1  UNL1        0.1122
     13 C          59.7815   92.2432    3.7880 C.ar    1  UNL1        0.0699
     14 C          60.9030   91.5837    4.3187 C.ar    1  UNL1        0.0190
     15 C          60.7672   90.7094    5.4005 C.ar    1  UNL1        0.0160
     16 C          59.5089   90.4865    5.9813 C.ar    1  UNL1        0.0480
     17 C          58.3874   91.1466    5.4540 C.ar    1  UNL1        0.0160
     18 C          58.5223   92.0190    4.3706 C.ar    1  UNL1        0.0190
     19 N          59.8097   94.0987    0.6678 N.ar    1  UNL1       -0.2024
     20 N          60.5527   94.8921    1.4247 N.ar    1  UNL1       -0.1442
     21 C          60.6231   94.3061    2.6398 C.ar    1  UNL1        0.2073
     22 N          59.9294   93.1456    2.6747 N.ar    1  UNL1       -0.2398
     23 C          59.4404   93.0451    1.4228 C.ar    1  UNL1        0.3522
     24 O          58.7570   92.0737    1.0002 O.2     1  UNL1       -0.2444
     25 C          59.5046   94.3681   -0.7423 C.3     1  UNL1        0.1099
     26 C          57.9856   94.3850   -0.9612 C.3     1  UNL1        0.0265
     27 C          61.7410   93.4980   -1.6258 C.3     1  UNL1        0.0021
     28 C          60.2203   93.3431   -1.6469 C.3     1  UNL1        0.0245
     29 O          63.5552   82.9516    9.5404 O.3     1  UNL1       -0.4727
     30 C          64.0290   82.5877   10.8396 C.3     1  UNL1        0.2374
     31 C          64.1223   83.8060   11.7740 C.3     1  UNL1        0.1909
     32 C          64.6123   83.4473   13.1595 C.3     1  UNL1        0.1783
     33 O          63.5732   83.7652   14.0309 O.3     1  UNL1       -0.3282
     34 C          62.7540   84.6723   13.3263 C.3     1  UNL1        0.2081
     35 O          62.8716   84.4076   11.9412 O.3     1  UNL1       -0.3269
     36 C          63.1936   86.1092   13.6578 C.ar    1  UNL1        0.0390
     37 C          63.1384   87.1118   12.6640 C.ar    1  UNL1        0.0021
     38 C          63.5055   88.4277   12.9489 C.ar    1  UNL1        0.0113
     39 C          63.9342   88.7745   14.2288 C.ar    1  UNL1        0.0585
     40 CL         64.3932   90.4301   14.5827 Cl      1  UNL1       -0.0822
     41 C          63.9971   87.8029   15.2278 C.ar    1  UNL1        0.0226
     42 C          63.6315   86.4782   14.9581 C.ar    1  UNL1        0.0590
     43 CL         63.7477   85.3300   16.2895 Cl      1  UNL1       -0.0824
     44 C          61.2814   84.4201   13.7464 C.3     1  UNL1        0.0609
     45 C          60.2935   84.1343   12.5882 C.3     1  UNL1        0.0052
     46 C          59.0486   85.0073   12.6871 C.3     1  UNL1        0.0002
     47 C          57.9831   84.2681   11.8965 C.3     1  UNL1        0.0000
     48 C          58.3472   82.7880   11.9715 C.3     1  UNL1        0.0000
     49 C          59.7570   82.7042   12.5525 C.3     1  UNL1        0.0002
@<TRIPOS>BOND
     1    27    28    1
     2    28    25    1
     3    25    26    1
     4    25    19    1
     5    19    20   ar
     6    20    21   ar
     7    21    22   ar
     8    22    13    1
     9    13    14   ar
    10    14    15   ar
    11    15    16   ar
    12    16     7    1
    13     7     8    1
    14     8     9    1
    15     9    10    1
    16    10     1    1
    17     1     2   ar
    18     2     3   ar
    19     3     4   ar
    20     4    29    1
    21    29    30    1
    22    30    31    1
    23    31    32    1
    24    32    33    1
    25    33    34    1
    26    34    44    1
    27    44    45    1
    28    45    46    1
    29    46    47    1
    30    47    48    1
    31    48    49    1
    32    34    36    1
    33    36    37   ar
    34    37    38   ar
    35    38    39   ar
    36    39    40    1
    37    39    41   ar
    38    41    42   ar
    39    42    43    1
    40    34    35    1
    41     4     5   ar
    42     5     6   ar
    43    10    11    1
    44    11    12    1
    45    16    17   ar
    46    17    18   ar
    47    22    23   ar
    48    23    24    2
    49    23    19   ar
    50    18    13   ar
    51    12     7    1
    52     6     1   ar
    53    35    31    1
    54    49    45    1
    55    42    36   ar
@<TRIPOS>MOLECULE
*****
 49 55 0 0 0
SMALL
GASTEIGER

@<TRIPOS>ATOM
      1 C          61.3314   86.4243    8.7956 C.ar    1  UNL1        0.0481
      2 C          61.9912   86.4543   10.0342 C.ar    1  UNL1        0.0176
      3 C          62.9512   85.4884   10.3469 C.ar    1  UNL1        0.0382
      4 C          63.2784   84.4846    9.4288 C.ar    1  UNL1        0.1388
      5 C          62.6008   84.4365    8.1971 C.ar    1  UNL1        0.0382
      6 C          61.6334   85.3968    7.8877 C.ar    1  UNL1        0.0176
      7 N          59.4945   89.6271    7.0468 N.pl3   1  UNL1       -0.3041
      8 C          60.3501   89.8669    8.2204 C.3     1  UNL1        0.1122
      9 C          60.2933   88.6926    9.2033 C.3     1  UNL1        0.1122
     10 N          60.3459   87.4220    8.4664 N.pl3   1  UNL1       -0.3041
     11 C          59.4195   87.1903    7.3458 C.3     1  UNL1        0.1122
     12 C          58.6125   88.4516    7.0178 C.3     1  UNL1        0.1122
     13 C          59.7665   92.2630    3.7067 C.ar    1  UNL1        0.0699
     14 C          58.5245   91.9977    4.3078 C.ar    1  UNL1        0.0190
     15 C          58.4350   91.1336    5.4026 C.ar    1  UNL1        0.0160
     16 C          59.5842   90.5078    5.9104 C.ar    1  UNL1        0.0480
     17 C          60.8259   90.7697    5.3095 C.ar    1  UNL1        0.0160
     18 C          60.9162   91.6357    4.2163 C.ar    1  UNL1        0.0190
     19 N          59.6284   94.0757    0.5643 N.ar    1  UNL1       -0.2024
     20 N          60.3886   94.8923    1.2783 N.ar    1  UNL1       -0.1442
     21 C          60.5212   94.3243    2.4968 C.ar    1  UNL1        0.2073
     22 N          59.8506   93.1525    2.5764 N.ar    1  UNL1       -0.2398
     23 C          59.3106   93.0263    1.3480 C.ar    1  UNL1        0.3522
     24 O          58.6274   92.0375    0.9677 O.2     1  UNL1       -0.2444
     25 C          59.2588   94.3203   -0.8348 C.3     1  UNL1        0.1099
     26 C          57.7355   94.2354   -1.0023 C.3     1  UNL1        0.0265
     27 C          61.5097   93.2862   -1.4696 C.3     1  UNL1        0.0021
     28 C          60.0104   93.3429   -1.7626 C.3     1  UNL1        0.0245
     29 O          64.2680   83.5581    9.7894 O.3     1  UNL1       -0.4727
     30 C          64.4381   82.9705   11.0819 C.3     1  UNL1        0.2374
     31 C          63.2668   82.0414   11.4440 C.3     1  UNL1        0.1909
     32 C          62.7726   81.2326   10.2651 C.3     1  UNL1        0.1783
     33 O          61.4529   81.6248   10.0537 O.3     1  UNL1       -0.3282
     34 C          61.0380   82.2209   11.2632 C.3     1  UNL1        0.2081
     35 O          62.1700   82.7735   11.9079 O.3     1  UNL1       -0.3269
     36 C          60.3612   81.1551   12.1430 C.ar    1  UNL1        0.0390
     37 C          60.8366   80.9134   13.4512 C.ar    1  UNL1        0.0021
     38 C          60.2214   79.9717   14.2772 C.ar    1  UNL1        0.0113
     39 C          59.1198   79.2511   13.8198 C.ar    1  UNL1        0.0585
     40 CL         58.3489   78.0694   14.8621 Cl      1  UNL1       -0.0822
     41 C          58.6310   79.4717   12.5320 C.ar    1  UNL1        0.0226
     42 C          59.2366   80.4136   11.6911 C.ar    1  UNL1        0.0590
     43 CL         58.5415   80.6148   10.0846 Cl      1  UNL1       -0.0824
     44 C          60.0601   83.3766   10.9217 C.3     1  UNL1        0.0609
     45 C          59.2415   83.9357   12.1119 C.3     1  UNL1        0.0052
     46 C          57.8952   84.4842   11.6556 C.3     1  UNL1        0.0002
     47 C          57.4777   85.4614   12.7408 C.3     1  UNL1        0.0000
     48 C          58.7693   85.9822   13.3649 C.3     1  UNL1        0.0000
     49 C          59.9035   85.1029   12.8424 C.3     1  UNL1        0.0002
@<TRIPOS>BOND
     1    27    28    1
     2    28    25    1
     3    25    26    1
     4    25    19    1
     5    19    20   ar
     6    20    21   ar
     7    21    22   ar
     8    22    13    1
     9    13    14   ar
    10    14    15   ar
    11    15    16   ar
    12    16     7    1
    13     7     8    1
    14     8     9    1
    15     9    10    1
    16    10     1    1
    17     1     2   ar
    18     2     3   ar
    19     3     4   ar
    20     4    29    1
    21    29    30    1
    22    30    31    1
    23    31    32    1
    24    32    33    1
    25    33    34    1
    26    34    44    1
    27    44    45    1
    28    45    46    1
    29    46    47    1
    30    47    48    1
    31    48    49    1
    32    34    36    1
    33    36    37   ar
    34    37    38   ar
    35    38    39   ar
    36    39    40    1
    37    39    41   ar
    38    41    42   ar
    39    42    43    1
    40    34    35    1
    41     4     5   ar
    42     5     6   ar
    43    10    11    1
    44    11    12    1
    45    16    17   ar
    46    17    18   ar
    47    22    23   ar
    48    23    24    2
    49    23    19   ar
    50    18    13   ar
    51    12     7    1
    52     6     1   ar
    53    35    31    1
    54    49    45    1
    55    42    36   ar
@<TRIPOS>MOLECULE
*****
 49 55 0 0 0
SMALL
GASTEIGER

@<TRIPOS>ATOM
      1 C          60.0317   85.4290    9.1773 C.ar    1  UNL1        0.0481
      2 C          58.8896   84.6134    9.2081 C.ar    1  UNL1        0.0176
      3 C          58.9906   83.2459    8.9394 C.ar    1  UNL1        0.0382
      4 C          60.2299   82.6661    8.6471 C.ar    1  UNL1        0.1388
      5 C          61.3722   83.4850    8.5903 C.ar    1  UNL1        0.0382
      6 C          61.2702   84.8547    8.8495 C.ar    1  UNL1        0.0176
      7 N          60.9260   89.1841   10.5153 N.pl3   1  UNL1       -0.3041
      8 C          60.2701   88.2489   11.4438 C.3     1  UNL1        0.1122
      9 C          59.3110   87.3086   10.7060 C.3     1  UNL1        0.1122
     10 N          59.9333   86.8380    9.4604 N.pl3   1  UNL1       -0.3041
     11 C          60.5106   87.8128    8.5203 C.3     1  UNL1        0.1122
     12 C          60.5031   89.2285    9.1083 C.3     1  UNL1        0.1122
     13 C          64.1972   91.5524   11.8822 C.ar    1  UNL1        0.0699
     14 C          63.4759   90.7458   12.7784 C.ar    1  UNL1        0.0190
     15 C          62.4035   89.9695   12.3306 C.ar    1  UNL1        0.0160
     16 C          62.0231   89.9938   10.9797 C.ar    1  UNL1        0.0480
     17 C          62.7411   90.8011   10.0831 C.ar    1  UNL1        0.0160
     18 C          63.8152   91.5756   10.5299 C.ar    1  UNL1        0.0190
     19 N          67.0550   93.1128   13.4876 N.ar    1  UNL1       -0.2024
     20 N          66.7702   94.0233   12.5688 N.ar    1  UNL1       -0.1442
     21 C          65.7026   93.5565   11.8853 C.ar    1  UNL1        0.2073
     22 N          65.2997   92.3526   12.3515 N.ar    1  UNL1       -0.2398
     23 C          66.1639   92.1103   13.3569 C.ar    1  UNL1        0.3522
     24 O          66.1225   91.0954   14.1036 O.2     1  UNL1       -0.2444
     25 C          68.1460   93.2489   14.4599 C.3     1  UNL1        0.1099
     26 C          69.2766   92.2654   14.1277 C.3     1  UNL1        0.0265
     27 C          68.3881   92.0204   16.6894 C.3     1  UNL1        0.0021
     28 C          67.6068   93.0663   15.8940 C.3     1  UNL1        0.0245
     29 O          60.2721   81.2840    8.4109 O.3     1  UNL1       -0.4727
     30 C          60.9716   80.3177    9.1995 C.3     1  UNL1        0.2374
     31 C          61.7418   80.9763   10.3567 C.3     1  UNL1        0.1909
     32 C          62.6227   80.0013   11.1060 C.3     1  UNL1        0.1783
     33 O          62.1330   79.9611   12.4093 O.3     1  UNL1       -0.3282
     34 C          61.3737   81.1401   12.5636 C.3     1  UNL1        0.2081
     35 O          60.8639   81.5196   11.2992 O.3     1  UNL1       -0.3269
     36 C          62.2699   82.2418   13.1560 C.ar    1  UNL1        0.0390
     37 C          63.5218   81.9073   13.7189 C.ar    1  UNL1        0.0021
     38 C          64.3636   82.8925   14.2369 C.ar    1  UNL1        0.0113
     39 C          63.9785   84.2314   14.2050 C.ar    1  UNL1        0.0585
     40 CL         65.0404   85.4665   14.8560 Cl      1  UNL1       -0.0822
     41 C          62.7473   84.5876   13.6540 C.ar    1  UNL1        0.0226
     42 C          61.8916   83.6111   13.1295 C.ar    1  UNL1        0.0590
     43 CL         60.3607   84.1672   12.4577 Cl      1  UNL1       -0.0824
     44 C          60.1746   80.8238   13.4966 C.3     1  UNL1        0.0609
     45 C          58.8920   80.3168   12.7914 C.3     1  UNL1        0.0052
     46 C          59.1039   78.9441   12.1651 C.3     1  UNL1        0.0002
     47 C          58.0420   78.8339   11.0847 C.3     1  UNL1        0.0000
     48 C          57.7453   80.2607   10.6319 C.3     1  UNL1        0.0000
     49 C          58.4155   81.1960   11.6362 C.3     1  UNL1        0.0002
@<TRIPOS>BOND
     1    27    28    1
     2    28    25    1
     3    25    26    1
     4    25    19    1
     5    19    20   ar
     6    20    21   ar
     7    21    22   ar
     8    22    13    1
     9    13    14   ar
    10    14    15   ar
    11    15    16   ar
    12    16     7    1
    13     7     8    1
    14     8     9    1
    15     9    10    1
    16    10     1    1
    17     1     2   ar
    18     2     3   ar
    19     3     4   ar
    20     4    29    1
    21    29    30    1
    22    30    31    1
    23    31    32    1
    24    32    33    1
    25    33    34    1
    26    34    44    1
    27    44    45    1
    28    45    46    1
    29    46    47    1
    30    47    48    1
    31    48    49    1
    32    34    36    1
    33    36    37   ar
    34    37    38   ar
    35    38    39   ar
    36    39    40    1
    37    39    41   ar
    38    41    42   ar
    39    42    43    1
    40    34    35    1
    41     4     5   ar
    42     5     6   ar
    43    10    11    1
    44    11    12    1
    45    16    17   ar
    46    17    18   ar
    47    22    23   ar
    48    23    24    2
    49    23    19   ar
    50    18    13   ar
    51    12     7    1
    52     6     1   ar
    53    35    31    1
    54    49    45    1
    55    42    36   ar
@<TRIPOS>MOLECULE
*****
 49 55 0 0 0
SMALL
GASTEIGER

@<TRIPOS>ATOM
      1 C          61.1264   86.0433    8.6778 C.ar    1  UNL1        0.0481
      2 C          60.6808   84.7134    8.6214 C.ar    1  UNL1        0.0176
      3 C          61.5676   83.6603    8.8600 C.ar    1  UNL1        0.0382
      4 C          62.9084   83.9133    9.1695 C.ar    1  UNL1        0.1388
      5 C          63.3640   85.2437    9.2018 C.ar    1  UNL1        0.0382
      6 C          62.4795   86.2971    8.9536 C.ar    1  UNL1        0.0176
      7 N          59.4770   89.4503    7.1410 N.pl3   1  UNL1       -0.3041
      8 C          60.4167   89.5750    8.2671 C.3     1  UNL1        0.1122
      9 C          60.3149   88.3759    9.2160 C.3     1  UNL1        0.1122
     10 N          60.2141   87.1322    8.4392 N.pl3   1  UNL1       -0.3041
     11 C          59.2078   87.0197    7.3705 C.3     1  UNL1        0.1122
     12 C          58.4959   88.3559    7.1302 C.3     1  UNL1        0.1122
     13 C          59.7806   92.1702    3.8717 C.ar    1  UNL1        0.0699
     14 C          58.5387   91.9195    4.4791 C.ar    1  UNL1        0.0190
     15 C          58.4389   91.0278    5.5507 C.ar    1  UNL1        0.0160
     16 C          59.5771   90.3597    6.0283 C.ar    1  UNL1        0.0480
     17 C          60.8186   90.6070    5.4210 C.ar    1  UNL1        0.0160
     18 C          60.9194   91.5005    4.3511 C.ar    1  UNL1        0.0190
     19 N          59.7099   94.0434    0.7627 N.ar    1  UNL1       -0.2024
     20 N          60.3846   94.8836    1.5330 N.ar    1  UNL1       -0.1442
     21 C          60.4835   94.2962    2.7454 C.ar    1  UNL1        0.2073
     22 N          59.8755   93.0883    2.7654 N.ar    1  UNL1       -0.2398
     23 C          59.4094   92.9609    1.5072 C.ar    1  UNL1        0.3522
     24 O          58.8031   91.9454    1.0710 O.2     1  UNL1       -0.2444
     25 C          59.4022   94.2993   -0.6493 C.3     1  UNL1        0.1099
     26 C          57.8885   94.2078   -0.8861 C.3     1  UNL1        0.0265
     27 C          61.6960   93.6503   -1.5746 C.3     1  UNL1        0.0021
     28 C          60.2003   93.3347   -1.5513 C.3     1  UNL1        0.0245
     29 O          63.7449   82.8163    9.4240 O.3     1  UNL1       -0.4727
     30 C          63.7231   81.9969   10.5957 C.3     1  UNL1        0.2374
     31 C          63.4097   82.8171   11.8588 C.3     1  UNL1        0.1909
     32 C          63.6018   82.0273   13.1345 C.3     1  UNL1        0.1783
     33 O          62.3495   81.9620   13.7407 O.3     1  UNL1       -0.3282
     34 C          61.5977   83.0091   13.1673 C.3     1  UNL1        0.2081
     35 O          62.0806   83.2503   11.8592 O.3     1  UNL1       -0.3269
     36 C          61.7284   84.2635   14.0491 C.ar    1  UNL1        0.0390
     37 C          62.4038   84.1890   15.2877 C.ar    1  UNL1        0.0021
     38 C          62.5589   85.3194   16.0912 C.ar    1  UNL1        0.0113
     39 C          62.0464   86.5481   15.6792 C.ar    1  UNL1        0.0585
     40 CL         62.2450   87.9666   16.6919 Cl      1  UNL1       -0.0822
     41 C          61.3759   86.6480   14.4600 C.ar    1  UNL1        0.0226
     42 C          61.2125   85.5232   13.6419 C.ar    1  UNL1        0.0590
     43 CL         60.3505   85.7578   12.1233 Cl      1  UNL1       -0.0824
     44 C          60.1213   82.5427   13.0626 C.3     1  UNL1        0.0609
     45 C          59.8106   81.5543   11.9111 C.3     1  UNL1        0.0052
     46 C          58.6136   82.0137   11.0878 C.3     1  UNL1        0.0002
     47 C          58.0902   80.7565   10.4151 C.3     1  UNL1        0.0000
     48 C          58.4667   79.5952   11.3308 C.3     1  UNL1        0.0000
     49 C          59.4423   80.1442   12.3696 C.3     1  UNL1        0.0002
@<TRIPOS>BOND
     1    27    28    1
     2    28    25    1
     3    25    26    1
     4    25    19    1
     5    19    20   ar
     6    20    21   ar
     7    21    22   ar
     8    22    13    1
     9    13    14   ar
    10    14    15   ar
    11    15    16   ar
    12    16     7    1
    13     7     8    1
    14     8     9    1
    15     9    10    1
    16    10     1    1
    17     1     2   ar
    18     2     3   ar
    19     3     4   ar
    20     4    29    1
    21    29    30    1
    22    30    31    1
    23    31    32    1
    24    32    33    1
    25    33    34    1
    26    34    44    1
    27    44    45    1
    28    45    46    1
    29    46    47    1
    30    47    48    1
    31    48    49    1
    32    34    36    1
    33    36    37   ar
    34    37    38   ar
    35    38    39   ar
    36    39    40    1
    37    39    41   ar
    38    41    42   ar
    39    42    43    1
    40    34    35    1
    41     4     5   ar
    42     5     6   ar
    43    10    11    1
    44    11    12    1
    45    16    17   ar
    46    17    18   ar
    47    22    23   ar
    48    23    24    2
    49    23    19   ar
    50    18    13   ar
    51    12     7    1
    52     6     1   ar
    53    35    31    1
    54    49    45    1
    55    42    36   ar
@<TRIPOS>MOLECULE
*****
 49 55 0 0 0
SMALL
GASTEIGER

@<TRIPOS>ATOM
      1 C          59.7693   86.0166    8.7015 C.ar    1  UNL1        0.0481
      2 C          58.6390   85.1985    8.8552 C.ar    1  UNL1        0.0176
      3 C          58.6662   83.8683    8.4283 C.ar    1  UNL1        0.0382
      4 C          59.8211   83.3275    7.8526 C.ar    1  UNL1        0.1388
      5 C          60.9469   84.1517    7.6738 C.ar    1  UNL1        0.0382
      6 C          60.9169   85.4851    8.0917 C.ar    1  UNL1        0.0176
      7 N          60.8842   89.5486   10.4255 N.pl3   1  UNL1       -0.3041
      8 C          60.2117   88.5429   11.2642 C.3     1  UNL1        0.1122
      9 C          59.1865   87.7378   10.4584 C.3     1  UNL1        0.1122
     10 N          59.7478   87.3865    9.1462 N.pl3   1  UNL1       -0.3041
     11 C          60.3434   88.4364    8.3034 C.3     1  UNL1        0.1122
     12 C          60.4222   89.7738    9.0485 C.3     1  UNL1        0.1122
     13 C          64.3051   91.5929   11.9409 C.ar    1  UNL1        0.0699
     14 C          63.4919   90.8305   12.7961 C.ar    1  UNL1        0.0190
     15 C          62.3704   90.1604   12.2997 C.ar    1  UNL1        0.0160
     16 C          62.0327   90.2494   10.9402 C.ar    1  UNL1        0.0480
     17 C          62.8427   91.0129   10.0844 C.ar    1  UNL1        0.0160
     18 C          63.9657   91.6811   10.5799 C.ar    1  UNL1        0.0190
     19 N          67.2773   92.8308   13.6181 N.ar    1  UNL1       -0.2024
     20 N          67.0159   93.8489   12.8121 N.ar    1  UNL1       -0.1442
     21 C          65.9094   93.5108   12.1148 C.ar    1  UNL1        0.2073
     22 N          65.4579   92.2837   12.4602 N.ar    1  UNL1       -0.2398
     23 C          66.3337   91.8921   13.4069 C.ar    1  UNL1        0.3522
     24 O          66.2597   90.8047   14.0405 O.2     1  UNL1       -0.2444
     25 C          68.3977   92.8078   14.5659 C.3     1  UNL1        0.1099
     26 C          69.5692   92.0070   13.9810 C.3     1  UNL1        0.0265
     27 C          66.6015   92.8635   16.3851 C.3     1  UNL1        0.0021
     28 C          67.9298   92.2588   15.9300 C.3     1  UNL1        0.0245
     29 O          59.7963   81.9791    7.4668 O.3     1  UNL1       -0.4727
     30 C          60.0408   80.8568    8.3186 C.3     1  UNL1        0.2374
     31 C          60.9544   81.2262    9.4998 C.3     1  UNL1        0.1909
     32 C          61.1336   80.0894   10.4815 C.3     1  UNL1        0.1783
     33 O          60.6012   80.5344   11.6892 O.3     1  UNL1       -0.3282
     34 C          60.5655   81.9413   11.5902 C.3     1  UNL1        0.2081
     35 O          60.4261   82.2964   10.2276 O.3     1  UNL1       -0.3269
     36 C          61.8603   82.5205   12.1868 C.ar    1  UNL1        0.0390
     37 C          62.5727   83.5220   11.4901 C.ar    1  UNL1        0.0021
     38 C          63.7340   84.0819   12.0244 C.ar    1  UNL1        0.0113
     39 C          64.2108   83.6583   13.2635 C.ar    1  UNL1        0.0585
     40 CL         65.6701   84.3659   13.9317 Cl      1  UNL1       -0.0822
     41 C          63.5251   82.6709   13.9714 C.ar    1  UNL1        0.0226
     42 C          62.3579   82.0997   13.4494 C.ar    1  UNL1        0.0590
     43 CL         61.5693   80.8612   14.4234 Cl      1  UNL1       -0.0824
     44 C          59.3141   82.4478   12.3555 C.3     1  UNL1        0.0609
     45 C          59.0784   83.9783   12.3165 C.3     1  UNL1        0.0052
     46 C          59.7122   84.6722   13.5158 C.3     1  UNL1        0.0002
     47 C          58.9602   85.9842   13.6568 C.3     1  UNL1        0.0000
     48 C          57.5662   85.7396   13.0859 C.3     1  UNL1        0.0000
     49 C          57.6089   84.3936   12.3655 C.3     1  UNL1        0.0002
@<TRIPOS>BOND
     1    27    28    1
     2    28    25    1
     3    25    26    1
     4    25    19    1
     5    19    20   ar
     6    20    21   ar
     7    21    22   ar
     8    22    13    1
     9    13    14   ar
    10    14    15   ar
    11    15    16   ar
    12    16     7    1
    13     7     8    1
    14     8     9    1
    15     9    10    1
    16    10     1    1
    17     1     2   ar
    18     2     3   ar
    19     3     4   ar
    20     4    29    1
    21    29    30    1
    22    30    31    1
    23    31    32    1
    24    32    33    1
    25    33    34    1
    26    34    44    1
    27    44    45    1
    28    45    46    1
    29    46    47    1
    30    47    48    1
    31    48    49    1
    32    34    36    1
    33    36    37   ar
    34    37    38   ar
    35    38    39   ar
    36    39    40    1
    37    39    41   ar
    38    41    42   ar
    39    42    43    1
    40    34    35    1
    41     4     5   ar
    42     5     6   ar
    43    10    11    1
    44    11    12    1
    45    16    17   ar
    46    17    18   ar
    47    22    23   ar
    48    23    24    2
    49    23    19   ar
    50    18    13   ar
    51    12     7    1
    52     6     1   ar
    53    35    31    1
    54    49    45    1
    55    42    36   ar
@<TRIPOS>MOLECULE
*****
 49 55 0 0 0
SMALL
GASTEIGER

@<TRIPOS>ATOM
      1 C          60.9377   86.2221    9.1412 C.ar    1  UNL1        0.0481
      2 C          62.3252   86.3788    8.9978 C.ar    1  UNL1        0.0176
      3 C          63.1992   85.3902    9.4575 C.ar    1  UNL1        0.0382
      4 C          62.7069   84.2255   10.0564 C.ar    1  UNL1        0.1388
      5 C          61.3183   84.0769   10.2247 C.ar    1  UNL1        0.0382
      6 C          60.4441   85.0700    9.7738 C.ar    1  UNL1        0.0176
      7 N          59.4556   89.4618    7.1416 N.pl3   1  UNL1       -0.3041
      8 C          60.1087   89.6818    8.4423 C.3     1  UNL1        0.1122
      9 C          59.8754   88.5020    9.3921 C.3     1  UNL1        0.1122
     10 N          60.0329   87.2357    8.6627 N.pl3   1  UNL1       -0.3041
     11 C          59.3014   87.0244    7.4026 C.3     1  UNL1        0.1122
     12 C          58.5757   88.2990    6.9571 C.3     1  UNL1        0.1122
     13 C          60.3158   92.1139    3.9159 C.ar    1  UNL1        0.0699
     14 C          59.0181   92.0346    4.4486 C.ar    1  UNL1        0.0190
     15 C          58.7358   91.1652    5.5059 C.ar    1  UNL1        0.0160
     16 C          59.7430   90.3486    6.0435 C.ar    1  UNL1        0.0480
     17 C          61.0399   90.4246    5.5108 C.ar    1  UNL1        0.0160
     18 C          61.3232   91.2957    4.4553 C.ar    1  UNL1        0.0190
     19 N          61.5814   94.0775    1.1371 N.ar    1  UNL1       -0.2024
     20 N          60.3964   94.6435    1.3100 N.ar    1  UNL1       -0.1442
     21 C          59.8073   93.9925    2.3366 C.ar    1  UNL1        0.2073
     22 N          60.5988   93.0101    2.8239 N.ar    1  UNL1       -0.2398
     23 C          61.7018   93.0973    2.0542 C.ar    1  UNL1        0.3522
     24 O          62.7290   92.3805    2.1966 O.2     1  UNL1       -0.2444
     25 C          62.5514   94.5092    0.1238 C.3     1  UNL1        0.1099
     26 C          62.6813   93.4430   -0.9725 C.3     1  UNL1        0.0265
     27 C          65.0323   93.9213    0.3204 C.3     1  UNL1        0.0021
     28 C          63.9040   94.8404    0.7887 C.3     1  UNL1        0.0245
     29 O          63.6319   83.2576   10.4750 O.3     1  UNL1       -0.4727
     30 C          63.9332   82.9136   11.8299 C.3     1  UNL1        0.2374
     31 C          63.9910   84.1568   12.7340 C.3     1  UNL1        0.1909
     32 C          64.2675   83.8175   14.1820 C.3     1  UNL1        0.1783
     33 O          63.1488   84.2376   14.8976 O.3     1  UNL1       -0.3282
     34 C          62.4970   85.1714   14.0648 C.3     1  UNL1        0.2081
     35 O          62.7760   84.8478   12.7158 O.3     1  UNL1       -0.3269
     36 C          62.9920   86.5865   14.4118 C.ar    1  UNL1        0.0390
     37 C          63.4328   87.4519   13.3859 C.ar    1  UNL1        0.0021
     38 C          63.8599   88.7490   13.6734 C.ar    1  UNL1        0.0113
     39 C          63.8565   89.2132   14.9874 C.ar    1  UNL1        0.0585
     40 CL         64.3929   90.8448   15.3440 Cl      1  UNL1       -0.0822
     41 C          63.4255   88.3781   16.0184 C.ar    1  UNL1        0.0226
     42 C          62.9932   87.0741   15.7463 C.ar    1  UNL1        0.0590
     43 CL         62.4697   86.1026   17.1198 Cl      1  UNL1       -0.0824
     44 C          60.9677   85.0358   14.2913 C.3     1  UNL1        0.0609
     45 C          60.0729   85.8754   13.3459 C.3     1  UNL1        0.0052
     46 C          59.6312   87.1768   14.0040 C.3     1  UNL1        0.0002
     47 C          58.3772   87.5931   13.2549 C.3     1  UNL1        0.0000
     48 C          57.7442   86.3054   12.7352 C.3     1  UNL1        0.0000
     49 C          58.7698   85.1917   12.9352 C.3     1  UNL1        0.0002
@<TRIPOS>BOND
     1    27    28    1
     2    28    25    1
     3    25    26    1
     4    25    19    1
     5    19    20   ar
     6    20    21   ar
     7    21    22   ar
     8    22    13    1
     9    13    14   ar
    10    14    15   ar
    11    15    16   ar
    12    16     7    1
    13     7     8    1
    14     8     9    1
    15     9    10    1
    16    10     1    1
    17     1     2   ar
    18     2     3   ar
    19     3     4   ar
    20     4    29    1
    21    29    30    1
    22    30    31    1
    23    31    32    1
    24    32    33    1
    25    33    34    1
    26    34    44    1
    27    44    45    1
    28    45    46    1
    29    46    47    1
    30    47    48    1
    31    48    49    1
    32    34    36    1
    33    36    37   ar
    34    37    38   ar
    35    38    39   ar
    36    39    40    1
    37    39    41   ar
    38    41    42   ar
    39    42    43    1
    40    34    35    1
    41     4     5   ar
    42     5     6   ar
    43    10    11    1
    44    11    12    1
    45    16    17   ar
    46    17    18   ar
    47    22    23   ar
    48    23    24    2
    49    23    19   ar
    50    18    13   ar
    51    12     7    1
    52     6     1   ar
    53    35    31    1
    54    49    45    1
    55    42    36   ar
@<TRIPOS>MOLECULE
*****
 49 55 0 0 0
SMALL
GASTEIGER

@<TRIPOS>ATOM
      1 C          59.5364   84.3563    8.2473 C.ar    1  UNL1        0.0481
      2 C          58.3250   84.2255    8.9443 C.ar    1  UNL1        0.0176
      3 C          57.7146   82.9751    9.0717 C.ar    1  UNL1        0.0382
      4 C          58.3047   81.8336    8.5181 C.ar    1  UNL1        0.1388
      5 C          59.5054   81.9653    7.7973 C.ar    1  UNL1        0.0382
      6 C          60.1114   83.2174    7.6612 C.ar    1  UNL1        0.0176
      7 N          61.3293   87.9035    9.1925 N.pl3   1  UNL1       -0.3041
      8 C          59.8590   87.8556    9.1398 C.3     1  UNL1        0.1122
      9 C          59.3693   86.8723    8.0713 C.3     1  UNL1        0.1122
     10 N          60.1726   85.6424    8.1193 N.pl3   1  UNL1       -0.3041
     11 C          61.6420   85.7298    8.0925 C.3     1  UNL1        0.1122
     12 C          62.1171   87.1846    8.1812 C.3     1  UNL1        0.1122
     13 C          63.2190   89.9547   12.4175 C.ar    1  UNL1        0.0699
     14 C          62.7506   90.6624   11.2976 C.ar    1  UNL1        0.0190
     15 C          62.1313   89.9902   10.2403 C.ar    1  UNL1        0.0160
     16 C          61.9790   88.5953   10.2762 C.ar    1  UNL1        0.0480
     17 C          62.4486   87.8861   11.3932 C.ar    1  UNL1        0.0160
     18 C          63.0657   88.5581   12.4519 C.ar    1  UNL1        0.0190
     19 N          65.2340   91.9165   14.7132 N.ar    1  UNL1       -0.2024
     20 N          64.3440   91.4069   15.5515 N.ar    1  UNL1       -0.1442
     21 C          63.5151   90.6400   14.8101 C.ar    1  UNL1        0.2073
     22 N          63.8593   90.6539   13.5023 N.ar    1  UNL1       -0.2398
     23 C          64.9418   91.4565   13.4806 C.ar    1  UNL1        0.3522
     24 O          65.6172   91.7148   12.4479 O.2     1  UNL1       -0.2444
     25 C          66.3323   92.7980   15.1264 C.3     1  UNL1        0.1099
     26 C          66.6037   93.8494   14.0418 C.3     1  UNL1        0.0265
     27 C          68.7838   92.8303   15.8531 C.3     1  UNL1        0.0021
     28 C          67.5850   91.9638   15.4669 C.3     1  UNL1        0.0245
     29 O          57.6579   80.6024    8.7006 O.3     1  UNL1       -0.4727
     30 C          57.5132   79.9048    9.9404 C.3     1  UNL1        0.2374
     31 C          58.7457   80.0850   10.8429 C.3     1  UNL1        0.1909
     32 C          58.6395   79.3175   12.1421 C.3     1  UNL1        0.1783
     33 O          58.6533   80.2718   13.1566 O.3     1  UNL1       -0.3282
     34 C          59.2091   81.4314   12.5763 C.3     1  UNL1        0.2081
     35 O          58.9214   81.4274   11.1908 O.3     1  UNL1       -0.3269
     36 C          60.7269   81.4429   12.8297 C.ar    1  UNL1        0.0390
     37 C          61.2522   80.8490   13.9990 C.ar    1  UNL1        0.0021
     38 C          62.6272   80.8228   14.2366 C.ar    1  UNL1        0.0113
     39 C          63.5087   81.3856   13.3157 C.ar    1  UNL1        0.0585
     40 CL         65.2362   81.3490   13.6179 Cl      1  UNL1       -0.0822
     41 C          63.0149   81.9777   12.1530 C.ar    1  UNL1        0.0226
     42 C          61.6380   82.0116   11.8996 C.ar    1  UNL1        0.0590
     43 CL         61.1195   82.7828   10.4027 Cl      1  UNL1       -0.0824
     44 C          58.5201   82.6679   13.2127 C.3     1  UNL1        0.0609
     45 C          58.7397   84.0117   12.4743 C.3     1  UNL1        0.0052
     46 C          59.7979   84.8628   13.1652 C.3     1  UNL1        0.0002
     47 C          59.5131   86.2867   12.7200 C.3     1  UNL1        0.0000
     48 C          58.0183   86.3478   12.4186 C.3     1  UNL1        0.0000
     49 C          57.5049   84.9095   12.4136 C.3     1  UNL1        0.0002
@<TRIPOS>BOND
     1    27    28    1
     2    28    25    1
     3    25    26    1
     4    25    19    1
     5    19    20   ar
     6    20    21   ar
     7    21    22   ar
     8    22    13    1
     9    13    14   ar
    10    14    15   ar
    11    15    16   ar
    12    16     7    1
    13     7     8    1
    14     8     9    1
    15     9    10    1
    16    10     1    1
    17     1     2   ar
    18     2     3   ar
    19     3     4   ar
    20     4    29    1
    21    29    30    1
    22    30    31    1
    23    31    32    1
    24    32    33    1
    25    33    34    1
    26    34    44    1
    27    44    45    1
    28    45    46    1
    29    46    47    1
    30    47    48    1
    31    48    49    1
    32    34    36    1
    33    36    37   ar
    34    37    38   ar
    35    38    39   ar
    36    39    40    1
    37    39    41   ar
    38    41    42   ar
    39    42    43    1
    40    34    35    1
    41     4     5   ar
    42     5     6   ar
    43    10    11    1
    44    11    12    1
    45    16    17   ar
    46    17    18   ar
    47    22    23   ar
    48    23    24    2
    49    23    19   ar
    50    18    13   ar
    51    12     7    1
    52     6     1   ar
    53    35    31    1
    54    49    45    1
    55    42    36   ar
