@<TRIPOS>MOLECULE
*****
 45 51 0 0 0
SMALL
GASTEIGER

@<TRIPOS>ATOM
      1 C         -28.7400   46.5236   -8.7090 C.3     1  UNL1        0.0814
      2 C         -27.4462   46.2710   -9.5124 C.3     1  UNL1        0.0252
      3 C         -26.2739   46.6624   -8.6002 C.3     1  UNL1        0.0278
      4 C         -26.9205   47.3352   -7.4479 C.ar    1  UNL1       -0.0251
      5 C         -26.2533   47.9681   -6.4020 C.ar    1  UNL1       -0.0046
      6 C         -27.0019   48.5811   -5.3836 C.ar    1  UNL1       -0.0005
      7 C         -28.4092   48.4941   -5.4098 C.ar    1  UNL1       -0.0046
      8 C         -29.0799   47.8104   -6.4492 C.ar    1  UNL1       -0.0255
      9 C         -28.2962   47.2830   -7.4996 C.ar    1  UNL1       -0.0156
     10 C         -30.8519   46.6554  -10.1131 C.3     1  UNL1        0.1158
     11 N         -31.5822   47.5226  -10.8560 N.3     1  UNL1       -0.2851
     12 C         -30.9228   48.6805  -10.7125 C.3     1  UNL1        0.0910
     13 C         -31.2407   49.8919  -11.3031 C.3     1  UNL1        0.1018
     14 C         -30.3919   50.9759  -11.0476 C.3     1  UNL1        0.3136
     15 N         -29.2974   50.8448  -10.2192 N.am    1  UNL1       -0.1294
     16 C         -28.9753   49.6156   -9.6762 C.2     1  UNL1        0.4047
     17 O         -27.9334   49.4780   -8.9856 O.2     1  UNL1       -0.2174
     18 C         -29.8256   48.5230   -9.9210 C.3     1  UNL1        0.2038
     19 N         -29.7616   47.2275   -9.5166 N.3     1  UNL1       -0.2473
     20 H         -32.5348   47.5976  -10.4991 H       1  UNL1        0.1244
     21 C         -31.5840   44.7979   -8.6151 C.3     1  UNL1        0.0029
     22 C         -31.2184   45.1980  -10.0400 C.3     1  UNL1        0.0326
     23 C         -28.4270   52.0181   -9.9981 C.3     1  UNL1        0.3394
     24 C         -27.0442   51.6267   -9.5082 C.ar    1  UNL1        0.0505
     25 C         -26.0786   51.2382  -10.4555 C.ar    1  UNL1        0.0021
     26 C         -24.7942   50.8687  -10.0543 C.ar    1  UNL1       -0.0001
     27 C         -24.4526   50.8830   -8.7035 C.ar    1  UNL1       -0.0003
     28 C         -25.3956   51.2624   -7.7477 C.ar    1  UNL1       -0.0044
     29 C         -26.7000   51.6212   -8.1302 C.ar    1  UNL1       -0.0193
     30 C         -27.6606   52.0737   -7.0639 C.3     1  UNL1        0.0309
     31 C         -26.3169   49.2718   -4.2643 C.ar    1  UNL1        0.0030
     32 C         -26.1114   50.6598   -4.3657 C.ar    1  UNL1        0.0001
     33 C         -25.5604   51.3781   -3.3042 C.ar    1  UNL1        0.0000
     34 C         -25.2124   50.7239   -2.1242 C.ar    1  UNL1        0.0001
     35 C         -25.3970   49.3456   -2.0072 C.ar    1  UNL1        0.0031
     36 C         -25.9293   48.5986   -3.0733 C.ar    1  UNL1        0.0371
     37 C         -26.0280   47.1287   -2.9141 C.ar    1  UNL1        0.1806
     38 N         -27.0419   46.4991   -2.2899 N.ar    1  UNL1       -0.1084
     39 N         -26.7198   45.2133   -2.3206 N.ar    1  UNL1       -0.0229
     40 N         -25.5523   45.0543   -2.9251 N.ar    1  UNL1       -0.0464
     41 N         -25.1004   46.2367   -3.3004 N.ar    1  UNL1       -0.2388
     42 H         -24.1844   46.4099   -3.7665 H       1  UNL1        0.1923
     43 C         -30.5922   47.6583   -6.4153 C.3     1  UNL1        0.0221
     44 C         -31.0491   46.8121   -5.2194 C.3     1  UNL1        0.0047
     45 C         -31.2777   49.0275   -6.4143 C.3     1  UNL1        0.0047
@<TRIPOS>BOND
     1    21    22    1
     2    22    10    1
     3    10    11    1
     4    11    12    1
     5    12    13    1
     6    13    14    1
     7    14    15    1
     8    15    23    1
     9    23    24    1
    10    24    25   ar
    11    25    26   ar
    12    26    27   ar
    13    27    28   ar
    14    28    29   ar
    15    29    30    1
    16    15    16    1
    17    16    17    2
    18    16    18    1
    19    18    19    1
    20    19     1    1
    21     1     2    1
    22     2     3    1
    23     3     4    1
    24     4     5   ar
    25     5     6   ar
    26     6    31    1
    27    31    32   ar
    28    32    33   ar
    29    33    34   ar
    30    34    35   ar
    31    35    36   ar
    32    36    37    1
    33    37    38   ar
    34    38    39   ar
    35    39    40   ar
    36    40    41   ar
    37     6     7   ar
    38     7     8   ar
    39     8    43    1
    40    43    44    1
    41    43    45    1
    42     8     9   ar
    43    19    10    1
    44     9     1    1
    45    18    12    1
    46     9     4   ar
    47    29    24   ar
    48    36    31   ar
    49    41    37   ar
    50    41    42    1
    51    11    20    1
@<TRIPOS>MOLECULE
*****
 45 51 0 0 0
SMALL
GASTEIGER

@<TRIPOS>ATOM
      1 C         -26.8792   50.8469   -6.9375 C.3     1  UNL1        0.0814
      2 C         -27.5537   51.9883   -6.1466 C.3     1  UNL1        0.0252
      3 C         -28.3129   51.3333   -4.9829 C.3     1  UNL1        0.0278
      4 C         -28.2563   49.8827   -5.2842 C.ar    1  UNL1       -0.0251
      5 C         -28.9068   48.8814   -4.5674 C.ar    1  UNL1       -0.0046
      6 C         -28.7751   47.5459   -4.9827 C.ar    1  UNL1       -0.0005
      7 C         -27.9429   47.2401   -6.0793 C.ar    1  UNL1       -0.0046
      8 C         -27.2479   48.2555   -6.7749 C.ar    1  UNL1       -0.0255
      9 C         -27.4751   49.5931   -6.3814 C.ar    1  UNL1       -0.0156
     10 C         -28.2611   50.9750   -9.0643 C.3     1  UNL1        0.1158
     11 N         -28.1341   51.0682  -10.4105 N.3     1  UNL1       -0.2851
     12 C         -26.8090   51.1619  -10.5882 C.3     1  UNL1        0.0910
     13 C         -26.1408   51.2474  -11.7979 C.3     1  UNL1        0.1018
     14 C         -24.7421   51.3002  -11.7591 C.3     1  UNL1        0.3136
     15 N         -24.0611   51.2928  -10.5602 N.am    1  UNL1       -0.1294
     16 C         -24.7471   51.1627   -9.3678 C.2     1  UNL1        0.4047
     17 O         -24.1221   51.0759   -8.2799 O.2     1  UNL1       -0.2174
     18 C         -26.1520   51.1165   -9.3959 C.3     1  UNL1        0.2038
     19 N         -27.0667   51.0028   -8.3977 N.3     1  UNL1       -0.2473
     20 H         -28.6102   51.8972  -10.7662 H       1  UNL1        0.1244
     21 C         -30.2587   49.4908   -8.8727 C.3     1  UNL1        0.0029
     22 C         -29.6105   50.7955   -8.4236 C.3     1  UNL1        0.0326
     23 C         -22.5842   51.3338  -10.5797 C.3     1  UNL1        0.3394
     24 C         -22.0445   52.7476  -10.4567 C.ar    1  UNL1        0.0505
     25 C         -22.9524   53.8219  -10.5025 C.ar    1  UNL1        0.0021
     26 C         -22.5046   55.1392  -10.3948 C.ar    1  UNL1       -0.0001
     27 C         -21.1458   55.4049  -10.2377 C.ar    1  UNL1       -0.0003
     28 C         -20.2285   54.3546  -10.1924 C.ar    1  UNL1       -0.0044
     29 C         -20.6578   53.0217  -10.3168 C.ar    1  UNL1       -0.0193
     30 C         -19.6327   51.9254  -10.2070 C.3     1  UNL1        0.0309
     31 C         -29.4662   46.4614   -4.2443 C.ar    1  UNL1        0.0030
     32 C         -30.8691   46.5104   -4.1501 C.ar    1  UNL1        0.0001
     33 C         -31.5800   45.4695   -3.5522 C.ar    1  UNL1        0.0000
     34 C         -30.9030   44.3621   -3.0455 C.ar    1  UNL1        0.0001
     35 C         -29.5108   44.2990   -3.1181 C.ar    1  UNL1        0.0031
     36 C         -28.7729   45.3477   -3.6958 C.ar    1  UNL1        0.0371
     37 C         -27.2941   45.2554   -3.6725 C.ar    1  UNL1        0.1806
     38 N         -26.5062   45.9117   -2.7993 N.ar    1  UNL1       -0.1084
     39 N         -25.2668   45.6004   -3.1526 N.ar    1  UNL1       -0.0229
     40 N         -25.2853   44.7977   -4.2058 N.ar    1  UNL1       -0.0464
     41 N         -26.5399   44.5721   -4.5497 N.ar    1  UNL1       -0.2388
     42 H         -26.8459   44.0035   -5.3678 H       1  UNL1        0.1923
     43 C         -26.2927   47.8965   -7.9019 C.3     1  UNL1        0.0221
     44 C         -25.2110   46.9132   -7.4350 C.3     1  UNL1        0.0047
     45 C         -27.0566   47.3424   -9.1078 C.3     1  UNL1        0.0047
@<TRIPOS>BOND
     1    21    22    1
     2    22    10    1
     3    10    11    1
     4    11    12    1
     5    12    13    1
     6    13    14    1
     7    14    15    1
     8    15    23    1
     9    23    24    1
    10    24    25   ar
    11    25    26   ar
    12    26    27   ar
    13    27    28   ar
    14    28    29   ar
    15    29    30    1
    16    15    16    1
    17    16    17    2
    18    16    18    1
    19    18    19    1
    20    19     1    1
    21     1     2    1
    22     2     3    1
    23     3     4    1
    24     4     5   ar
    25     5     6   ar
    26     6    31    1
    27    31    32   ar
    28    32    33   ar
    29    33    34   ar
    30    34    35   ar
    31    35    36   ar
    32    36    37    1
    33    37    38   ar
    34    38    39   ar
    35    39    40   ar
    36    40    41   ar
    37     6     7   ar
    38     7     8   ar
    39     8    43    1
    40    43    44    1
    41    43    45    1
    42     8     9   ar
    43    19    10    1
    44     9     1    1
    45    18    12    1
    46     9     4   ar
    47    29    24   ar
    48    36    31   ar
    49    41    37   ar
    50    41    42    1
    51    11    20    1
@<TRIPOS>MOLECULE
*****
 45 51 0 0 0
SMALL
GASTEIGER

@<TRIPOS>ATOM
      1 C         -27.7043   48.8818   -9.2107 C.3     1  UNL1        0.0814
      2 C         -26.1640   48.8169   -9.1284 C.3     1  UNL1        0.0252
      3 C         -25.8157   48.3151   -7.7190 C.3     1  UNL1        0.0278
      4 C         -27.1075   48.3510   -6.9921 C.ar    1  UNL1       -0.0251
      5 C         -27.2800   48.0888   -5.6352 C.ar    1  UNL1       -0.0046
      6 C         -28.5665   48.1790   -5.0785 C.ar    1  UNL1       -0.0005
      7 C         -29.6637   48.4759   -5.9133 C.ar    1  UNL1       -0.0046
      8 C         -29.4896   48.6955   -7.2986 C.ar    1  UNL1       -0.0255
      9 C         -28.1704   48.6819   -7.8039 C.ar    1  UNL1       -0.0156
     10 C         -27.8063   51.4089   -9.4398 C.3     1  UNL1        0.1158
     11 N         -28.4440   52.3893  -10.1249 N.3     1  UNL1       -0.2851
     12 C         -29.2326   51.7105  -10.9696 C.3     1  UNL1        0.0910
     13 C         -30.1259   52.2489  -11.8803 C.3     1  UNL1        0.1018
     14 C         -30.8840   51.3541  -12.6454 C.3     1  UNL1        0.3136
     15 N         -30.7263   49.9907  -12.5124 N.am    1  UNL1       -0.1294
     16 C         -29.8606   49.4765  -11.5662 C.2     1  UNL1        0.4047
     17 O         -29.7750   48.2342  -11.3898 O.2     1  UNL1       -0.2174
     18 C         -29.0895   50.3668  -10.7984 C.3     1  UNL1        0.2038
     19 N         -28.1706   50.1468   -9.8221 N.3     1  UNL1       -0.2473
     20 H         -27.7789   52.9717  -10.6338 H       1  UNL1        0.1244
     21 C         -27.5913   52.0576   -7.0391 C.3     1  UNL1        0.0029
     22 C         -26.8455   51.7379   -8.3298 C.3     1  UNL1        0.0326
     23 C         -31.5647   49.0933  -13.3340 C.3     1  UNL1        0.3394
     24 C         -30.9032   48.7316  -14.6520 C.ar    1  UNL1        0.0505
     25 C         -30.5866   49.7652  -15.5531 C.ar    1  UNL1        0.0021
     26 C         -29.9790   49.4829  -16.7772 C.ar    1  UNL1       -0.0001
     27 C         -29.6763   48.1668  -17.1202 C.ar    1  UNL1       -0.0003
     28 C         -29.9841   47.1268  -16.2425 C.ar    1  UNL1       -0.0044
     29 C         -30.6121   47.3889  -15.0123 C.ar    1  UNL1       -0.0193
     30 C         -30.8726   46.2361  -14.0807 C.3     1  UNL1        0.0309
     31 C         -28.7765   47.9162   -3.6342 C.ar    1  UNL1        0.0030
     32 C         -29.6006   48.7975   -2.9109 C.ar    1  UNL1        0.0001
     33 C         -29.9121   48.5469   -1.5743 C.ar    1  UNL1        0.0000
     34 C         -29.4117   47.4108   -0.9417 C.ar    1  UNL1        0.0001
     35 C         -28.5827   46.5298   -1.6375 C.ar    1  UNL1        0.0031
     36 C         -28.2373   46.7754   -2.9785 C.ar    1  UNL1        0.0371
     37 C         -27.2918   45.8436   -3.6371 C.ar    1  UNL1        0.1806
     38 N         -25.9675   46.0607   -3.7510 N.ar    1  UNL1       -0.1084
     39 N         -25.5075   45.0274   -4.4428 N.ar    1  UNL1       -0.0229
     40 N         -26.5041   44.2131   -4.7551 N.ar    1  UNL1       -0.0464
     41 N         -27.6275   44.7046   -4.2657 N.ar    1  UNL1       -0.2388
     42 H         -28.5732   44.2857   -4.3943 H       1  UNL1        0.1923
     43 C         -30.6948   48.9334   -8.1943 C.3     1  UNL1        0.0221
     44 C         -31.5818   47.6850   -8.2926 C.3     1  UNL1        0.0047
     45 C         -31.5000   50.1440   -7.7140 C.3     1  UNL1        0.0047
@<TRIPOS>BOND
     1    21    22    1
     2    22    10    1
     3    10    11    1
     4    11    12    1
     5    12    13    1
     6    13    14    1
     7    14    15    1
     8    15    23    1
     9    23    24    1
    10    24    25   ar
    11    25    26   ar
    12    26    27   ar
    13    27    28   ar
    14    28    29   ar
    15    29    30    1
    16    15    16    1
    17    16    17    2
    18    16    18    1
    19    18    19    1
    20    19     1    1
    21     1     2    1
    22     2     3    1
    23     3     4    1
    24     4     5   ar
    25     5     6   ar
    26     6    31    1
    27    31    32   ar
    28    32    33   ar
    29    33    34   ar
    30    34    35   ar
    31    35    36   ar
    32    36    37    1
    33    37    38   ar
    34    38    39   ar
    35    39    40   ar
    36    40    41   ar
    37     6     7   ar
    38     7     8   ar
    39     8    43    1
    40    43    44    1
    41    43    45    1
    42     8     9   ar
    43    19    10    1
    44     9     1    1
    45    18    12    1
    46     9     4   ar
    47    29    24   ar
    48    36    31   ar
    49    41    37   ar
    50    41    42    1
    51    11    20    1
@<TRIPOS>MOLECULE
*****
 45 51 0 0 0
SMALL
GASTEIGER

@<TRIPOS>ATOM
      1 C         -26.9133   50.9719   -6.9525 C.3     1  UNL1        0.0814
      2 C         -27.7282   52.1228   -6.3242 C.3     1  UNL1        0.0252
      3 C         -28.7165   51.4805   -5.3393 C.3     1  UNL1        0.0278
      4 C         -28.6100   50.0275   -5.6148 C.ar    1  UNL1       -0.0251
      5 C         -29.4023   49.0352   -5.0428 C.ar    1  UNL1       -0.0046
      6 C         -29.1978   47.6962   -5.4149 C.ar    1  UNL1       -0.0005
      7 C         -28.1590   47.3778   -6.3140 C.ar    1  UNL1       -0.0046
      8 C         -27.3275   48.3840   -6.8561 C.ar    1  UNL1       -0.0255
      9 C         -27.6209   49.7256   -6.5251 C.ar    1  UNL1       -0.0156
     10 C         -27.8250   51.0997   -9.3193 C.3     1  UNL1        0.1158
     11 N         -27.4218   51.1817  -10.6107 N.3     1  UNL1       -0.2851
     12 C         -26.0875   51.2594  -10.5115 C.3     1  UNL1        0.0910
     13 C         -25.1831   51.3286  -11.5576 C.3     1  UNL1        0.1018
     14 C         -23.8219   51.3662  -11.2313 C.3     1  UNL1        0.3136
     15 N         -23.4031   51.3600   -9.9176 N.am    1  UNL1       -0.1294
     16 C         -24.3219   51.2462   -8.8918 C.2     1  UNL1        0.4047
     17 O         -23.9360   51.1605   -7.6979 O.2     1  UNL1       -0.2174
     18 C         -25.6912   51.2154   -9.2091 C.3     1  UNL1        0.2038
     19 N         -26.7935   51.1191   -8.4206 N.3     1  UNL1       -0.2473
     20 H         -27.8040   52.0133  -11.0610 H       1  UNL1        0.1244
     21 C         -29.8415   49.6471   -9.5508 C.3     1  UNL1        0.0029
     22 C         -29.2796   50.9399   -8.9701 C.3     1  UNL1        0.0326
     23 C         -21.9535   51.3845   -9.6320 C.3     1  UNL1        0.3394
     24 C         -21.3861   52.7928   -9.6474 C.ar    1  UNL1        0.0505
     25 C         -21.9921   53.7545  -10.4771 C.ar    1  UNL1        0.0021
     26 C         -21.5061   55.0617  -10.5265 C.ar    1  UNL1       -0.0001
     27 C         -20.4106   55.4300   -9.7483 C.ar    1  UNL1       -0.0003
     28 C         -19.7934   54.4914   -8.9208 C.ar    1  UNL1       -0.0044
     29 C         -20.2570   53.1651   -8.8703 C.ar    1  UNL1       -0.0193
     30 C         -19.5885   52.2079   -7.9208 C.3     1  UNL1        0.0309
     31 C         -30.0349   46.6212   -4.8298 C.ar    1  UNL1        0.0030
     32 C         -30.8482   45.8665   -5.6948 C.ar    1  UNL1        0.0001
     33 C         -31.5827   44.7811   -5.2164 C.ar    1  UNL1        0.0000
     34 C         -31.5119   44.4288   -3.8702 C.ar    1  UNL1        0.0001
     35 C         -30.7205   45.1713   -2.9929 C.ar    1  UNL1        0.0031
     36 C         -29.9901   46.2831   -3.4493 C.ar    1  UNL1        0.0371
     37 C         -29.2309   47.0755   -2.4535 C.ar    1  UNL1        0.1806
     38 N         -29.7789   47.6592   -1.3705 N.ar    1  UNL1       -0.1084
     39 N         -28.7798   48.3041   -0.7843 N.ar    1  UNL1       -0.0229
     40 N         -27.6651   48.1384   -1.4799 N.ar    1  UNL1       -0.0464
     41 N         -27.9240   47.3782   -2.5279 N.ar    1  UNL1       -0.2388
     42 H         -27.2358   47.1174   -3.2660 H       1  UNL1        0.1923
     43 C         -26.1626   48.0114   -7.7592 C.3     1  UNL1        0.0221
     44 C         -25.2076   47.0255   -7.0729 C.3     1  UNL1        0.0047
     45 C         -26.6648   47.4526   -9.0935 C.3     1  UNL1        0.0047
@<TRIPOS>BOND
     1    21    22    1
     2    22    10    1
     3    10    11    1
     4    11    12    1
     5    12    13    1
     6    13    14    1
     7    14    15    1
     8    15    23    1
     9    23    24    1
    10    24    25   ar
    11    25    26   ar
    12    26    27   ar
    13    27    28   ar
    14    28    29   ar
    15    29    30    1
    16    15    16    1
    17    16    17    2
    18    16    18    1
    19    18    19    1
    20    19     1    1
    21     1     2    1
    22     2     3    1
    23     3     4    1
    24     4     5   ar
    25     5     6   ar
    26     6    31    1
    27    31    32   ar
    28    32    33   ar
    29    33    34   ar
    30    34    35   ar
    31    35    36   ar
    32    36    37    1
    33    37    38   ar
    34    38    39   ar
    35    39    40   ar
    36    40    41   ar
    37     6     7   ar
    38     7     8   ar
    39     8    43    1
    40    43    44    1
    41    43    45    1
    42     8     9   ar
    43    19    10    1
    44     9     1    1
    45    18    12    1
    46     9     4   ar
    47    29    24   ar
    48    36    31   ar
    49    41    37   ar
    50    41    42    1
    51    11    20    1
@<TRIPOS>MOLECULE
*****
 45 51 0 0 0
SMALL
GASTEIGER

@<TRIPOS>ATOM
      1 C         -28.4035   47.9306   -5.6604 C.3     1  UNL1        0.0814
      2 C         -28.9475   47.0783   -6.8271 C.3     1  UNL1        0.0252
      3 C         -28.0442   47.3558   -8.0381 C.3     1  UNL1        0.0278
      4 C         -27.2051   48.5006   -7.6094 C.ar    1  UNL1       -0.0251
      5 C         -26.3003   49.1872   -8.4154 C.ar    1  UNL1       -0.0046
      6 C         -25.5848   50.2683   -7.8745 C.ar    1  UNL1       -0.0005
      7 C         -25.7535   50.5998   -6.5142 C.ar    1  UNL1       -0.0046
      8 C         -26.6386   49.8702   -5.6885 C.ar    1  UNL1       -0.0255
      9 C         -27.4039   48.8469   -6.2908 C.ar    1  UNL1       -0.0156
     10 C         -30.2544   49.6542   -5.4313 C.3     1  UNL1        0.1158
     11 N         -31.1262   50.1641   -4.5273 N.3     1  UNL1       -0.2851
     12 C         -30.8967   49.4286   -3.4307 C.3     1  UNL1        0.0910
     13 C         -31.5107   49.5686   -2.1976 C.3     1  UNL1        0.1018
     14 C         -31.0935   48.7145   -1.1693 C.3     1  UNL1        0.3136
     15 N         -30.1267   47.7558   -1.3867 N.am    1  UNL1       -0.1294
     16 C         -29.4970   47.6640   -2.6133 C.2     1  UNL1        0.4047
     17 O         -28.5603   46.8433   -2.7883 O.2     1  UNL1       -0.2174
     18 C         -29.9142   48.5120   -3.6542 C.3     1  UNL1        0.2038
     19 N         -29.4884   48.6332   -4.9388 N.3     1  UNL1       -0.2473
     20 H         -32.0889   50.0548   -4.8460 H       1  UNL1        0.1244
     21 C         -31.2951   49.7828   -7.6963 C.3     1  UNL1        0.0029
     22 C         -30.1396   50.2391   -6.8127 C.3     1  UNL1        0.0326
     23 C         -29.7135   46.8928   -0.2607 C.3     1  UNL1        0.3394
     24 C         -30.1873   47.4265    1.0795 C.ar    1  UNL1        0.0505
     25 C         -29.7526   48.7007    1.4892 C.ar    1  UNL1        0.0021
     26 C         -30.1599   49.2339    2.7128 C.ar    1  UNL1       -0.0001
     27 C         -31.0079   48.5059    3.5449 C.ar    1  UNL1       -0.0003
     28 C         -31.4485   47.2395    3.1589 C.ar    1  UNL1       -0.0044
     29 C         -31.0355   46.6777    1.9382 C.ar    1  UNL1       -0.0193
     30 C         -31.5835   45.3320    1.5468 C.3     1  UNL1        0.0309
     31 C         -24.6236   51.0238   -8.7139 C.ar    1  UNL1        0.0030
     32 C         -23.2698   51.0314   -8.3313 C.ar    1  UNL1        0.0001
     33 C         -22.3060   51.6432   -9.1334 C.ar    1  UNL1        0.0000
     34 C         -22.6774   52.2505  -10.3312 C.ar    1  UNL1        0.0001
     35 C         -24.0166   52.2644  -10.7234 C.ar    1  UNL1        0.0031
     36 C         -25.0074   51.6740   -9.9188 C.ar    1  UNL1        0.0371
     37 C         -26.4194   51.7903  -10.3531 C.ar    1  UNL1        0.1806
     38 N         -26.8601   51.4924  -11.5904 N.ar    1  UNL1       -0.1084
     39 N         -28.1536   51.7831  -11.5745 N.ar    1  UNL1       -0.0229
     40 N         -28.4965   52.2526  -10.3847 N.ar    1  UNL1       -0.0464
     41 N         -27.4293   52.2695   -9.6077 N.ar    1  UNL1       -0.2388
     42 H         -27.4041   52.6266   -8.6287 H       1  UNL1        0.1923
     43 C         -26.7447   50.1917   -4.2063 C.3     1  UNL1        0.0221
     44 C         -26.1849   49.0557   -3.3396 C.3     1  UNL1        0.0047
     45 C         -26.0534   51.5199   -3.8861 C.3     1  UNL1        0.0047
@<TRIPOS>BOND
     1    21    22    1
     2    22    10    1
     3    10    11    1
     4    11    12    1
     5    12    13    1
     6    13    14    1
     7    14    15    1
     8    15    23    1
     9    23    24    1
    10    24    25   ar
    11    25    26   ar
    12    26    27   ar
    13    27    28   ar
    14    28    29   ar
    15    29    30    1
    16    15    16    1
    17    16    17    2
    18    16    18    1
    19    18    19    1
    20    19     1    1
    21     1     2    1
    22     2     3    1
    23     3     4    1
    24     4     5   ar
    25     5     6   ar
    26     6    31    1
    27    31    32   ar
    28    32    33   ar
    29    33    34   ar
    30    34    35   ar
    31    35    36   ar
    32    36    37    1
    33    37    38   ar
    34    38    39   ar
    35    39    40   ar
    36    40    41   ar
    37     6     7   ar
    38     7     8   ar
    39     8    43    1
    40    43    44    1
    41    43    45    1
    42     8     9   ar
    43    19    10    1
    44     9     1    1
    45    18    12    1
    46     9     4   ar
    47    29    24   ar
    48    36    31   ar
    49    41    37   ar
    50    41    42    1
    51    11    20    1
@<TRIPOS>MOLECULE
*****
 45 51 0 0 0
SMALL
GASTEIGER

@<TRIPOS>ATOM
      1 C         -27.8423   47.5094   -5.4300 C.3     1  UNL1        0.0814
      2 C         -26.8546   46.3231   -5.4094 C.3     1  UNL1        0.0252
      3 C         -25.5420   46.8279   -6.0273 C.3     1  UNL1        0.0278
      4 C         -25.8921   48.1555   -6.5871 C.ar    1  UNL1       -0.0251
      5 C         -25.0493   48.9595   -7.3505 C.ar    1  UNL1       -0.0046
      6 C         -25.5265   50.1905   -7.8303 C.ar    1  UNL1       -0.0005
      7 C         -26.8262   50.6130   -7.4824 C.ar    1  UNL1       -0.0046
      8 C         -27.6611   49.8140   -6.6686 C.ar    1  UNL1       -0.0255
      9 C         -27.1771   48.5454   -6.2789 C.ar    1  UNL1       -0.0156
     10 C         -30.3165   47.0031   -5.1629 C.3     1  UNL1        0.1158
     11 N         -31.3866   46.5369   -5.8519 N.3     1  UNL1       -0.2851
     12 C         -30.8978   46.3444   -7.0848 C.3     1  UNL1        0.0910
     13 C         -31.5836   45.8403   -8.1769 C.3     1  UNL1        0.1018
     14 C         -30.8688   45.6845   -9.3709 C.3     1  UNL1        0.3136
     15 N         -29.5406   46.0439   -9.4590 N.am    1  UNL1       -0.1294
     16 C         -28.8657   46.5036   -8.3443 C.2     1  UNL1        0.4047
     17 O         -27.6351   46.7561   -8.4042 O.2     1  UNL1       -0.2174
     18 C         -29.5766   46.6705   -7.1429 C.3     1  UNL1        0.2038
     19 N         -29.1800   47.1042   -5.9178 N.3     1  UNL1       -0.2473
     20 H         -32.1423   47.2219   -5.8610 H       1  UNL1        0.1244
     21 C         -31.4534   48.3858   -3.4234 C.3     1  UNL1        0.0029
     22 C         -30.4130   47.3043   -3.6920 C.3     1  UNL1        0.0326
     23 C         -28.8316   45.8423  -10.7397 C.3     1  UNL1        0.3394
     24 C         -29.5267   46.5334  -11.8992 C.ar    1  UNL1        0.0505
     25 C         -29.7772   45.7957  -13.0711 C.ar    1  UNL1        0.0021
     26 C         -30.4123   46.3871  -14.1640 C.ar    1  UNL1       -0.0001
     27 C         -30.8088   47.7215  -14.1040 C.ar    1  UNL1       -0.0003
     28 C         -30.5676   48.4716  -12.9526 C.ar    1  UNL1       -0.0044
     29 C         -29.9136   47.8991  -11.8477 C.ar    1  UNL1       -0.0193
     30 C         -29.7271   48.7373  -10.6118 C.3     1  UNL1        0.0309
     31 C         -24.6539   51.0608   -8.6550 C.ar    1  UNL1        0.0030
     32 C         -23.2958   51.1652   -8.3033 C.ar    1  UNL1        0.0001
     33 C         -22.4077   51.8911   -9.0976 C.ar    1  UNL1        0.0000
     34 C         -22.8597   52.5177  -10.2571 C.ar    1  UNL1        0.0001
     35 C         -24.2053   52.4365  -10.6178 C.ar    1  UNL1        0.0031
     36 C         -25.1221   51.7295   -9.8194 C.ar    1  UNL1        0.0371
     37 C         -26.5499   51.7460  -10.2157 C.ar    1  UNL1        0.1806
     38 N         -27.0703   51.0017  -11.2103 N.ar    1  UNL1       -0.1084
     39 N         -28.3477   51.3517  -11.2700 N.ar    1  UNL1       -0.0229
     40 N         -28.6046   52.2807  -10.3619 N.ar    1  UNL1       -0.0464
     41 N         -27.4963   52.5450   -9.6949 N.ar    1  UNL1       -0.2388
     42 H         -27.4021   53.2641   -8.9463 H       1  UNL1        0.1923
     43 C         -29.0271   50.3240   -6.2381 C.3     1  UNL1        0.0221
     44 C         -28.9140   51.5995   -5.3923 C.3     1  UNL1        0.0047
     45 C         -29.9326   50.5477   -7.4525 C.3     1  UNL1        0.0047
@<TRIPOS>BOND
     1    21    22    1
     2    22    10    1
     3    10    11    1
     4    11    12    1
     5    12    13    1
     6    13    14    1
     7    14    15    1
     8    15    23    1
     9    23    24    1
    10    24    25   ar
    11    25    26   ar
    12    26    27   ar
    13    27    28   ar
    14    28    29   ar
    15    29    30    1
    16    15    16    1
    17    16    17    2
    18    16    18    1
    19    18    19    1
    20    19     1    1
    21     1     2    1
    22     2     3    1
    23     3     4    1
    24     4     5   ar
    25     5     6   ar
    26     6    31    1
    27    31    32   ar
    28    32    33   ar
    29    33    34   ar
    30    34    35   ar
    31    35    36   ar
    32    36    37    1
    33    37    38   ar
    34    38    39   ar
    35    39    40   ar
    36    40    41   ar
    37     6     7   ar
    38     7     8   ar
    39     8    43    1
    40    43    44    1
    41    43    45    1
    42     8     9   ar
    43    19    10    1
    44     9     1    1
    45    18    12    1
    46     9     4   ar
    47    29    24   ar
    48    36    31   ar
    49    41    37   ar
    50    41    42    1
    51    11    20    1
@<TRIPOS>MOLECULE
*****
 45 51 0 0 0
SMALL
GASTEIGER

@<TRIPOS>ATOM
      1 C         -26.7649   50.8451   -6.8180 C.3     1  UNL1        0.0814
      2 C         -27.5300   51.9894   -6.1190 C.3     1  UNL1        0.0252
      3 C         -28.4891   51.3331   -5.1146 C.3     1  UNL1        0.0278
      4 C         -28.4229   49.8884   -5.4412 C.ar    1  UNL1       -0.0251
      5 C         -29.2103   48.8924   -4.8688 C.ar    1  UNL1       -0.0046
      6 C         -29.0479   47.5629   -5.2923 C.ar    1  UNL1       -0.0005
      7 C         -28.0539   47.2554   -6.2443 C.ar    1  UNL1       -0.0046
      8 C         -27.2258   48.2635   -6.7880 C.ar    1  UNL1       -0.0255
      9 C         -27.4786   49.5987   -6.4018 C.ar    1  UNL1       -0.0156
     10 C         -27.7689   51.0403   -9.1425 C.3     1  UNL1        0.1158
     11 N         -27.4169   51.1651  -10.4454 N.3     1  UNL1       -0.2851
     12 C         -26.0802   51.2488  -10.3956 C.3     1  UNL1        0.0910
     13 C         -25.2177   51.3567  -11.4734 C.3     1  UNL1        0.1018
     14 C         -23.8450   51.3935  -11.1991 C.3     1  UNL1        0.3136
     15 N         -23.3752   51.3493   -9.9034 N.am    1  UNL1       -0.1294
     16 C         -24.2527   51.1974   -8.8469 C.2     1  UNL1        0.4047
     17 O         -23.8200   51.0773   -7.6721 O.2     1  UNL1       -0.2174
     18 C         -25.6331   51.1671   -9.1116 C.3     1  UNL1        0.2038
     19 N         -26.7033   51.0387   -8.2843 N.3     1  UNL1       -0.2473
     20 H         -27.8210   52.0077  -10.8542 H       1  UNL1        0.1244
     21 C         -29.7989   49.6076   -9.3804 C.3     1  UNL1        0.0029
     22 C         -29.2079   50.8597   -8.7422 C.3     1  UNL1        0.0326
     23 C         -21.9158   51.3749   -9.6738 C.3     1  UNL1        0.3394
     24 C         -21.3575   52.7868   -9.6660 C.ar    1  UNL1        0.0505
     25 C         -21.9491   53.7500  -10.5043 C.ar    1  UNL1        0.0021
     26 C         -21.4707   55.0607  -10.5332 C.ar    1  UNL1       -0.0001
     27 C         -20.3973   55.4309   -9.7256 C.ar    1  UNL1       -0.0003
     28 C         -19.7946   54.4908   -8.8891 C.ar    1  UNL1       -0.0044
     29 C         -20.2505   53.1613   -8.8586 C.ar    1  UNL1       -0.0193
     30 C         -19.5994   52.2022   -7.8990 C.3     1  UNL1        0.0309
     31 C         -29.8812   46.4846   -4.7075 C.ar    1  UNL1        0.0030
     32 C         -29.9521   46.3853   -3.3060 C.ar    1  UNL1        0.0001
     33 C         -30.7950   45.4535   -2.6993 C.ar    1  UNL1        0.0000
     34 C         -31.5836   44.6121   -3.4813 C.ar    1  UNL1        0.0001
     35 C         -31.5195   44.6862   -4.8733 C.ar    1  UNL1        0.0031
     36 C         -30.6598   45.6021   -5.5055 C.ar    1  UNL1        0.0371
     37 C         -30.5810   45.5779   -6.9851 C.ar    1  UNL1        0.1806
     38 N         -29.8497   44.6950   -7.6920 N.ar    1  UNL1       -0.1084
     39 N         -30.0111   45.0505   -8.9590 N.ar    1  UNL1       -0.0229
     40 N         -30.7966   46.1141   -9.0333 N.ar    1  UNL1       -0.0464
     41 N         -31.1610   46.4628   -7.8132 N.ar    1  UNL1       -0.2388
     42 H         -31.7503   47.2888   -7.5748 H       1  UNL1        0.1923
     43 C         -26.1071   47.8997   -7.7510 C.3     1  UNL1        0.0221
     44 C         -25.1304   46.8927   -7.1290 C.3     1  UNL1        0.0047
     45 C         -26.6750   47.3717   -9.0714 C.3     1  UNL1        0.0047
@<TRIPOS>BOND
     1    21    22    1
     2    22    10    1
     3    10    11    1
     4    11    12    1
     5    12    13    1
     6    13    14    1
     7    14    15    1
     8    15    23    1
     9    23    24    1
    10    24    25   ar
    11    25    26   ar
    12    26    27   ar
    13    27    28   ar
    14    28    29   ar
    15    29    30    1
    16    15    16    1
    17    16    17    2
    18    16    18    1
    19    18    19    1
    20    19     1    1
    21     1     2    1
    22     2     3    1
    23     3     4    1
    24     4     5   ar
    25     5     6   ar
    26     6    31    1
    27    31    32   ar
    28    32    33   ar
    29    33    34   ar
    30    34    35   ar
    31    35    36   ar
    32    36    37    1
    33    37    38   ar
    34    38    39   ar
    35    39    40   ar
    36    40    41   ar
    37     6     7   ar
    38     7     8   ar
    39     8    43    1
    40    43    44    1
    41    43    45    1
    42     8     9   ar
    43    19    10    1
    44     9     1    1
    45    18    12    1
    46     9     4   ar
    47    29    24   ar
    48    36    31   ar
    49    41    37   ar
    50    41    42    1
    51    11    20    1
@<TRIPOS>MOLECULE
*****
 45 51 0 0 0
SMALL
GASTEIGER

@<TRIPOS>ATOM
      1 C         -31.1769   49.2177   -4.2053 C.3     1  UNL1        0.0814
      2 C         -31.3755   50.7231   -3.9269 C.3     1  UNL1        0.0252
      3 C         -31.5814   51.4027   -5.2889 C.3     1  UNL1        0.0278
      4 C         -31.2546   50.3447   -6.2749 C.ar    1  UNL1       -0.0251
      5 C         -31.1878   50.5177   -7.6552 C.ar    1  UNL1       -0.0046
      6 C         -30.8469   49.4231   -8.4669 C.ar    1  UNL1       -0.0005
      7 C         -30.6361   48.1605   -7.8750 C.ar    1  UNL1       -0.0046
      8 C         -30.7508   47.9800   -6.4779 C.ar    1  UNL1       -0.0255
      9 C         -31.0091   49.1226   -5.6882 C.ar    1  UNL1       -0.0156
     10 C         -30.1305   47.8258   -2.3567 C.3     1  UNL1        0.1158
     11 N         -28.9315   47.5289   -1.7986 N.3     1  UNL1       -0.2851
     12 C         -28.0614   48.2016   -2.5644 C.3     1  UNL1        0.0910
     13 C         -26.6880   48.2617   -2.3984 C.3     1  UNL1        0.1018
     14 C         -25.9648   49.0580   -3.2948 C.3     1  UNL1        0.3136
     15 N         -26.5960   49.7344   -4.3172 N.am    1  UNL1       -0.1294
     16 C         -27.9721   49.6946   -4.4364 C.2     1  UNL1        0.4047
     17 O         -28.5547   50.3744   -5.3196 O.2     1  UNL1       -0.2174
     18 C         -28.7063   48.8918   -3.5457 C.3     1  UNL1        0.2038
     19 N         -30.0407   48.6605   -3.4370 N.3     1  UNL1       -0.2473
     20 H         -28.7502   46.5257   -1.8340 H       1  UNL1        0.1244
     21 C         -31.3469   45.7993   -1.5545 C.3     1  UNL1        0.0029
     22 C         -31.4118   47.3083   -1.7619 C.3     1  UNL1        0.0326
     23 C         -25.7848   50.5732   -5.2237 C.3     1  UNL1        0.3394
     24 C         -26.3844   50.6657   -6.6155 C.ar    1  UNL1        0.0505
     25 C         -26.9466   51.8883   -7.0272 C.ar    1  UNL1        0.0021
     26 C         -27.5107   52.0224   -8.2965 C.ar    1  UNL1       -0.0001
     27 C         -27.5209   50.9407   -9.1747 C.ar    1  UNL1       -0.0003
     28 C         -26.9712   49.7188   -8.7855 C.ar    1  UNL1       -0.0044
     29 C         -26.4140   49.5585   -7.5048 C.ar    1  UNL1       -0.0193
     30 C         -25.7868   48.2357   -7.1565 C.3     1  UNL1        0.0309
     31 C         -30.7574   49.5824   -9.9385 C.ar    1  UNL1        0.0030
     32 C         -31.2128   50.7865  -10.5058 C.ar    1  UNL1        0.0001
     33 C         -31.0651   51.0318  -11.8713 C.ar    1  UNL1        0.0000
     34 C         -30.4555   50.0828  -12.6893 C.ar    1  UNL1        0.0001
     35 C         -30.0073   48.8768  -12.1488 C.ar    1  UNL1        0.0031
     36 C         -30.1670   48.5994  -10.7794 C.ar    1  UNL1        0.0371
     37 C         -29.7403   47.2702  -10.2826 C.ar    1  UNL1        0.1806
     38 N         -28.4660   46.9389   -9.9991 N.ar    1  UNL1       -0.1084
     39 N         -28.5129   45.6626   -9.6432 N.ar    1  UNL1       -0.0229
     40 N         -29.7586   45.2190   -9.7155 N.ar    1  UNL1       -0.0464
     41 N         -30.5410   46.2041  -10.1161 N.ar    1  UNL1       -0.2388
     42 H         -31.5648   46.1242  -10.2943 H       1  UNL1        0.1923
     43 C         -30.6000   46.5951   -5.8691 C.3     1  UNL1        0.0221
     44 C         -31.5836   45.5941   -6.4899 C.3     1  UNL1        0.0047
     45 C         -29.1570   46.0987   -5.9951 C.3     1  UNL1        0.0047
@<TRIPOS>BOND
     1    21    22    1
     2    22    10    1
     3    10    11    1
     4    11    12    1
     5    12    13    1
     6    13    14    1
     7    14    15    1
     8    15    23    1
     9    23    24    1
    10    24    25   ar
    11    25    26   ar
    12    26    27   ar
    13    27    28   ar
    14    28    29   ar
    15    29    30    1
    16    15    16    1
    17    16    17    2
    18    16    18    1
    19    18    19    1
    20    19     1    1
    21     1     2    1
    22     2     3    1
    23     3     4    1
    24     4     5   ar
    25     5     6   ar
    26     6    31    1
    27    31    32   ar
    28    32    33   ar
    29    33    34   ar
    30    34    35   ar
    31    35    36   ar
    32    36    37    1
    33    37    38   ar
    34    38    39   ar
    35    39    40   ar
    36    40    41   ar
    37     6     7   ar
    38     7     8   ar
    39     8    43    1
    40    43    44    1
    41    43    45    1
    42     8     9   ar
    43    19    10    1
    44     9     1    1
    45    18    12    1
    46     9     4   ar
    47    29    24   ar
    48    36    31   ar
    49    41    37   ar
    50    41    42    1
    51    11    20    1
@<TRIPOS>MOLECULE
*****
 45 51 0 0 0
SMALL
GASTEIGER

@<TRIPOS>ATOM
      1 C         -27.4195   49.8746   -6.4963 C.3     1  UNL1        0.0814
      2 C         -26.1582   50.6301   -6.9669 C.3     1  UNL1        0.0252
      3 C         -26.4925   51.2423   -8.3354 C.3     1  UNL1        0.0278
      4 C         -27.7926   50.6291   -8.6988 C.ar    1  UNL1       -0.0251
      5 C         -28.4522   50.7916   -9.9146 C.ar    1  UNL1       -0.0046
      6 C         -29.6743   50.1315  -10.1243 C.ar    1  UNL1       -0.0005
      7 C         -30.2361   49.3659   -9.0817 C.ar    1  UNL1       -0.0046
      8 C         -29.5852   49.2420   -7.8333 C.ar    1  UNL1       -0.0255
      9 C         -28.3174   49.8488   -7.6919 C.ar    1  UNL1       -0.0156
     10 C         -26.4417   47.5352   -6.6390 C.3     1  UNL1        0.1158
     11 N         -26.3400   46.3808   -5.9360 N.3     1  UNL1       -0.2851
     12 C         -26.9465   46.6727   -4.7771 C.3     1  UNL1        0.0910
     13 C         -27.1454   45.8146   -3.7087 C.3     1  UNL1        0.1018
     14 C         -27.8398   46.3154   -2.6006 C.3     1  UNL1        0.3136
     15 N         -28.2845   47.6201   -2.5677 N.am    1  UNL1       -0.1294
     16 C         -28.1129   48.4447   -3.6632 C.2     1  UNL1        0.4047
     17 O         -28.5879   49.6091   -3.6643 O.2     1  UNL1       -0.2174
     18 C         -27.4104   47.9534   -4.7775 C.3     1  UNL1        0.2038
     19 N         -27.0915   48.5325   -5.9645 N.3     1  UNL1       -0.2473
     20 H         -25.3630   46.1300   -5.7844 H       1  UNL1        0.1244
     21 C         -26.8560   46.9148   -9.0209 C.3     1  UNL1        0.0029
     22 C         -25.9259   47.6320   -8.0490 C.3     1  UNL1        0.0326
     23 C         -29.0261   48.0901   -1.3792 C.3     1  UNL1        0.3394
     24 C         -29.9197   47.0116   -0.7929 C.ar    1  UNL1        0.0505
     25 C         -30.4049   46.0018   -1.6446 C.ar    1  UNL1        0.0021
     26 C         -31.2302   44.9896   -1.1529 C.ar    1  UNL1       -0.0001
     27 C         -31.5822   44.9679    0.1951 C.ar    1  UNL1       -0.0003
     28 C         -31.1142   45.9609    1.0562 C.ar    1  UNL1       -0.0044
     29 C         -30.2962   46.9988    0.5766 C.ar    1  UNL1       -0.0193
     30 C         -29.7757   48.0132    1.5588 C.3     1  UNL1        0.0309
     31 C         -30.3918   50.2780  -11.4137 C.ar    1  UNL1        0.0030
     32 C         -30.8277   51.5617  -11.7899 C.ar    1  UNL1        0.0001
     33 C         -31.4216   51.7765  -13.0339 C.ar    1  UNL1        0.0000
     34 C         -31.5834   50.7161  -13.9231 C.ar    1  UNL1        0.0001
     35 C         -31.1686   49.4326  -13.5650 C.ar    1  UNL1        0.0031
     36 C         -30.5889   49.1894  -12.3070 C.ar    1  UNL1        0.0371
     37 C         -30.2410   47.7919  -11.9578 C.ar    1  UNL1        0.1806
     38 N         -29.3753   47.0289  -12.6522 N.ar    1  UNL1       -0.1084
     39 N         -29.3930   45.8497  -12.0464 N.ar    1  UNL1       -0.0229
     40 N         -30.2415   45.8766  -11.0300 N.ar    1  UNL1       -0.0464
     41 N         -30.7851   47.0776  -10.9582 N.ar    1  UNL1       -0.2388
     42 H         -31.5160   47.3668  -10.2737 H       1  UNL1        0.1923
     43 C         -30.2467   48.4797   -6.6963 C.3     1  UNL1        0.0221
     44 C         -31.5839   49.1149   -6.2920 C.3     1  UNL1        0.0047
     45 C         -30.4270   47.0038   -7.0622 C.3     1  UNL1        0.0047
@<TRIPOS>BOND
     1    21    22    1
     2    22    10    1
     3    10    11    1
     4    11    12    1
     5    12    13    1
     6    13    14    1
     7    14    15    1
     8    15    23    1
     9    23    24    1
    10    24    25   ar
    11    25    26   ar
    12    26    27   ar
    13    27    28   ar
    14    28    29   ar
    15    29    30    1
    16    15    16    1
    17    16    17    2
    18    16    18    1
    19    18    19    1
    20    19     1    1
    21     1     2    1
    22     2     3    1
    23     3     4    1
    24     4     5   ar
    25     5     6   ar
    26     6    31    1
    27    31    32   ar
    28    32    33   ar
    29    33    34   ar
    30    34    35   ar
    31    35    36   ar
    32    36    37    1
    33    37    38   ar
    34    38    39   ar
    35    39    40   ar
    36    40    41   ar
    37     6     7   ar
    38     7     8   ar
    39     8    43    1
    40    43    44    1
    41    43    45    1
    42     8     9   ar
    43    19    10    1
    44     9     1    1
    45    18    12    1
    46     9     4   ar
    47    29    24   ar
    48    36    31   ar
    49    41    37   ar
    50    41    42    1
    51    11    20    1
