@<TRIPOS>MOLECULE
*****
 34 37 0 0 0
SMALL
GASTEIGER

@<TRIPOS>ATOM
      1 N          46.8516   12.4529  -23.7973 N.am    1  UNL1       -0.2698
      2 C          45.7198   12.5429  -24.6962 C.2     1  UNL1        0.2510
      3 O          44.5565   12.6629  -24.2259 O.2     1  UNL1       -0.2698
      4 C          45.8896   12.5254  -26.1684 C.ar    1  UNL1        0.0727
      5 C          45.7204   13.7037  -26.9152 C.ar    1  UNL1        0.1033
      6 N          45.8725   13.6924  -28.2661 N.ar    1  UNL1       -0.2437
      7 C          46.1811   12.5549  -28.9429 C.ar    1  UNL1        0.0813
      8 C          46.3305   12.5822  -30.3343 C.ar    1  UNL1        0.0191
      9 C          46.6427   11.4081  -31.0271 C.ar    1  UNL1        0.0015
     10 C          46.8054   10.2042  -30.3335 C.ar    1  UNL1        0.0001
     11 C          46.6575   10.1676  -28.9431 C.ar    1  UNL1        0.0015
     12 C          46.3465   11.3418  -28.2407 C.ar    1  UNL1        0.0178
     13 C          46.1917   11.3371  -26.8496 C.ar    1  UNL1        0.0076
     14 C          46.3840   12.7847  -21.3732 C.3     1  UNL1        0.0264
     15 C          46.7044   11.7742  -22.4871 C.3     1  UNL1        0.0985
     16 C          47.8904   10.8651  -22.1938 C.ar    1  UNL1       -0.0034
     17 C          48.4492   10.8774  -20.9021 C.ar    1  UNL1       -0.0026
     18 C          49.5231   10.0432  -20.5814 C.ar    1  UNL1        0.0006
     19 C          50.0539    9.1833  -21.5439 C.ar    1  UNL1        0.0114
     20 C          49.5116    9.1563  -22.8312 C.ar    1  UNL1        0.0574
     21 CL         50.1776    8.0720  -24.0388 Cl      1  UNL1       -0.0823
     22 C          48.4362    9.9904  -23.1572 C.ar    1  UNL1        0.0087
     23 C          47.9556   13.4140  -24.0009 C.3     1  UNL1        0.1212
     24 C          49.2874   12.7545  -24.3178 C.ar    1  UNL1        0.0041
     25 C          49.4149   11.9462  -25.4643 C.ar    1  UNL1        0.0043
     26 C          50.6413   11.3527  -25.8040 C.ar    1  UNL1        0.0752
     27 C          51.7607   11.5904  -24.9929 C.ar    1  UNL1        0.0069
     28 C          51.6562   12.4101  -23.8696 C.ar    1  UNL1        0.0066
     29 C          50.4356   13.0013  -23.5295 C.ar    1  UNL1        0.0322
     30 BR         50.4150   14.1469  -21.9881 Br      1  UNL1       -0.0493
     31 C          50.7470   10.4894  -27.0016 C.2     1  UNL1        0.3380
     32 O          49.7389    9.8647  -27.4297 O.2     1  UNL1       -0.2451
     33 O          51.9628   10.3586  -27.6681 O.3     1  UNL1       -0.4771
     34 H          52.0459    9.7704  -28.4887 H       1  UNL1        0.2954
@<TRIPOS>BOND
     1    14    15    1
     2    15    16    1
     3    16    17   ar
     4    17    18   ar
     5    18    19   ar
     6    19    20   ar
     7    20    21    1
     8    20    22   ar
     9    15     1    1
    10     1    23    1
    11    23    24    1
    12    24    25   ar
    13    25    26   ar
    14    26    31    1
    15    31    32    2
    16    31    33    1
    17    26    27   ar
    18    27    28   ar
    19    28    29   ar
    20    29    30    1
    21     1     2   am
    22     2     3    2
    23     2     4    1
    24     4     5   ar
    25     5     6   ar
    26     6     7   ar
    27     7     8   ar
    28     8     9   ar
    29     9    10   ar
    30    10    11   ar
    31    11    12   ar
    32    12    13   ar
    33    22    16   ar
    34    29    24   ar
    35    13     4   ar
    36    12     7   ar
    37    33    34    1
@<TRIPOS>MOLECULE
*****
 34 37 0 0 0
SMALL
GASTEIGER

@<TRIPOS>ATOM
      1 N          47.4459   12.7882  -24.3635 N.am    1  UNL1       -0.2698
      2 C          46.2741   12.7084  -25.2104 C.2     1  UNL1        0.2510
      3 O          45.1487   13.0452  -24.7532 O.2     1  UNL1       -0.2698
      4 C          46.3603   12.2644  -26.6218 C.ar    1  UNL1        0.0727
      5 C          46.8287   10.9763  -26.9320 C.ar    1  UNL1        0.1033
      6 N          46.9121   10.5652  -28.2251 N.ar    1  UNL1       -0.2437
      7 C          46.5600   11.3746  -29.2585 C.ar    1  UNL1        0.0813
      8 C          46.6588   10.9161  -30.5772 C.ar    1  UNL1        0.0191
      9 C          46.3003   11.7546  -31.6376 C.ar    1  UNL1        0.0015
     10 C          45.8437   13.0524  -31.3848 C.ar    1  UNL1        0.0001
     11 C          45.7423   13.5192  -30.0702 C.ar    1  UNL1        0.0015
     12 C          46.0979   12.6831  -29.0008 C.ar    1  UNL1        0.0178
     13 C          46.0077   13.1214  -27.6746 C.ar    1  UNL1        0.0076
     14 C          47.5321   13.8044  -22.0909 C.3     1  UNL1        0.0264
     15 C          47.3286   12.5190  -22.9100 C.3     1  UNL1        0.0985
     16 C          48.2115   11.3528  -22.4859 C.ar    1  UNL1       -0.0034
     17 C          48.5245   11.2022  -21.1220 C.ar    1  UNL1       -0.0026
     18 C          49.3117   10.1340  -20.6845 C.ar    1  UNL1        0.0006
     19 C          49.7966    9.1998  -21.6008 C.ar    1  UNL1        0.0114
     20 C          49.4954    9.3323  -22.9586 C.ar    1  UNL1        0.0574
     21 CL         50.1025    8.1548  -24.1086 Cl      1  UNL1       -0.0823
     22 C          48.7076   10.4007  -23.4016 C.ar    1  UNL1        0.0087
     23 C          48.5961   13.5651  -24.8709 C.3     1  UNL1        0.1212
     24 C          49.8450   12.7291  -25.0957 C.ar    1  UNL1        0.0041
     25 C          49.8545   11.7369  -26.0955 C.ar    1  UNL1        0.0043
     26 C          51.0043   10.9728  -26.3521 C.ar    1  UNL1        0.0752
     27 C          52.1674   11.2221  -25.6088 C.ar    1  UNL1        0.0069
     28 C          52.1812   12.2193  -24.6341 C.ar    1  UNL1        0.0066
     29 C          51.0369   12.9806  -24.3769 C.ar    1  UNL1        0.0322
     30 BR         51.1798   14.3568  -23.0449 Br      1  UNL1       -0.0493
     31 C          50.9851    9.9206  -27.3928 C.2     1  UNL1        0.3380
     32 O          52.0510    9.3397  -27.7337 O.2     1  UNL1       -0.2451
     33 O          49.7875    9.5614  -28.0065 O.3     1  UNL1       -0.4771
     34 H          49.7633    8.8426  -28.7198 H       1  UNL1        0.2954
@<TRIPOS>BOND
     1    14    15    1
     2    15    16    1
     3    16    17   ar
     4    17    18   ar
     5    18    19   ar
     6    19    20   ar
     7    20    21    1
     8    20    22   ar
     9    15     1    1
    10     1    23    1
    11    23    24    1
    12    24    25   ar
    13    25    26   ar
    14    26    31    1
    15    31    32    2
    16    31    33    1
    17    26    27   ar
    18    27    28   ar
    19    28    29   ar
    20    29    30    1
    21     1     2   am
    22     2     3    2
    23     2     4    1
    24     4     5   ar
    25     5     6   ar
    26     6     7   ar
    27     7     8   ar
    28     8     9   ar
    29     9    10   ar
    30    10    11   ar
    31    11    12   ar
    32    12    13   ar
    33    22    16   ar
    34    29    24   ar
    35    13     4   ar
    36    12     7   ar
    37    33    34    1
@<TRIPOS>MOLECULE
*****
 34 37 0 0 0
SMALL
GASTEIGER

@<TRIPOS>ATOM
      1 N          47.6367   15.7335  -23.5390 N.am    1  UNL1       -0.2698
      2 C          48.6943   14.9499  -22.9354 C.2     1  UNL1        0.2510
      3 O          49.1930   15.3149  -21.8368 O.2     1  UNL1       -0.2698
      4 C          49.1962   13.7037  -23.5611 C.ar    1  UNL1        0.0727
      5 C          49.7002   13.7226  -24.8728 C.ar    1  UNL1        0.1033
      6 N          50.1594   12.5817  -25.4521 N.ar    1  UNL1       -0.2437
      7 C          50.1419   11.3896  -24.7998 C.ar    1  UNL1        0.0813
      8 C          50.6240   10.2358  -25.4286 C.ar    1  UNL1        0.0191
      9 C          50.5991    9.0103  -24.7552 C.ar    1  UNL1        0.0015
     10 C          50.0921    8.9329  -23.4538 C.ar    1  UNL1        0.0001
     11 C          49.6078   10.0808  -22.8178 C.ar    1  UNL1        0.0015
     12 C          49.6315   11.3144  -23.4860 C.ar    1  UNL1        0.0178
     13 C          49.1538   12.4803  -22.8765 C.ar    1  UNL1        0.0076
     14 C          46.2186   17.7152  -23.0222 C.3     1  UNL1        0.0264
     15 C          47.6252   17.2079  -23.3810 C.3     1  UNL1        0.0985
     16 C          48.2611   17.9019  -24.5782 C.ar    1  UNL1       -0.0034
     17 C          47.5511   18.9360  -25.2166 C.ar    1  UNL1       -0.0026
     18 C          48.1053   19.6161  -26.3039 C.ar    1  UNL1        0.0006
     19 C          49.3763   19.2760  -26.7691 C.ar    1  UNL1        0.0114
     20 C          50.0966   18.2529  -26.1473 C.ar    1  UNL1        0.0574
     21 CL         51.6958   17.8292  -26.7309 Cl      1  UNL1       -0.0823
     22 C          49.5455   17.5685  -25.0582 C.ar    1  UNL1        0.0087
     23 C          46.3862   15.0276  -23.8879 C.3     1  UNL1        0.1212
     24 C          46.2641   14.6981  -25.3663 C.ar    1  UNL1        0.0041
     25 C          46.3794   15.7232  -26.3255 C.ar    1  UNL1        0.0043
     26 C          46.3075   15.4454  -27.7001 C.ar    1  UNL1        0.0752
     27 C          46.1383   14.1174  -28.1186 C.ar    1  UNL1        0.0069
     28 C          46.0495   13.0886  -27.1814 C.ar    1  UNL1        0.0066
     29 C          46.1201   13.3635  -25.8122 C.ar    1  UNL1        0.0322
     30 BR         46.0315   11.8673  -24.6113 Br      1  UNL1       -0.0493
     31 C          46.4094   16.5412  -28.6898 C.2     1  UNL1        0.3380
     32 O          45.4541   16.7821  -29.4767 O.2     1  UNL1       -0.2451
     33 O          47.5632   17.3179  -28.7615 O.3     1  UNL1       -0.4771
     34 H          47.6432   18.0702  -29.4352 H       1  UNL1        0.2954
@<TRIPOS>BOND
     1    14    15    1
     2    15    16    1
     3    16    17   ar
     4    17    18   ar
     5    18    19   ar
     6    19    20   ar
     7    20    21    1
     8    20    22   ar
     9    15     1    1
    10     1    23    1
    11    23    24    1
    12    24    25   ar
    13    25    26   ar
    14    26    31    1
    15    31    32    2
    16    31    33    1
    17    26    27   ar
    18    27    28   ar
    19    28    29   ar
    20    29    30    1
    21     1     2   am
    22     2     3    2
    23     2     4    1
    24     4     5   ar
    25     5     6   ar
    26     6     7   ar
    27     7     8   ar
    28     8     9   ar
    29     9    10   ar
    30    10    11   ar
    31    11    12   ar
    32    12    13   ar
    33    22    16   ar
    34    29    24   ar
    35    13     4   ar
    36    12     7   ar
    37    33    34    1
@<TRIPOS>MOLECULE
*****
 34 37 0 0 0
SMALL
GASTEIGER

@<TRIPOS>ATOM
      1 N          50.0956   11.8899  -25.0376 N.am    1  UNL1       -0.2698
      2 C          50.8635   13.1100  -25.1739 C.2     1  UNL1        0.2510
      3 O          52.1043   13.0468  -25.3865 O.2     1  UNL1       -0.2698
      4 C          50.2257   14.4457  -25.0978 C.ar    1  UNL1        0.0727
      5 C          49.3890   14.7708  -24.0166 C.ar    1  UNL1        0.1033
      6 N          48.7997   15.9937  -23.9435 N.ar    1  UNL1       -0.2437
      7 C          48.9847   16.9369  -24.9044 C.ar    1  UNL1        0.0813
      8 C          48.3617   18.1855  -24.7945 C.ar    1  UNL1        0.0191
      9 C          48.5508   19.1510  -25.7885 C.ar    1  UNL1        0.0015
     10 C          49.3606   18.8726  -26.8946 C.ar    1  UNL1        0.0001
     11 C          49.9867   17.6274  -27.0128 C.ar    1  UNL1        0.0015
     12 C          49.8037   16.6543  -26.0186 C.ar    1  UNL1        0.0178
     13 C          50.4164   15.3990  -26.1088 C.ar    1  UNL1        0.0076
     14 C          50.6773    9.4906  -25.3696 C.3     1  UNL1        0.0264
     15 C          50.7106   10.6939  -24.4128 C.3     1  UNL1        0.0985
     16 C          50.1243   10.4216  -23.0339 C.ar    1  UNL1       -0.0034
     17 C          49.3706    9.2491  -22.8387 C.ar    1  UNL1       -0.0026
     18 C          48.8334    8.9468  -21.5849 C.ar    1  UNL1        0.0006
     19 C          49.0417    9.8087  -20.5072 C.ar    1  UNL1        0.0114
     20 C          49.7883   10.9767  -20.6816 C.ar    1  UNL1        0.0574
     21 CL         50.0525   12.0571  -19.3249 Cl      1  UNL1       -0.0823
     22 C          50.3280   11.2839  -21.9356 C.ar    1  UNL1        0.0087
     23 C          48.9179   11.7297  -25.9157 C.3     1  UNL1        0.1212
     24 C          47.5931   11.9543  -25.2060 C.ar    1  UNL1        0.0041
     25 C          47.5621   12.0884  -23.8041 C.ar    1  UNL1        0.0043
     26 C          46.3590   12.3329  -23.1225 C.ar    1  UNL1        0.0752
     27 C          45.1732   12.4651  -23.8601 C.ar    1  UNL1        0.0069
     28 C          45.1925   12.3614  -25.2506 C.ar    1  UNL1        0.0066
     29 C          46.3895   12.1173  -25.9308 C.ar    1  UNL1        0.0322
     30 BR         46.3086   12.0375  -27.8480 Br      1  UNL1       -0.0493
     31 C          46.3466   12.4488  -21.6471 C.2     1  UNL1        0.3380
     32 O          47.2838   13.0393  -21.0448 O.2     1  UNL1       -0.2451
     33 O          45.2980   11.9058  -20.9086 O.3     1  UNL1       -0.4771
     34 H          45.2799   11.9796  -19.8984 H       1  UNL1        0.2954
@<TRIPOS>BOND
     1    14    15    1
     2    15    16    1
     3    16    17   ar
     4    17    18   ar
     5    18    19   ar
     6    19    20   ar
     7    20    21    1
     8    20    22   ar
     9    15     1    1
    10     1    23    1
    11    23    24    1
    12    24    25   ar
    13    25    26   ar
    14    26    31    1
    15    31    32    2
    16    31    33    1
    17    26    27   ar
    18    27    28   ar
    19    28    29   ar
    20    29    30    1
    21     1     2   am
    22     2     3    2
    23     2     4    1
    24     4     5   ar
    25     5     6   ar
    26     6     7   ar
    27     7     8   ar
    28     8     9   ar
    29     9    10   ar
    30    10    11   ar
    31    11    12   ar
    32    12    13   ar
    33    22    16   ar
    34    29    24   ar
    35    13     4   ar
    36    12     7   ar
    37    33    34    1
@<TRIPOS>MOLECULE
*****
 34 37 0 0 0
SMALL
GASTEIGER

@<TRIPOS>ATOM
      1 N          50.5660   12.4235  -24.6182 N.am    1  UNL1       -0.2698
      2 C          51.7976   11.9095  -25.1803 C.2     1  UNL1        0.2510
      3 O          52.8956   12.1633  -24.6157 O.2     1  UNL1       -0.2698
      4 C          51.8062   11.0625  -26.3964 C.ar    1  UNL1        0.0727
      5 C          52.8185   11.2152  -27.3591 C.ar    1  UNL1        0.1033
      6 N          52.8295   10.4424  -28.4775 N.ar    1  UNL1       -0.2437
      7 C          51.8700    9.5091  -28.7130 C.ar    1  UNL1        0.0813
      8 C          51.9148    8.7314  -29.8759 C.ar    1  UNL1        0.0191
      9 C          50.9222    7.7759  -30.1166 C.ar    1  UNL1        0.0015
     10 C          49.8824    7.5952  -29.1984 C.ar    1  UNL1        0.0001
     11 C          49.8295    8.3683  -28.0339 C.ar    1  UNL1        0.0015
     12 C          50.8228    9.3274  -27.7843 C.ar    1  UNL1        0.0178
     13 C          50.7971   10.1165  -26.6285 C.ar    1  UNL1        0.0076
     14 C          50.3972   13.5806  -22.4187 C.3     1  UNL1        0.0264
     15 C          50.5553   13.7420  -23.9397 C.3     1  UNL1        0.0985
     16 C          49.5529   14.6915  -24.5823 C.ar    1  UNL1       -0.0034
     17 C          49.6392   14.9311  -25.9665 C.ar    1  UNL1       -0.0026
     18 C          48.7265   15.7764  -26.6024 C.ar    1  UNL1        0.0006
     19 C          47.7135   16.3936  -25.8672 C.ar    1  UNL1        0.0114
     20 C          47.6113   16.1668  -24.4924 C.ar    1  UNL1        0.0574
     21 CL         46.3349   16.9404  -23.5704 Cl      1  UNL1       -0.0823
     22 C          48.5234   15.3213  -23.8510 C.ar    1  UNL1        0.0087
     23 C          49.4932   11.4479  -24.3331 C.3     1  UNL1        0.1212
     24 C          48.1271   11.8783  -24.8407 C.ar    1  UNL1        0.0041
     25 C          47.9157   12.0556  -26.2220 C.ar    1  UNL1        0.0043
     26 C          46.6557   12.4173  -26.7252 C.ar    1  UNL1        0.0752
     27 C          45.5875   12.5833  -25.8314 C.ar    1  UNL1        0.0069
     28 C          45.7750   12.3850  -24.4639 C.ar    1  UNL1        0.0066
     29 C          47.0292   12.0255  -23.9610 C.ar    1  UNL1        0.0322
     30 BR         47.1648   11.7345  -22.0675 Br      1  UNL1       -0.0493
     31 C          46.4617   12.6195  -28.1785 C.2     1  UNL1        0.3380
     32 O          46.2072   11.6405  -28.9313 O.2     1  UNL1       -0.2451
     33 O          46.5586   13.8950  -28.7294 O.3     1  UNL1       -0.4771
     34 H          46.4276   14.0442  -29.7228 H       1  UNL1        0.2954
@<TRIPOS>BOND
     1    14    15    1
     2    15    16    1
     3    16    17   ar
     4    17    18   ar
     5    18    19   ar
     6    19    20   ar
     7    20    21    1
     8    20    22   ar
     9    15     1    1
    10     1    23    1
    11    23    24    1
    12    24    25   ar
    13    25    26   ar
    14    26    31    1
    15    31    32    2
    16    31    33    1
    17    26    27   ar
    18    27    28   ar
    19    28    29   ar
    20    29    30    1
    21     1     2   am
    22     2     3    2
    23     2     4    1
    24     4     5   ar
    25     5     6   ar
    26     6     7   ar
    27     7     8   ar
    28     8     9   ar
    29     9    10   ar
    30    10    11   ar
    31    11    12   ar
    32    12    13   ar
    33    22    16   ar
    34    29    24   ar
    35    13     4   ar
    36    12     7   ar
    37    33    34    1
@<TRIPOS>MOLECULE
*****
 34 37 0 0 0
SMALL
GASTEIGER

@<TRIPOS>ATOM
      1 N          46.5544   13.2585  -23.9739 N.am    1  UNL1       -0.2698
      2 C          47.3142   14.3610  -23.4223 C.2     1  UNL1        0.2510
      3 O          46.7356   15.4503  -23.1628 O.2     1  UNL1       -0.2698
      4 C          48.7609   14.2396  -23.1243 C.ar    1  UNL1        0.0727
      5 C          49.7020   14.2437  -24.1678 C.ar    1  UNL1        0.1033
      6 N          51.0300   14.1301  -23.8998 N.ar    1  UNL1       -0.2437
      7 C          51.4962   14.0000  -22.6299 C.ar    1  UNL1        0.0813
      8 C          52.8709   13.8861  -22.3928 C.ar    1  UNL1        0.0191
      9 C          53.3455   13.7470  -21.0846 C.ar    1  UNL1        0.0015
     10 C          52.4498   13.7200  -20.0104 C.ar    1  UNL1        0.0001
     11 C          51.0743   13.8326  -20.2381 C.ar    1  UNL1        0.0015
     12 C          50.5906   13.9748  -21.5476 C.ar    1  UNL1        0.0178
     13 C          49.2200   14.0893  -21.8075 C.ar    1  UNL1        0.0076
     14 C          44.1478   12.8063  -24.4306 C.3     1  UNL1        0.0264
     15 C          45.4245   13.5260  -24.8961 C.3     1  UNL1        0.0985
     16 C          45.8106   13.2552  -26.3442 C.ar    1  UNL1       -0.0034
     17 C          45.9719   14.3475  -27.2170 C.ar    1  UNL1       -0.0026
     18 C          46.3481   14.1479  -28.5476 C.ar    1  UNL1        0.0006
     19 C          46.5707   12.8561  -29.0264 C.ar    1  UNL1        0.0114
     20 C          46.4166   11.7595  -28.1744 C.ar    1  UNL1        0.0574
     21 CL         46.7005   10.1366  -28.7770 Cl      1  UNL1       -0.0823
     22 C          46.0395   11.9544  -26.8410 C.ar    1  UNL1        0.0087
     23 C          46.6244   11.9652  -23.2622 C.3     1  UNL1        0.1212
     24 C          47.9342   11.2239  -23.4720 C.ar    1  UNL1        0.0041
     25 C          48.5332   11.2049  -24.7468 C.ar    1  UNL1        0.0043
     26 C          49.7612   10.5596  -24.9646 C.ar    1  UNL1        0.0752
     27 C          50.4074    9.9423  -23.8834 C.ar    1  UNL1        0.0069
     28 C          49.8396    9.9759  -22.6102 C.ar    1  UNL1        0.0066
     29 C          48.6166   10.6174  -22.3916 C.ar    1  UNL1        0.0322
     30 BR         47.9480   10.6418  -20.5913 Br      1  UNL1       -0.0493
     31 C          50.3617   10.5336  -26.3171 C.2     1  UNL1        0.3380
     32 O          49.6948   10.1206  -27.3043 O.2     1  UNL1       -0.2451
     33 O          51.6711   10.9658  -26.5127 O.3     1  UNL1       -0.4771
     34 H          52.0916   10.9522  -27.4343 H       1  UNL1        0.2954
@<TRIPOS>BOND
     1    14    15    1
     2    15    16    1
     3    16    17   ar
     4    17    18   ar
     5    18    19   ar
     6    19    20   ar
     7    20    21    1
     8    20    22   ar
     9    15     1    1
    10     1    23    1
    11    23    24    1
    12    24    25   ar
    13    25    26   ar
    14    26    31    1
    15    31    32    2
    16    31    33    1
    17    26    27   ar
    18    27    28   ar
    19    28    29   ar
    20    29    30    1
    21     1     2   am
    22     2     3    2
    23     2     4    1
    24     4     5   ar
    25     5     6   ar
    26     6     7   ar
    27     7     8   ar
    28     8     9   ar
    29     9    10   ar
    30    10    11   ar
    31    11    12   ar
    32    12    13   ar
    33    22    16   ar
    34    29    24   ar
    35    13     4   ar
    36    12     7   ar
    37    33    34    1
@<TRIPOS>MOLECULE
*****
 34 37 0 0 0
SMALL
GASTEIGER

@<TRIPOS>ATOM
      1 N          47.6720   12.4469  -22.8104 N.am    1  UNL1       -0.2698
      2 C          47.0905   13.1981  -23.9033 C.2     1  UNL1        0.2510
      3 O          46.1188   12.7160  -24.5455 O.2     1  UNL1       -0.2698
      4 C          47.5890   14.5425  -24.2780 C.ar    1  UNL1        0.0727
      5 C          46.8120   15.6842  -24.0180 C.ar    1  UNL1        0.1033
      6 N          47.2638   16.9195  -24.3621 N.ar    1  UNL1       -0.2437
      7 C          48.4649   17.0989  -24.9722 C.ar    1  UNL1        0.0813
      8 C          48.8971   18.3863  -25.3110 C.ar    1  UNL1        0.0191
      9 C          50.1315   18.5655  -25.9436 C.ar    1  UNL1        0.0015
     10 C          50.9367   17.4609  -26.2404 C.ar    1  UNL1        0.0001
     11 C          50.5126   16.1706  -25.9059 C.ar    1  UNL1        0.0015
     12 C          49.2764   15.9829  -25.2691 C.ar    1  UNL1        0.0178
     13 C          48.8244   14.7044  -24.9222 C.ar    1  UNL1        0.0076
     14 C          47.2682   10.3397  -21.5447 C.3     1  UNL1        0.0264
     15 C          47.7220   10.9662  -22.8737 C.3     1  UNL1        0.0985
     16 C          49.0735   10.4750  -23.3752 C.ar    1  UNL1       -0.0034
     17 C          49.4671    9.1568  -23.0778 C.ar    1  UNL1       -0.0026
     18 C          50.6879    8.6561  -23.5371 C.ar    1  UNL1        0.0006
     19 C          51.5329    9.4623  -24.3010 C.ar    1  UNL1        0.0114
     20 C          51.1585   10.7731  -24.6072 C.ar    1  UNL1        0.0574
     21 CL         52.2202   11.7839  -25.5710 Cl      1  UNL1       -0.0823
     22 C          49.9369   11.2792  -24.1492 C.ar    1  UNL1        0.0087
     23 C          47.7718   13.1246  -21.5010 C.3     1  UNL1        0.1212
     24 C          49.1729   13.1115  -20.9129 C.ar    1  UNL1        0.0041
     25 C          50.2694   13.5073  -21.7036 C.ar    1  UNL1        0.0043
     26 C          51.5713   13.5408  -21.1785 C.ar    1  UNL1        0.0752
     27 C          51.7729   13.1919  -19.8349 C.ar    1  UNL1        0.0069
     28 C          50.6934   12.8238  -19.0324 C.ar    1  UNL1        0.0066
     29 C          49.3965   12.7893  -19.5539 C.ar    1  UNL1        0.0322
     30 BR         47.9790   12.3114  -18.3494 Br      1  UNL1       -0.0493
     31 C          52.7116   13.9392  -22.0337 C.2     1  UNL1        0.3380
     32 O          52.8159   15.1256  -22.4475 O.2     1  UNL1       -0.2451
     33 O          53.6820   13.0059  -22.3902 O.3     1  UNL1       -0.4771
     34 H          54.4664   13.2681  -22.9751 H       1  UNL1        0.2954
@<TRIPOS>BOND
     1    14    15    1
     2    15    16    1
     3    16    17   ar
     4    17    18   ar
     5    18    19   ar
     6    19    20   ar
     7    20    21    1
     8    20    22   ar
     9    15     1    1
    10     1    23    1
    11    23    24    1
    12    24    25   ar
    13    25    26   ar
    14    26    31    1
    15    31    32    2
    16    31    33    1
    17    26    27   ar
    18    27    28   ar
    19    28    29   ar
    20    29    30    1
    21     1     2   am
    22     2     3    2
    23     2     4    1
    24     4     5   ar
    25     5     6   ar
    26     6     7   ar
    27     7     8   ar
    28     8     9   ar
    29     9    10   ar
    30    10    11   ar
    31    11    12   ar
    32    12    13   ar
    33    22    16   ar
    34    29    24   ar
    35    13     4   ar
    36    12     7   ar
    37    33    34    1
@<TRIPOS>MOLECULE
*****
 34 37 0 0 0
SMALL
GASTEIGER

@<TRIPOS>ATOM
      1 N          46.6560   13.0388  -23.6605 N.am    1  UNL1       -0.2698
      2 C          47.3890   14.2357  -23.3036 C.2     1  UNL1        0.2510
      3 O          46.9585   15.3634  -23.6667 O.2     1  UNL1       -0.2698
      4 C          48.6283   14.1788  -22.4929 C.ar    1  UNL1        0.0727
      5 C          48.5988   14.5156  -21.1289 C.ar    1  UNL1        0.1033
      6 N          49.7335   14.4675  -20.3815 N.ar    1  UNL1       -0.2437
      7 C          50.9292   14.1057  -20.9167 C.ar    1  UNL1        0.0813
      8 C          52.0762   14.0671  -20.1155 C.ar    1  UNL1        0.0191
      9 C          53.3056   13.6994  -20.6719 C.ar    1  UNL1        0.0015
     10 C          53.3934   13.3707  -22.0287 C.ar    1  UNL1        0.0001
     11 C          52.2524   13.4071  -22.8370 C.ar    1  UNL1        0.0015
     12 C          51.0150   13.7728  -22.2856 C.ar    1  UNL1        0.0178
     13 C          49.8557   13.8190  -23.0685 C.ar    1  UNL1        0.0076
     14 C          44.4717   12.5339  -24.7462 C.3     1  UNL1        0.0264
     15 C          45.9311   12.9722  -24.9524 C.3     1  UNL1        0.0985
     16 C          46.6984   12.1515  -25.9805 C.ar    1  UNL1       -0.0034
     17 C          46.0187   11.6944  -27.1251 C.ar    1  UNL1       -0.0026
     18 C          46.6881   10.9582  -28.1058 C.ar    1  UNL1        0.0006
     19 C          48.0455   10.6687  -27.9599 C.ar    1  UNL1        0.0114
     20 C          48.7372   11.1150  -26.8310 C.ar    1  UNL1        0.0574
     21 CL         50.4444   10.7536  -26.6511 Cl      1  UNL1       -0.0823
     22 C          48.0708   11.8525  -25.8459 C.ar    1  UNL1        0.0087
     23 C          46.2755   12.1256  -22.5627 C.3     1  UNL1        0.1212
     24 C          47.4324   11.2967  -22.0304 C.ar    1  UNL1        0.0041
     25 C          48.3459   10.7093  -22.9276 C.ar    1  UNL1        0.0043
     26 C          49.4456    9.9683  -22.4658 C.ar    1  UNL1        0.0752
     27 C          49.6430    9.8319  -21.0838 C.ar    1  UNL1        0.0069
     28 C          48.7622   10.4302  -20.1833 C.ar    1  UNL1        0.0066
     29 C          47.6663   11.1679  -20.6414 C.ar    1  UNL1        0.0322
     30 BR         46.5431   11.9857  -19.3153 Br      1  UNL1       -0.0493
     31 C          50.3806    9.3417  -23.4269 C.2     1  UNL1        0.3380
     32 O          51.5048    9.8640  -23.6575 O.2     1  UNL1       -0.2451
     33 O          50.0271    8.1673  -24.0869 O.3     1  UNL1       -0.4771
     34 H          50.6596    7.7304  -24.7466 H       1  UNL1        0.2954
@<TRIPOS>BOND
     1    14    15    1
     2    15    16    1
     3    16    17   ar
     4    17    18   ar
     5    18    19   ar
     6    19    20   ar
     7    20    21    1
     8    20    22   ar
     9    15     1    1
    10     1    23    1
    11    23    24    1
    12    24    25   ar
    13    25    26   ar
    14    26    31    1
    15    31    32    2
    16    31    33    1
    17    26    27   ar
    18    27    28   ar
    19    28    29   ar
    20    29    30    1
    21     1     2   am
    22     2     3    2
    23     2     4    1
    24     4     5   ar
    25     5     6   ar
    26     6     7   ar
    27     7     8   ar
    28     8     9   ar
    29     9    10   ar
    30    10    11   ar
    31    11    12   ar
    32    12    13   ar
    33    22    16   ar
    34    29    24   ar
    35    13     4   ar
    36    12     7   ar
    37    33    34    1
@<TRIPOS>MOLECULE
*****
 34 37 0 0 0
SMALL
GASTEIGER

@<TRIPOS>ATOM
      1 N          47.0107   12.8114  -24.1945 N.am    1  UNL1       -0.2698
      2 C          48.0902   13.6442  -23.7063 C.2     1  UNL1        0.2510
      3 O          47.8263   14.7202  -23.1051 O.2     1  UNL1       -0.2698
      4 C          49.5108   13.2543  -23.8686 C.ar    1  UNL1        0.0727
      5 C          50.3873   13.2976  -22.7710 C.ar    1  UNL1        0.1033
      6 N          51.6919   12.9434  -22.9154 N.ar    1  UNL1       -0.2437
      7 C          52.1986   12.5472  -24.1126 C.ar    1  UNL1        0.0813
      8 C          53.5473   12.1893  -24.2225 C.ar    1  UNL1        0.0191
      9 C          54.0655   11.7874  -25.4578 C.ar    1  UNL1        0.0015
     10 C          53.2398   11.7429  -26.5861 C.ar    1  UNL1        0.0001
     11 C          51.8910   12.0993  -26.4856 C.ar    1  UNL1        0.0015
     12 C          51.3631   12.5014  -25.2492 C.ar    1  UNL1        0.0178
     13 C          50.0178   12.8644  -25.1169 C.ar    1  UNL1        0.0076
     14 C          44.5265   12.6334  -24.2361 C.3     1  UNL1        0.0264
     15 C          45.7587   13.4354  -24.6866 C.3     1  UNL1        0.0985
     16 C          45.8227   13.7082  -26.1835 C.ar    1  UNL1       -0.0034
     17 C          45.6645   15.0311  -26.6375 C.ar    1  UNL1       -0.0026
     18 C          45.7390   15.3314  -27.9999 C.ar    1  UNL1        0.0006
     19 C          45.9742   14.3170  -28.9290 C.ar    1  UNL1        0.0114
     20 C          46.1349   12.9981  -28.4970 C.ar    1  UNL1        0.0574
     21 CL         46.4342   11.7247  -29.6660 Cl      1  UNL1       -0.0823
     22 C          46.0607   12.6923  -27.1335 C.ar    1  UNL1        0.0087
     23 C          47.0021   11.3963  -23.7690 C.3     1  UNL1        0.1212
     24 C          47.4371   11.1903  -22.3277 C.ar    1  UNL1        0.0041
     25 C          46.6860   11.7581  -21.2801 C.ar    1  UNL1        0.0043
     26 C          47.0412   11.5557  -19.9367 C.ar    1  UNL1        0.0752
     27 C          48.1540   10.7552  -19.6398 C.ar    1  UNL1        0.0069
     28 C          48.8915   10.1644  -20.6654 C.ar    1  UNL1        0.0066
     29 C          48.5396   10.3655  -22.0036 C.ar    1  UNL1        0.0322
     30 BR         49.5968    9.4690  -23.3330 Br      1  UNL1       -0.0493
     31 C          46.2501   12.1799  -18.8528 C.2     1  UNL1        0.3380
     32 O          45.0151   11.9483  -18.7486 O.2     1  UNL1       -0.2451
     33 O          46.8631   13.0305  -17.9361 O.3     1  UNL1       -0.4771
     34 H          46.3308   13.4629  -17.1905 H       1  UNL1        0.2954
@<TRIPOS>BOND
     1    14    15    1
     2    15    16    1
     3    16    17   ar
     4    17    18   ar
     5    18    19   ar
     6    19    20   ar
     7    20    21    1
     8    20    22   ar
     9    15     1    1
    10     1    23    1
    11    23    24    1
    12    24    25   ar
    13    25    26   ar
    14    26    31    1
    15    31    32    2
    16    31    33    1
    17    26    27   ar
    18    27    28   ar
    19    28    29   ar
    20    29    30    1
    21     1     2   am
    22     2     3    2
    23     2     4    1
    24     4     5   ar
    25     5     6   ar
    26     6     7   ar
    27     7     8   ar
    28     8     9   ar
    29     9    10   ar
    30    10    11   ar
    31    11    12   ar
    32    12    13   ar
    33    22    16   ar
    34    29    24   ar
    35    13     4   ar
    36    12     7   ar
    37    33    34    1
