@<TRIPOS>MOLECULE
*****
 51 56 0 0 0
SMALL
GASTEIGER

@<TRIPOS>ATOM
      1 O          58.6247   86.6811   11.5527 O.2     1  UNL1       -0.2701
      2 C          59.4033   87.6637   11.4102 C.2     1  UNL1        0.2483
      3 N          60.2052   88.1068   12.5173 N.am    1  UNL1       -0.2945
      4 H          61.0263   88.7171   12.3095 H       1  UNL1        0.1501
      5 C          59.5098   88.3160   10.0851 C.ar    1  UNL1        0.0808
      6 C          59.2745   87.5644    8.9214 C.ar    1  UNL1        0.0080
      7 C          59.3799   88.1557    7.6600 C.ar    1  UNL1        0.0148
      8 C          59.7120   89.5125    7.5369 C.ar    1  UNL1        0.0502
      9 C          59.9327   90.2706    8.6976 C.ar    1  UNL1        0.0443
     10 C          59.8281   89.6825    9.9621 C.ar    1  UNL1        0.1457
     11 F          59.9873   90.4647   11.0585 F       1  UNL1       -0.2040
     12 N          59.8238   90.1149    6.2335 N.pl3   1  UNL1       -0.3040
     13 C          58.6415   90.6657    5.5622 C.3     1  UNL1        0.1123
     14 C          59.0069   91.9500    4.8131 C.3     1  UNL1        0.1136
     15 N          60.2329   91.7565    4.0250 N.pl3   1  UNL1       -0.2897
     16 C          61.4065   91.1921    4.7044 C.3     1  UNL1        0.1136
     17 C          61.0277   89.8995    5.4240 C.3     1  UNL1        0.1123
     18 C          60.3867   92.3577    2.7232 C.ar    1  UNL1        0.1318
     19 C          59.3054   92.9704    2.0690 C.ar    1  UNL1        0.0343
     20 C          59.4957   93.5432    0.8106 C.ar    1  UNL1        0.0083
     21 C          60.7642   93.5288    0.2117 C.ar    1  UNL1        0.0906
     22 C          61.8143   92.8914    0.8904 C.ar    1  UNL1        0.1041
     23 N          61.6043   92.3380    2.1139 N.ar    1  UNL1       -0.2292
     24 C          60.9717   94.0997   -1.1680 C.3     1  UNL1        0.4200
     25 F          59.8958   94.8884   -1.5369 F       1  UNL1       -0.1658
     26 F          62.1142   94.8802   -1.2068 F       1  UNL1       -0.1658
     27 F          61.1027   93.0638   -2.0741 F       1  UNL1       -0.1658
     28 C          60.1179   87.4801   13.8423 C.3     1  UNL1        0.1535
     29 C          61.1429   86.3814   13.9843 C.2     1  UNL1        0.2443
     30 O          60.9712   85.4677   14.8373 O.2     1  UNL1       -0.2730
     31 N          62.3120   86.3883   13.1493 N.am    1  UNL1       -0.2825
     32 H          62.5375   87.2727   12.6398 H       1  UNL1        0.1549
     33 C          63.2474   85.2999   13.0524 C.ar    1  UNL1        0.0539
     34 C          64.2114   85.0623   14.0475 C.ar    1  UNL1        0.0354
     35 C          65.0795   83.9753   13.9206 C.ar    1  UNL1        0.1007
     36 N          64.9829   83.1458   12.8486 N.ar    1  UNL1       -0.2378
     37 C          64.0496   83.3393   11.8798 C.ar    1  UNL1        0.1043
     38 S          63.9634   82.2112   10.4957 S.3     1  UNL1       -0.1227
     39 C          63.1601   84.4143   11.9693 C.ar    1  UNL1        0.0399
     40 H          64.8656   82.9842    9.7412 H       1  UNL1        0.1086
     41 C          60.2473   88.5299   14.9655 C.3     1  UNL1        0.0569
     42 C          61.6711   88.9158   15.2657 C.ar    1  UNL1       -0.0017
     43 C          62.3824   88.6169   16.4247 C.ar    1  UNL1        0.0681
     44 N          63.6484   89.0838   16.3369 N.ar    1  UNL1       -0.3523
     45 C          63.7431   89.6766   15.1341 C.ar    1  UNL1        0.0563
     46 C          64.8620   90.3039   14.5878 C.ar    1  UNL1        0.0170
     47 C          64.7406   90.8628   13.3025 C.ar    1  UNL1        0.0015
     48 C          63.5166   90.7862   12.6016 C.ar    1  UNL1        0.0001
     49 C          62.4036   90.1490   13.1789 C.ar    1  UNL1        0.0012
     50 C          62.5558   89.5977   14.4517 C.ar    1  UNL1        0.0131
     51 H          64.3976   88.9976   17.0590 H       1  UNL1        0.1660
@<TRIPOS>BOND
     1     1     2    2
     2     2     3   am
     3     3    28    1
     4    28    41    1
     5    41    42    1
     6    42    43   ar
     7    43    44   ar
     8    44    45   ar
     9    45    46   ar
    10    46    47   ar
    11    47    48   ar
    12    48    49   ar
    13    49    50   ar
    14    28    29    1
    15    29    30    2
    16    29    31   am
    17    31    33    1
    18    33    34   ar
    19    34    35   ar
    20    35    36   ar
    21    36    37   ar
    22    37    38    1
    23    37    39   ar
    24     2     5    1
    25     5     6   ar
    26     6     7   ar
    27     7     8   ar
    28     8    12    1
    29    12    13    1
    30    13    14    1
    31    14    15    1
    32    15    18    1
    33    18    19   ar
    34    19    20   ar
    35    20    21   ar
    36    21    24    1
    37    24    25    1
    38    24    26    1
    39    24    27    1
    40    21    22   ar
    41    22    23   ar
    42    15    16    1
    43    16    17    1
    44     8     9   ar
    45     9    10   ar
    46    10    11    1
    47    50    42   ar
    48    39    33   ar
    49    10     5   ar
    50    50    45   ar
    51    17    12    1
    52    23    18   ar
    53     3     4    1
    54    44    51    1
    55    31    32    1
    56    38    40    1
@<TRIPOS>MOLECULE
*****
 51 56 0 0 0
SMALL
GASTEIGER

@<TRIPOS>ATOM
      1 O          59.4164   87.8821   12.4348 O.2     1  UNL1       -0.2701
      2 C          60.3142   87.6797   11.5718 C.2     1  UNL1        0.2483
      3 N          61.4110   86.8015   11.8736 N.am    1  UNL1       -0.2945
      4 H          61.9728   86.4328   11.0748 H       1  UNL1        0.1501
      5 C          60.1960   88.3188   10.2413 C.ar    1  UNL1        0.0808
      6 C          59.7972   87.5491    9.1354 C.ar    1  UNL1        0.0080
      7 C          59.6893   88.1278    7.8685 C.ar    1  UNL1        0.0148
      8 C          59.9673   89.4898    7.6835 C.ar    1  UNL1        0.0502
      9 C          60.3510   90.2656    8.7887 C.ar    1  UNL1        0.0443
     10 C          60.4602   89.6901   10.0585 C.ar    1  UNL1        0.1457
     11 F          60.7724   90.4881   11.1097 F       1  UNL1       -0.2040
     12 N          59.8587   90.0792    6.3739 N.pl3   1  UNL1       -0.3040
     13 C          58.5467   90.4328    5.8212 C.3     1  UNL1        0.1123
     14 C          58.6376   91.7444    5.0365 C.3     1  UNL1        0.1136
     15 N          59.7963   91.7251    4.1318 N.pl3   1  UNL1       -0.2897
     16 C          61.1026   91.3568    4.6934 C.3     1  UNL1        0.1136
     17 C          60.9970   90.0345    5.4501 C.3     1  UNL1        0.1123
     18 C          59.7294   92.3198    2.8197 C.ar    1  UNL1        0.1318
     19 C          60.8861   92.7664    2.1600 C.ar    1  UNL1        0.0343
     20 C          60.7795   93.3343    0.8896 C.ar    1  UNL1        0.0083
     21 C          59.5281   93.4375    0.2639 C.ar    1  UNL1        0.0906
     22 C          58.3948   92.9956    0.9639 C.ar    1  UNL1        0.1041
     23 N          58.5230   92.4485    2.2014 N.ar    1  UNL1       -0.2292
     24 C          59.3933   94.0939   -1.0864 C.3     1  UNL1        0.4200
     25 F          58.2632   94.8920   -1.1306 F       1  UNL1       -0.1658
     26 F          60.4947   94.8877   -1.3558 F       1  UNL1       -0.1658
     27 F          59.2932   93.1169   -2.0593 F       1  UNL1       -0.1658
     28 C          61.5542   86.1568   13.1851 C.3     1  UNL1        0.1535
     29 C          61.1618   84.7012   13.1127 C.2     1  UNL1        0.2443
     30 O          60.8228   84.0885   14.1622 O.2     1  UNL1       -0.2730
     31 N          61.1837   84.0217   11.8470 N.am    1  UNL1       -0.2825
     32 H          61.6948   84.4815   11.0598 H       1  UNL1        0.1549
     33 C          60.6440   82.7075   11.6213 C.ar    1  UNL1        0.0539
     34 C          59.2980   82.4045   11.8906 C.ar    1  UNL1        0.0354
     35 C          58.8150   81.1203   11.6284 C.ar    1  UNL1        0.1007
     36 N          59.6381   80.1750   11.1036 N.ar    1  UNL1       -0.2378
     37 C          60.9390   80.4434   10.8160 C.ar    1  UNL1        0.1043
     38 S          61.9739   79.1630   10.1193 S.3     1  UNL1       -0.1227
     39 C          61.4621   81.7165   11.0614 C.ar    1  UNL1        0.0399
     40 H          62.3765   78.7212   11.3934 H       1  UNL1        0.1086
     41 C          62.9821   86.3358   13.7416 C.3     1  UNL1        0.0569
     42 C          63.2183   87.6846   14.3668 C.ar    1  UNL1       -0.0017
     43 C          63.3046   87.9615   15.7286 C.ar    1  UNL1        0.0681
     44 N          63.5643   89.2732   15.9295 N.ar    1  UNL1       -0.3523
     45 C          63.6409   89.8281   14.7075 C.ar    1  UNL1        0.0563
     46 C          63.8958   91.1643   14.4014 C.ar    1  UNL1        0.0170
     47 C          63.9325   91.5327   13.0442 C.ar    1  UNL1        0.0015
     48 C          63.7126   90.5692   12.0350 C.ar    1  UNL1        0.0001
     49 C          63.4552   89.2286   12.3737 C.ar    1  UNL1        0.0012
     50 C          63.4321   88.8913   13.7275 C.ar    1  UNL1        0.0131
     51 H          63.6822   89.7532   16.8493 H       1  UNL1        0.1660
@<TRIPOS>BOND
     1     1     2    2
     2     2     3   am
     3     3    28    1
     4    28    41    1
     5    41    42    1
     6    42    43   ar
     7    43    44   ar
     8    44    45   ar
     9    45    46   ar
    10    46    47   ar
    11    47    48   ar
    12    48    49   ar
    13    49    50   ar
    14    28    29    1
    15    29    30    2
    16    29    31   am
    17    31    33    1
    18    33    34   ar
    19    34    35   ar
    20    35    36   ar
    21    36    37   ar
    22    37    38    1
    23    37    39   ar
    24     2     5    1
    25     5     6   ar
    26     6     7   ar
    27     7     8   ar
    28     8    12    1
    29    12    13    1
    30    13    14    1
    31    14    15    1
    32    15    18    1
    33    18    19   ar
    34    19    20   ar
    35    20    21   ar
    36    21    24    1
    37    24    25    1
    38    24    26    1
    39    24    27    1
    40    21    22   ar
    41    22    23   ar
    42    15    16    1
    43    16    17    1
    44     8     9   ar
    45     9    10   ar
    46    10    11    1
    47    50    42   ar
    48    39    33   ar
    49    10     5   ar
    50    50    45   ar
    51    17    12    1
    52    23    18   ar
    53     3     4    1
    54    44    51    1
    55    31    32    1
    56    38    40    1
@<TRIPOS>MOLECULE
*****
 51 56 0 0 0
SMALL
GASTEIGER

@<TRIPOS>ATOM
      1 O          59.9352   87.9226   12.4039 O.2     1  UNL1       -0.2701
      2 C          59.9949   87.2449   11.3414 C.2     1  UNL1        0.2483
      3 N          60.0207   85.8097   11.4093 N.am    1  UNL1       -0.2945
      4 H          59.7881   85.2774   10.5419 H       1  UNL1        0.1501
      5 C          59.9912   87.9442   10.0361 C.ar    1  UNL1        0.0808
      6 C          59.3196   87.3698    8.9437 C.ar    1  UNL1        0.0080
      7 C          59.3118   88.0059    7.6999 C.ar    1  UNL1        0.0148
      8 C          59.9659   89.2340    7.5258 C.ar    1  UNL1        0.0502
      9 C          60.6249   89.8187    8.6187 C.ar    1  UNL1        0.0443
     10 C          60.6350   89.1852    9.8654 C.ar    1  UNL1        0.1457
     11 F          61.2292   89.8141   10.9098 F       1  UNL1       -0.2040
     12 N          59.9582   89.8823    6.2398 N.pl3   1  UNL1       -0.3040
     13 C          58.7139   90.4279    5.6867 C.3     1  UNL1        0.1123
     14 C          58.9907   91.7448    4.9562 C.3     1  UNL1        0.1136
     15 N          60.1516   91.6062    4.0648 N.pl3   1  UNL1       -0.2897
     16 C          61.3880   91.0464    4.6261 C.3     1  UNL1        0.1136
     17 C          61.0957   89.7219    5.3280 C.3     1  UNL1        0.1123
     18 C          60.1858   92.2542    2.7769 C.ar    1  UNL1        0.1318
     19 C          59.2653   93.2602    2.4404 C.ar    1  UNL1        0.0343
     20 C          59.3332   93.8647    1.1843 C.ar    1  UNL1        0.0083
     21 C          60.3290   93.4877    0.2709 C.ar    1  UNL1        0.0906
     22 C          61.2185   92.4664    0.6390 C.ar    1  UNL1        0.1041
     23 N          61.1313   91.8903    1.8669 N.ar    1  UNL1       -0.2292
     24 C          60.3823   94.0973   -1.1067 C.3     1  UNL1        0.4200
     25 F          61.5083   94.8901   -1.2465 F       1  UNL1       -0.1658
     26 F          60.4246   93.1104   -2.0763 F       1  UNL1       -0.1658
     27 F          59.2565   94.8749   -1.3041 F       1  UNL1       -0.1658
     28 C          60.0276   85.0907   12.6896 C.3     1  UNL1        0.1535
     29 C          60.3801   86.0206   13.8249 C.2     1  UNL1        0.2443
     30 O          59.4777   86.4298   14.6059 O.2     1  UNL1       -0.2730
     31 N          61.7431   86.4386   14.0037 N.am    1  UNL1       -0.2825
     32 H          62.4052   86.2821   13.2103 H       1  UNL1        0.1549
     33 C          62.2296   87.1517   15.1543 C.ar    1  UNL1        0.0539
     34 C          62.2919   86.5520   16.4242 C.ar    1  UNL1        0.0354
     35 C          62.7983   87.2779   17.5049 C.ar    1  UNL1        0.1007
     36 N          63.2401   88.5504   17.3259 N.ar    1  UNL1       -0.2378
     37 C          63.2092   89.1504   16.1069 C.ar    1  UNL1        0.1043
     38 S          63.8112   90.8242   15.9287 S.3     1  UNL1       -0.1227
     39 C          62.7118   88.4586   14.9984 C.ar    1  UNL1        0.0399
     40 H          62.5401   91.3663   16.1959 H       1  UNL1        0.1086
     41 C          58.6829   84.3751   12.9347 C.3     1  UNL1        0.0569
     42 C          58.3266   83.3819   11.8611 C.ar    1  UNL1       -0.0017
     43 C          57.8614   83.6771   10.5825 C.ar    1  UNL1        0.0681
     44 N          57.6826   82.5419    9.8699 N.ar    1  UNL1       -0.3523
     45 C          58.0285   81.5321   10.6869 C.ar    1  UNL1        0.0563
     46 C          58.0142   80.1684   10.3967 C.ar    1  UNL1        0.0170
     47 C          58.4197   79.2768   11.4065 C.ar    1  UNL1        0.0015
     48 C          58.8225   79.7623   12.6703 C.ar    1  UNL1        0.0001
     49 C          58.8246   81.1436   12.9354 C.ar    1  UNL1        0.0012
     50 C          58.4242   82.0041   11.9126 C.ar    1  UNL1        0.0131
     51 H          57.3453   82.4694    8.8843 H       1  UNL1        0.1660
@<TRIPOS>BOND
     1     1     2    2
     2     2     3   am
     3     3    28    1
     4    28    41    1
     5    41    42    1
     6    42    43   ar
     7    43    44   ar
     8    44    45   ar
     9    45    46   ar
    10    46    47   ar
    11    47    48   ar
    12    48    49   ar
    13    49    50   ar
    14    28    29    1
    15    29    30    2
    16    29    31   am
    17    31    33    1
    18    33    34   ar
    19    34    35   ar
    20    35    36   ar
    21    36    37   ar
    22    37    38    1
    23    37    39   ar
    24     2     5    1
    25     5     6   ar
    26     6     7   ar
    27     7     8   ar
    28     8    12    1
    29    12    13    1
    30    13    14    1
    31    14    15    1
    32    15    18    1
    33    18    19   ar
    34    19    20   ar
    35    20    21   ar
    36    21    24    1
    37    24    25    1
    38    24    26    1
    39    24    27    1
    40    21    22   ar
    41    22    23   ar
    42    15    16    1
    43    16    17    1
    44     8     9   ar
    45     9    10   ar
    46    10    11    1
    47    50    42   ar
    48    39    33   ar
    49    10     5   ar
    50    50    45   ar
    51    17    12    1
    52    23    18   ar
    53     3     4    1
    54    44    51    1
    55    31    32    1
    56    38    40    1
@<TRIPOS>MOLECULE
*****
 51 56 0 0 0
SMALL
GASTEIGER

@<TRIPOS>ATOM
      1 O          59.3665   87.4217   12.5616 O.2     1  UNL1       -0.2701
      2 C          59.6693   86.8101   11.5004 C.2     1  UNL1        0.2483
      3 N          59.9579   85.4030   11.5437 N.am    1  UNL1       -0.2945
      4 H          59.9266   84.8722   10.6453 H       1  UNL1        0.1501
      5 C          59.6771   87.5486   10.2170 C.ar    1  UNL1        0.0808
      6 C          59.1657   86.9351    9.0609 C.ar    1  UNL1        0.0080
      7 C          59.1727   87.6082    7.8367 C.ar    1  UNL1        0.0148
      8 C          59.6809   88.9119    7.7456 C.ar    1  UNL1        0.0502
      9 C          60.1785   89.5341    8.9015 C.ar    1  UNL1        0.0443
     10 C          60.1734   88.8638   10.1287 C.ar    1  UNL1        0.1457
     11 F          60.6050   89.5236   11.2322 F       1  UNL1       -0.2040
     12 N          59.6896   89.5986    6.4797 N.pl3   1  UNL1       -0.3040
     13 C          58.4486   90.1422    5.9172 C.3     1  UNL1        0.1123
     14 C          58.7199   91.4845    5.2325 C.3     1  UNL1        0.1136
     15 N          59.9009   91.3902    4.3619 N.pl3   1  UNL1       -0.2897
     16 C          61.1341   90.8322    4.9321 C.3     1  UNL1        0.1136
     17 C          60.8480   89.4829    5.5877 C.3     1  UNL1        0.1123
     18 C          59.9515   92.0773    3.0950 C.ar    1  UNL1        0.1318
     19 C          61.0682   92.8439    2.7236 C.ar    1  UNL1        0.0343
     20 C          61.0796   93.4918    1.4875 C.ar    1  UNL1        0.0083
     21 C          59.9932   93.3597    0.6099 C.ar    1  UNL1        0.0906
     22 C          58.8894   92.5992    1.0258 C.ar    1  UNL1        0.1041
     23 N          58.8998   91.9797    2.2355 N.ar    1  UNL1       -0.2292
     24 C          59.9717   94.0943   -0.7063 C.3     1  UNL1        0.4200
     25 F          59.9606   93.2011   -1.7637 F       1  UNL1       -0.1658
     26 F          58.8449   94.8925   -0.8019 F       1  UNL1       -0.1658
     27 F          61.0976   94.8909   -0.8013 F       1  UNL1       -0.1658
     28 C          59.9598   84.6468   12.8024 C.3     1  UNL1        0.1535
     29 C          60.2795   85.5489   13.9694 C.2     1  UNL1        0.2443
     30 O          59.3738   85.8588   14.7912 O.2     1  UNL1       -0.2730
     31 N          61.6147   86.0539   14.1319 N.am    1  UNL1       -0.2825
     32 H          62.2629   85.9794   13.3153 H       1  UNL1        0.1549
     33 C          62.0837   86.7488   15.3008 C.ar    1  UNL1        0.0539
     34 C          62.2151   86.1025   16.5423 C.ar    1  UNL1        0.0354
     35 C          62.7012   86.8142   17.6416 C.ar    1  UNL1        0.1007
     36 N          63.0573   88.1187   17.5073 N.ar    1  UNL1       -0.2378
     37 C          62.9585   88.7653   16.3160 C.ar    1  UNL1        0.1043
     38 S          63.4491   90.4801   16.1960 S.3     1  UNL1       -0.1227
     39 C          62.4785   88.0892   15.1902 C.ar    1  UNL1        0.0399
     40 H          62.1534   90.9282   16.5142 H       1  UNL1        0.1086
     41 C          58.6248   83.9008   13.0069 C.3     1  UNL1        0.0569
     42 C          58.4974   82.6569   12.1688 C.ar    1  UNL1       -0.0017
     43 C          58.6213   81.3434   12.6136 C.ar    1  UNL1        0.0681
     44 N          58.4059   80.4772   11.5979 N.ar    1  UNL1       -0.3523
     45 C          58.1490   81.2310   10.5150 C.ar    1  UNL1        0.0563
     46 C          57.8614   80.7860    9.2254 C.ar    1  UNL1        0.0170
     47 C          57.6218   81.7545    8.2335 C.ar    1  UNL1        0.0015
     48 C          57.6779   83.1303    8.5485 C.ar    1  UNL1        0.0001
     49 C          57.9728   83.5500    9.8581 C.ar    1  UNL1        0.0012
     50 C          58.1988   82.5670   10.8223 C.ar    1  UNL1        0.0131
     51 H          58.4332   79.4346   11.6494 H       1  UNL1        0.1660
@<TRIPOS>BOND
     1     1     2    2
     2     2     3   am
     3     3    28    1
     4    28    41    1
     5    41    42    1
     6    42    43   ar
     7    43    44   ar
     8    44    45   ar
     9    45    46   ar
    10    46    47   ar
    11    47    48   ar
    12    48    49   ar
    13    49    50   ar
    14    28    29    1
    15    29    30    2
    16    29    31   am
    17    31    33    1
    18    33    34   ar
    19    34    35   ar
    20    35    36   ar
    21    36    37   ar
    22    37    38    1
    23    37    39   ar
    24     2     5    1
    25     5     6   ar
    26     6     7   ar
    27     7     8   ar
    28     8    12    1
    29    12    13    1
    30    13    14    1
    31    14    15    1
    32    15    18    1
    33    18    19   ar
    34    19    20   ar
    35    20    21   ar
    36    21    24    1
    37    24    25    1
    38    24    26    1
    39    24    27    1
    40    21    22   ar
    41    22    23   ar
    42    15    16    1
    43    16    17    1
    44     8     9   ar
    45     9    10   ar
    46    10    11    1
    47    50    42   ar
    48    39    33   ar
    49    10     5   ar
    50    50    45   ar
    51    17    12    1
    52    23    18   ar
    53     3     4    1
    54    44    51    1
    55    31    32    1
    56    38    40    1
@<TRIPOS>MOLECULE
*****
 51 56 0 0 0
SMALL
GASTEIGER

@<TRIPOS>ATOM
      1 O          60.0579   88.1920   12.4739 O.2     1  UNL1       -0.2701
      2 C          60.7883   87.8431   11.5060 C.2     1  UNL1        0.2483
      3 N          61.7794   86.8191   11.6912 N.am    1  UNL1       -0.2945
      4 H          62.1657   86.3564   10.8389 H       1  UNL1        0.1501
      5 C          60.5781   88.4666   10.1795 C.ar    1  UNL1        0.0808
      6 C          60.0597   87.6957    9.1253 C.ar    1  UNL1        0.0080
      7 C          59.8633   88.2596    7.8622 C.ar    1  UNL1        0.0148
      8 C          60.1707   89.6079    7.6305 C.ar    1  UNL1        0.0502
      9 C          60.6742   90.3856    8.6852 C.ar    1  UNL1        0.0443
     10 C          60.8723   89.8249    9.9509 C.ar    1  UNL1        0.1457
     11 F          61.3008   90.6264   10.9576 F       1  UNL1       -0.2040
     12 N          59.9703   90.1820    6.3249 N.pl3   1  UNL1       -0.3040
     13 C          58.6168   90.4548    5.8295 C.3     1  UNL1        0.1123
     14 C          58.5961   91.7646    5.0368 C.3     1  UNL1        0.1136
     15 N          59.7130   91.8074    4.0818 N.pl3   1  UNL1       -0.2897
     16 C          61.0621   91.5195    4.5864 C.3     1  UNL1        0.1136
     17 C          61.0675   90.1981    5.3518 C.3     1  UNL1        0.1123
     18 C          59.5537   92.3890    2.7718 C.ar    1  UNL1        0.1318
     19 C          60.6021   93.0863    2.1495 C.ar    1  UNL1        0.0343
     20 C          60.4088   93.6326    0.8799 C.ar    1  UNL1        0.0083
     21 C          59.1832   93.4667    0.2177 C.ar    1  UNL1        0.0906
     22 C          58.1554   92.7786    0.8810 C.ar    1  UNL1        0.1041
     23 N          58.3661   92.2577    2.1185 N.ar    1  UNL1       -0.2292
     24 C          58.9452   94.0941   -1.1322 C.3     1  UNL1        0.4200
     25 F          57.8067   94.8810   -1.1108 F       1  UNL1       -0.1658
     26 F          60.0162   94.8919   -1.4956 F       1  UNL1       -0.1658
     27 F          58.7857   93.0965   -2.0758 F       1  UNL1       -0.1658
     28 C          62.0106   86.1859   12.9957 C.3     1  UNL1        0.1535
     29 C          61.9821   84.6818   12.8742 C.2     1  UNL1        0.2443
     30 O          63.0627   84.0385   12.7736 O.2     1  UNL1       -0.2730
     31 N          60.7210   83.9934   12.8676 N.am    1  UNL1       -0.2825
     32 H          59.8596   84.5632   12.7069 H       1  UNL1        0.1549
     33 C          60.5746   82.5654   12.9596 C.ar    1  UNL1        0.0539
     34 C          61.3247   81.8023   13.8712 C.ar    1  UNL1        0.0354
     35 C          61.1260   80.4214   13.9412 C.ar    1  UNL1        0.1007
     36 N          60.2038   79.8227   13.1426 N.ar    1  UNL1       -0.2378
     37 C          59.4511   80.5364   12.2646 C.ar    1  UNL1        0.1043
     38 S          58.2470   79.6969   11.2443 S.3     1  UNL1       -0.1227
     39 C          59.6171   81.9211   12.1641 C.ar    1  UNL1        0.0399
     40 H          59.1871   79.4816   10.2193 H       1  UNL1        0.1086
     41 C          63.3260   86.6821   13.6312 C.3     1  UNL1        0.0569
     42 C          63.1185   87.6759   14.7428 C.ar    1  UNL1       -0.0017
     43 C          62.3577   87.4838   15.8929 C.ar    1  UNL1        0.0681
     44 N          62.4268   88.5713   16.6935 N.ar    1  UNL1       -0.3523
     45 C          63.2225   89.4496   16.0590 C.ar    1  UNL1        0.0563
     46 C          63.5951   90.7200   16.4962 C.ar    1  UNL1        0.0170
     47 C          64.4434   91.4779   15.6684 C.ar    1  UNL1        0.0015
     48 C          64.8922   90.9564   14.4348 C.ar    1  UNL1        0.0001
     49 C          64.4979   89.6721   14.0184 C.ar    1  UNL1        0.0012
     50 C          63.6621   88.9409   14.8633 C.ar    1  UNL1        0.0131
     51 H          61.9568   88.6981   17.6172 H       1  UNL1        0.1660
@<TRIPOS>BOND
     1     1     2    2
     2     2     3   am
     3     3    28    1
     4    28    41    1
     5    41    42    1
     6    42    43   ar
     7    43    44   ar
     8    44    45   ar
     9    45    46   ar
    10    46    47   ar
    11    47    48   ar
    12    48    49   ar
    13    49    50   ar
    14    28    29    1
    15    29    30    2
    16    29    31   am
    17    31    33    1
    18    33    34   ar
    19    34    35   ar
    20    35    36   ar
    21    36    37   ar
    22    37    38    1
    23    37    39   ar
    24     2     5    1
    25     5     6   ar
    26     6     7   ar
    27     7     8   ar
    28     8    12    1
    29    12    13    1
    30    13    14    1
    31    14    15    1
    32    15    18    1
    33    18    19   ar
    34    19    20   ar
    35    20    21   ar
    36    21    24    1
    37    24    25    1
    38    24    26    1
    39    24    27    1
    40    21    22   ar
    41    22    23   ar
    42    15    16    1
    43    16    17    1
    44     8     9   ar
    45     9    10   ar
    46    10    11    1
    47    50    42   ar
    48    39    33   ar
    49    10     5   ar
    50    50    45   ar
    51    17    12    1
    52    23    18   ar
    53     3     4    1
    54    44    51    1
    55    31    32    1
    56    38    40    1
@<TRIPOS>MOLECULE
*****
 51 56 0 0 0
SMALL
GASTEIGER

@<TRIPOS>ATOM
      1 O          59.7326   87.2574   12.0743 O.2     1  UNL1       -0.2701
      2 C          60.7224   87.6903   11.4225 C.2     1  UNL1        0.2483
      3 N          62.0515   87.5129   11.9394 N.am    1  UNL1       -0.2945
      4 H          62.8498   87.6175   11.2748 H       1  UNL1        0.1501
      5 C          60.4974   88.3358   10.1090 C.ar    1  UNL1        0.0808
      6 C          59.9771   87.5798    9.0450 C.ar    1  UNL1        0.0080
      7 C          59.7668   88.1646    7.7938 C.ar    1  UNL1        0.0148
      8 C          60.0619   89.5193    7.5839 C.ar    1  UNL1        0.0502
      9 C          60.5673   90.2819    8.6487 C.ar    1  UNL1        0.0443
     10 C          60.7793   89.7003    9.9027 C.ar    1  UNL1        0.1457
     11 F          61.2091   90.4870   10.9203 F       1  UNL1       -0.2040
     12 N          59.8472   90.1149    6.2904 N.pl3   1  UNL1       -0.3040
     13 C          58.4881   90.3905    5.8121 C.3     1  UNL1        0.1123
     14 C          58.4547   91.7136    5.0425 C.3     1  UNL1        0.1136
     15 N          59.5627   91.7778    4.0782 N.pl3   1  UNL1       -0.2897
     16 C          60.9174   91.4871    4.5656 C.3     1  UNL1        0.1136
     17 C          60.9354   90.1526    5.3078 C.3     1  UNL1        0.1123
     18 C          59.3890   92.3813    2.7801 C.ar    1  UNL1        0.1318
     19 C          60.1530   93.4905    2.3818 C.ar    1  UNL1        0.0343
     20 C          59.9565   94.0444    1.1159 C.ar    1  UNL1        0.0083
     21 C          59.0187   93.4832    0.2363 C.ar    1  UNL1        0.0906
     22 C          58.2633   92.3863    0.6789 C.ar    1  UNL1        0.1041
     23 N          58.4703   91.8657    1.9172 N.ar    1  UNL1       -0.2292
     24 C          58.7618   94.1020   -1.1141 C.3     1  UNL1        0.4200
     25 F          58.5872   93.1214   -2.0752 F       1  UNL1       -0.1658
     26 F          57.6214   94.8859   -1.0831 F       1  UNL1       -0.1658
     27 F          59.8413   94.8907   -1.4660 F       1  UNL1       -0.1658
     28 C          62.3033   86.8788   13.2396 C.3     1  UNL1        0.1535
     29 C          62.3846   85.3784   13.0977 C.2     1  UNL1        0.2443
     30 O          63.0995   84.8704   12.1907 O.2     1  UNL1       -0.2730
     31 N          61.6402   84.5386   13.9949 N.am    1  UNL1       -0.2825
     32 H          60.8838   84.9859   14.5607 H       1  UNL1        0.1549
     33 C          61.7935   83.1113   14.0868 C.ar    1  UNL1        0.0539
     34 C          60.9567   82.2306   13.3795 C.ar    1  UNL1        0.0354
     35 C          61.1638   80.8528   13.4806 C.ar    1  UNL1        0.1007
     36 N          62.1762   80.3689   14.2470 N.ar    1  UNL1       -0.2378
     37 C          63.0125   81.1960   14.9279 C.ar    1  UNL1        0.1043
     38 S          64.3326   80.5036   15.9146 S.3     1  UNL1       -0.1227
     39 C          62.8412   82.5816   14.8526 C.ar    1  UNL1        0.0399
     40 H          63.5145   80.4364   17.0578 H       1  UNL1        0.1086
     41 C          63.5679   87.4581   13.9072 C.3     1  UNL1        0.0569
     42 C          63.2792   88.5790   14.8696 C.ar    1  UNL1       -0.0017
     43 C          62.2145   88.6478   15.7640 C.ar    1  UNL1        0.0681
     44 N          62.2889   89.7779   16.5028 N.ar    1  UNL1       -0.3523
     45 C          63.3896   90.4248   16.0821 C.ar    1  UNL1        0.0563
     46 C          63.8851   91.6409   16.5507 C.ar    1  UNL1        0.0170
     47 C          65.0623   92.1410   15.9649 C.ar    1  UNL1        0.0015
     48 C          65.7085   91.4245   14.9333 C.ar    1  UNL1        0.0001
     49 C          65.1841   90.2010   14.4790 C.ar    1  UNL1        0.0012
     50 C          64.0196   89.7264   15.0836 C.ar    1  UNL1        0.0131
     51 H          61.6245   90.0816   17.2489 H       1  UNL1        0.1660
@<TRIPOS>BOND
     1     1     2    2
     2     2     3   am
     3     3    28    1
     4    28    41    1
     5    41    42    1
     6    42    43   ar
     7    43    44   ar
     8    44    45   ar
     9    45    46   ar
    10    46    47   ar
    11    47    48   ar
    12    48    49   ar
    13    49    50   ar
    14    28    29    1
    15    29    30    2
    16    29    31   am
    17    31    33    1
    18    33    34   ar
    19    34    35   ar
    20    35    36   ar
    21    36    37   ar
    22    37    38    1
    23    37    39   ar
    24     2     5    1
    25     5     6   ar
    26     6     7   ar
    27     7     8   ar
    28     8    12    1
    29    12    13    1
    30    13    14    1
    31    14    15    1
    32    15    18    1
    33    18    19   ar
    34    19    20   ar
    35    20    21   ar
    36    21    24    1
    37    24    25    1
    38    24    26    1
    39    24    27    1
    40    21    22   ar
    41    22    23   ar
    42    15    16    1
    43    16    17    1
    44     8     9   ar
    45     9    10   ar
    46    10    11    1
    47    50    42   ar
    48    39    33   ar
    49    10     5   ar
    50    50    45   ar
    51    17    12    1
    52    23    18   ar
    53     3     4    1
    54    44    51    1
    55    31    32    1
    56    38    40    1
