@<TRIPOS>MOLECULE
*****
 48 54 0 0 0
SMALL
GASTEIGER

@<TRIPOS>ATOM
      1 N          63.6337   88.3459   13.4982 N.am    1  UNL1       -0.0905
      2 C          64.4917   88.5549   14.5570 C.2     1  UNL1        0.4229
      3 O          64.7580   87.6249   15.3689 O.2     1  UNL1       -0.2135
      4 C          65.0577   89.8056   14.7846 C.2     1  UNL1        0.1157
      5 C          64.7034   90.8751   13.9829 C.2     1  UNL1        0.0173
      6 C          63.8445   90.6793   12.9024 C.ar    1  UNL1        0.0828
      7 C          63.4321   91.7804   12.1477 C.ar    1  UNL1        0.1047
      8 N          62.5922   91.6148   11.1026 N.ar    1  UNL1       -0.2434
      9 C          62.1802   90.3894   10.6978 C.ar    1  UNL1        0.0870
     10 C          61.3469   90.2993    9.5797 C.ar    1  UNL1        0.0193
     11 C          60.9723   89.0568    9.0782 C.ar    1  UNL1        0.0016
     12 C          61.4839   87.8830    9.6457 C.ar    1  UNL1        0.0018
     13 C          62.3499   87.9764   10.7504 C.ar    1  UNL1        0.0075
     14 C          62.6223   89.2191   11.3724 C.ar    1  UNL1        0.0810
     15 C          63.3736   89.3729   12.5922 C.ar    1  UNL1        0.2297
     16 C          61.0835   86.5570    9.1100 C.ar    1  UNL1        0.0192
     17 C          61.9102   85.8830    8.1941 C.ar    1  UNL1        0.0988
     18 N          61.5212   84.6977    7.6559 N.ar    1  UNL1       -0.2438
     19 C          60.3363   84.1176    7.9792 C.ar    1  UNL1        0.0810
     20 C          59.9591   82.9141    7.3749 C.ar    1  UNL1        0.0148
     21 C          58.7157   82.3276    7.6698 C.ar    1  UNL1       -0.0210
     22 C          57.8632   82.9603    8.5958 C.ar    1  UNL1       -0.0042
     23 C          58.2428   84.1559    9.2123 C.ar    1  UNL1        0.0012
     24 C          59.4759   84.7444    8.9034 C.ar    1  UNL1        0.0177
     25 C          59.8591   85.9675    9.4681 C.ar    1  UNL1        0.0030
     26 C          58.3021   81.0436    6.9753 C.3     1  UNL1        0.0224
     27 C          59.5276   80.2624    6.4863 C.3     1  UNL1        0.0047
     28 C          57.3302   81.3244    5.8229 C.3     1  UNL1        0.0047
     29 C          61.3823   84.7287   13.3882 C.ar    1  UNL1        0.0522
     30 C          61.0441   85.7552   14.2842 C.ar    1  UNL1        0.0206
     31 C          61.8061   86.9210   14.3531 C.ar    1  UNL1        0.0703
     32 C          62.8995   87.1003   13.4962 C.ar    1  UNL1        0.2271
     33 C          63.2668   86.0636   12.6234 C.ar    1  UNL1        0.0742
     34 C          62.5422   84.8583   12.5808 C.ar    1  UNL1        0.0906
     35 C          58.8368   80.0990   11.5105 C.2     1  UNL1        0.2257
     36 O          57.5990   80.0123   11.2775 O.2     1  UNL1       -0.2749
     37 N          59.3501   81.2465   12.2235 N.am    1  UNL1       -0.2760
     38 C          60.6891   81.1910   12.8345 C.3     1  UNL1        0.1148
     39 C          60.8894   82.3101   13.8543 C.3     1  UNL1        0.1123
     40 N          60.5037   83.5958   13.2673 N.pl3   1  UNL1       -0.3041
     41 C          59.2718   83.7088   12.4756 C.3     1  UNL1        0.1123
     42 C          58.4713   82.3991   12.4858 C.3     1  UNL1        0.1148
     43 C          60.9545   79.4358   10.2966 C.3     1  UNL1        0.0101
     44 C          59.7461   78.9627   11.1029 C.3     1  UNL1        0.0853
     45 C          62.9885   83.7654   11.6313 C.3     1  UNL1        0.4199
     46 F          64.0075   84.2134   10.8077 F       1  UNL1       -0.1658
     47 F          61.9232   83.3764   10.8409 F       1  UNL1       -0.1658
     48 F          63.4680   82.6718   12.3298 F       1  UNL1       -0.1658
@<TRIPOS>BOND
     1    43    44    1
     2    44    35    1
     3    35    36    2
     4    35    37   am
     5    37    38    1
     6    38    39    1
     7    39    40    1
     8    40    29    1
     9    29    30   ar
    10    30    31   ar
    11    31    32   ar
    12    32     1    1
    13     1     2    1
    14     2     3    2
    15     2     4    1
    16     4     5    2
    17     5     6    1
    18     6     7   ar
    19     7     8   ar
    20     8     9   ar
    21     9    10   ar
    22    10    11   ar
    23    11    12   ar
    24    12    16    1
    25    16    17   ar
    26    17    18   ar
    27    18    19   ar
    28    19    20   ar
    29    20    21   ar
    30    21    26    1
    31    26    27    1
    32    26    28    1
    33    21    22   ar
    34    22    23   ar
    35    23    24   ar
    36    24    25   ar
    37    12    13   ar
    38    13    14   ar
    39    14    15   ar
    40    32    33   ar
    41    33    34   ar
    42    34    45    1
    43    45    46    1
    44    45    47    1
    45    45    48    1
    46    40    41    1
    47    41    42    1
    48    42    37    1
    49    34    29   ar
    50    15     1    1
    51    15     6   ar
    52    14     9   ar
    53    25    16   ar
    54    24    19   ar
@<TRIPOS>MOLECULE
*****
 48 54 0 0 0
SMALL
GASTEIGER

@<TRIPOS>ATOM
      1 N          62.6840   88.5425   14.6679 N.am    1  UNL1       -0.0905
      2 C          63.0611   88.5370   15.9941 C.2     1  UNL1        0.4229
      3 O          62.7547   87.5736   16.7511 O.2     1  UNL1       -0.2135
      4 C          63.7550   89.6094   16.5462 C.2     1  UNL1        0.1157
      5 C          64.0111   90.7297   15.7772 C.2     1  UNL1        0.0173
      6 C          63.6451   90.7481   14.4321 C.ar    1  UNL1        0.0828
      7 C          63.8381   91.9136   13.6863 C.ar    1  UNL1        0.1047
      8 N          63.4814   91.9568   12.3840 N.ar    1  UNL1       -0.2434
      9 C          63.0014   90.8700   11.7331 C.ar    1  UNL1        0.0870
     10 C          62.6974   90.9842   10.3740 C.ar    1  UNL1        0.0193
     11 C          62.2859   89.8711    9.6478 C.ar    1  UNL1        0.0016
     12 C          62.2402   88.6097   10.2547 C.ar    1  UNL1        0.0018
     13 C          62.5792   88.4904   11.6148 C.ar    1  UNL1        0.0075
     14 C          62.8515   89.6296   12.4108 C.ar    1  UNL1        0.0810
     15 C          63.0562   89.5978   13.8367 C.ar    1  UNL1        0.2297
     16 C          61.8006   87.4219    9.4790 C.ar    1  UNL1        0.0192
     17 C          61.0783   87.5831    8.2837 C.ar    1  UNL1        0.0988
     18 N          60.6228   86.5002    7.6013 N.ar    1  UNL1       -0.2438
     19 C          60.8473   85.2326    8.0348 C.ar    1  UNL1        0.0810
     20 C          60.3301   84.1473    7.3203 C.ar    1  UNL1        0.0148
     21 C          60.5197   82.8335    7.7838 C.ar    1  UNL1       -0.0210
     22 C          61.2531   82.6250    8.9684 C.ar    1  UNL1       -0.0042
     23 C          61.7834   83.7064    9.6777 C.ar    1  UNL1        0.0012
     24 C          61.5785   85.0144    9.2202 C.ar    1  UNL1        0.0177
     25 C          62.0553   86.1185    9.9382 C.ar    1  UNL1        0.0030
     26 C          59.9174   81.6686    7.0206 C.3     1  UNL1        0.0224
     27 C          58.4087   81.8597    6.8244 C.3     1  UNL1        0.0047
     28 C          60.2197   80.3351    7.7146 C.3     1  UNL1        0.0047
     29 C          59.9693   85.5484   13.3148 C.ar    1  UNL1        0.0522
     30 C          59.5379   86.8700   13.5102 C.ar    1  UNL1        0.0206
     31 C          60.4130   87.8412   13.9953 C.ar    1  UNL1        0.0703
     32 C          61.7507   87.5178   14.2561 C.ar    1  UNL1        0.2271
     33 C          62.1808   86.1904   14.0989 C.ar    1  UNL1        0.0742
     34 C          61.2964   85.1865   13.6636 C.ar    1  UNL1        0.0906
     35 C          57.8873   81.0452   10.7020 C.2     1  UNL1        0.2257
     36 O          57.2203   81.0891    9.6310 O.2     1  UNL1       -0.2749
     37 N          58.1614   82.2676   11.4226 N.am    1  UNL1       -0.2760
     38 C          58.5859   82.2084   12.8317 C.3     1  UNL1        0.1148
     39 C          58.4428   83.5640   13.5203 C.3     1  UNL1        0.1123
     40 N          59.0683   84.6075   12.7040 N.pl3   1  UNL1       -0.3041
     41 C          58.8553   84.6387   11.2512 C.3     1  UNL1        0.1123
     42 C          57.8505   83.5678   10.8041 C.3     1  UNL1        0.1148
     43 C          59.8374   79.5161   11.2088 C.3     1  UNL1        0.0101
     44 C          58.3217   79.7041   11.2469 C.3     1  UNL1        0.0853
     45 C          61.8071   83.7670   13.5239 C.3     1  UNL1        0.4199
     46 F          61.2908   82.9567   14.5209 F       1  UNL1       -0.1658
     47 F          63.1859   83.7602   13.6217 F       1  UNL1       -0.1658
     48 F          61.4282   83.2249   12.3088 F       1  UNL1       -0.1658
@<TRIPOS>BOND
     1    43    44    1
     2    44    35    1
     3    35    36    2
     4    35    37   am
     5    37    38    1
     6    38    39    1
     7    39    40    1
     8    40    29    1
     9    29    30   ar
    10    30    31   ar
    11    31    32   ar
    12    32     1    1
    13     1     2    1
    14     2     3    2
    15     2     4    1
    16     4     5    2
    17     5     6    1
    18     6     7   ar
    19     7     8   ar
    20     8     9   ar
    21     9    10   ar
    22    10    11   ar
    23    11    12   ar
    24    12    16    1
    25    16    17   ar
    26    17    18   ar
    27    18    19   ar
    28    19    20   ar
    29    20    21   ar
    30    21    26    1
    31    26    27    1
    32    26    28    1
    33    21    22   ar
    34    22    23   ar
    35    23    24   ar
    36    24    25   ar
    37    12    13   ar
    38    13    14   ar
    39    14    15   ar
    40    32    33   ar
    41    33    34   ar
    42    34    45    1
    43    45    46    1
    44    45    47    1
    45    45    48    1
    46    40    41    1
    47    41    42    1
    48    42    37    1
    49    34    29   ar
    50    15     1    1
    51    15     6   ar
    52    14     9   ar
    53    25    16   ar
    54    24    19   ar
@<TRIPOS>MOLECULE
*****
 48 54 0 0 0
SMALL
GASTEIGER

@<TRIPOS>ATOM
      1 N          59.2167   81.8728   11.4174 N.am    1  UNL1       -0.0905
      2 C          58.6507   80.9051   12.2200 C.2     1  UNL1        0.4229
      3 O          58.7790   80.9481   13.4757 O.2     1  UNL1       -0.2135
      4 C          57.9561   79.8329   11.6684 C.2     1  UNL1        0.1157
      5 C          57.8895   79.6926   10.2945 C.2     1  UNL1        0.0173
      6 C          58.4482   80.6667    9.4683 C.ar    1  UNL1        0.0828
      7 C          58.4437   80.4751    8.0844 C.ar    1  UNL1        0.1047
      8 N          58.9886   81.4014    7.2658 N.ar    1  UNL1       -0.2434
      9 C          59.4854   82.5717    7.7336 C.ar    1  UNL1        0.0870
     10 C          59.9912   83.4977    6.8174 C.ar    1  UNL1        0.0193
     11 C          60.4298   84.7463    7.2466 C.ar    1  UNL1        0.0016
     12 C          60.3029   85.1152    8.5917 C.ar    1  UNL1        0.0018
     13 C          59.7620   84.1942    9.5072 C.ar    1  UNL1        0.0075
     14 C          59.4525   82.8665    9.1237 C.ar    1  UNL1        0.0810
     15 C          59.0403   81.8297   10.0353 C.ar    1  UNL1        0.2297
     16 C          60.7714   86.4482    9.0491 C.ar    1  UNL1        0.0192
     17 C          60.4901   87.5977    8.2901 C.ar    1  UNL1        0.0988
     18 N          60.9665   88.8111    8.6729 N.ar    1  UNL1       -0.2438
     19 C          61.7197   88.9652    9.7928 C.ar    1  UNL1        0.0810
     20 C          62.2195   90.2268   10.1312 C.ar    1  UNL1        0.0148
     21 C          63.0360   90.3895   11.2642 C.ar    1  UNL1       -0.0210
     22 C          63.3288   89.2669   12.0635 C.ar    1  UNL1       -0.0042
     23 C          62.8195   88.0070   11.7362 C.ar    1  UNL1        0.0012
     24 C          62.0193   87.8472   10.5976 C.ar    1  UNL1        0.0177
     25 C          61.5379   86.5877   10.2186 C.ar    1  UNL1        0.0030
     26 C          63.6051   91.7563   11.5956 C.3     1  UNL1        0.0224
     27 C          64.3970   92.3250   10.4121 C.3     1  UNL1        0.0047
     28 C          64.4663   91.7061   12.8634 C.3     1  UNL1        0.0047
     29 C          61.8531   84.5450   13.4358 C.ar    1  UNL1        0.0522
     30 C          60.6089   84.9895   12.9612 C.ar    1  UNL1        0.0206
     31 C          59.7639   84.1287   12.2615 C.ar    1  UNL1        0.0703
     32 C          60.1303   82.7922   12.0582 C.ar    1  UNL1        0.2271
     33 C          61.3885   82.3494   12.4968 C.ar    1  UNL1        0.0742
     34 C          62.2764   83.2199   13.1553 C.ar    1  UNL1        0.0906
     35 C          64.0986   89.1443   15.7259 C.2     1  UNL1        0.2257
     36 O          65.3348   89.3997   15.7427 O.2     1  UNL1       -0.2749
     37 N          63.6473   87.8270   15.3389 N.am    1  UNL1       -0.2760
     38 C          62.2806   87.3923   15.6746 C.3     1  UNL1        0.1148
     39 C          62.1240   85.8786   15.5473 C.3     1  UNL1        0.1123
     40 N          62.6410   85.4301   14.2519 N.pl3   1  UNL1       -0.3041
     41 C          63.9143   85.9541   13.7409 C.3     1  UNL1        0.1123
     42 C          64.6038   86.8636   14.7673 C.3     1  UNL1        0.1148
     43 C          63.8010   91.5252   16.5260 C.3     1  UNL1        0.0101
     44 C          63.1200   90.2013   16.1833 C.3     1  UNL1        0.0853
     45 C          63.6280   82.6960   13.5959 C.3     1  UNL1        0.4199
     46 F          63.7295   81.3350   13.3624 F       1  UNL1       -0.1658
     47 F          63.7929   82.9235   14.9494 F       1  UNL1       -0.1658
     48 F          64.6480   83.3157   12.8964 F       1  UNL1       -0.1658
@<TRIPOS>BOND
     1    43    44    1
     2    44    35    1
     3    35    36    2
     4    35    37   am
     5    37    38    1
     6    38    39    1
     7    39    40    1
     8    40    29    1
     9    29    30   ar
    10    30    31   ar
    11    31    32   ar
    12    32     1    1
    13     1     2    1
    14     2     3    2
    15     2     4    1
    16     4     5    2
    17     5     6    1
    18     6     7   ar
    19     7     8   ar
    20     8     9   ar
    21     9    10   ar
    22    10    11   ar
    23    11    12   ar
    24    12    16    1
    25    16    17   ar
    26    17    18   ar
    27    18    19   ar
    28    19    20   ar
    29    20    21   ar
    30    21    26    1
    31    26    27    1
    32    26    28    1
    33    21    22   ar
    34    22    23   ar
    35    23    24   ar
    36    24    25   ar
    37    12    13   ar
    38    13    14   ar
    39    14    15   ar
    40    32    33   ar
    41    33    34   ar
    42    34    45    1
    43    45    46    1
    44    45    47    1
    45    45    48    1
    46    40    41    1
    47    41    42    1
    48    42    37    1
    49    34    29   ar
    50    15     1    1
    51    15     6   ar
    52    14     9   ar
    53    25    16   ar
    54    24    19   ar
@<TRIPOS>MOLECULE
*****
 48 54 0 0 0
SMALL
GASTEIGER

@<TRIPOS>ATOM
      1 N          59.0043   82.4238    8.6548 N.am    1  UNL1       -0.0905
      2 C          58.6986   82.0682    7.3582 C.2     1  UNL1        0.4229
      3 O          58.8815   82.8756    6.4044 O.2     1  UNL1       -0.2135
      4 C          58.1436   80.8256    7.0678 C.2     1  UNL1        0.1157
      5 C          57.8265   79.9585    8.0971 C.2     1  UNL1        0.0173
      6 C          58.1374   80.2983    9.4130 C.ar    1  UNL1        0.0828
      7 C          57.7419   79.4503   10.4505 C.ar    1  UNL1        0.1047
      8 N          58.0238   79.7651   11.7337 N.ar    1  UNL1       -0.2434
      9 C          58.7560   80.8564   12.0625 C.ar    1  UNL1        0.0870
     10 C          59.0428   81.0884   13.4103 C.ar    1  UNL1        0.0193
     11 C          59.8643   82.1472   13.7840 C.ar    1  UNL1        0.0016
     12 C          60.4701   82.9491   12.8085 C.ar    1  UNL1        0.0018
     13 C          60.2072   82.6932   11.4504 C.ar    1  UNL1        0.0075
     14 C          59.2566   81.7219   11.0523 C.ar    1  UNL1        0.0810
     15 C          58.8265   81.5112    9.6934 C.ar    1  UNL1        0.2297
     16 C          61.3467   84.0794   13.2080 C.ar    1  UNL1        0.0192
     17 C          62.7447   83.9304   13.1985 C.ar    1  UNL1        0.0988
     18 N          63.5493   84.9410   13.6193 N.ar    1  UNL1       -0.2438
     19 C          63.0456   86.1246   14.0556 C.ar    1  UNL1        0.0810
     20 C          63.9084   87.1256   14.5132 C.ar    1  UNL1        0.0148
     21 C          63.3953   88.3377   15.0075 C.ar    1  UNL1       -0.0210
     22 C          62.0006   88.5363   15.0188 C.ar    1  UNL1       -0.0042
     23 C          61.1357   87.5437   14.5493 C.ar    1  UNL1        0.0012
     24 C          61.6512   86.3316   14.0723 C.ar    1  UNL1        0.0177
     25 C          60.8054   85.3009   13.6433 C.ar    1  UNL1        0.0030
     26 C          64.3414   89.3980   15.5392 C.3     1  UNL1        0.0224
     27 C          63.6251   90.3334   16.5206 C.3     1  UNL1        0.0047
     28 C          64.9883   90.1882   14.3952 C.3     1  UNL1        0.0047
     29 C          59.9489   86.4972    9.4793 C.ar    1  UNL1        0.0522
     30 C          58.6173   86.0960    9.2876 C.ar    1  UNL1        0.0206
     31 C          58.3097   84.7727    8.9737 C.ar    1  UNL1        0.0703
     32 C          59.3272   83.8141    8.8857 C.ar    1  UNL1        0.2271
     33 C          60.6643   84.2142    9.0391 C.ar    1  UNL1        0.0742
     34 C          60.9960   85.5562    9.3009 C.ar    1  UNL1        0.0906
     35 C          62.5424   91.1586   11.2069 C.2     1  UNL1        0.2257
     36 O          62.2755   91.7646   12.2819 O.2     1  UNL1       -0.2749
     37 N          61.6557   90.1200   10.7341 N.am    1  UNL1       -0.2760
     38 C          61.7264   89.6785    9.3307 C.3     1  UNL1        0.1148
     39 C          60.4839   88.8883    8.9257 C.3     1  UNL1        0.1123
     40 N          60.2123   87.8428    9.9154 N.pl3   1  UNL1       -0.3041
     41 C          60.3017   88.1404   11.3509 C.3     1  UNL1        0.1123
     42 C          60.5722   89.6301   11.6035 C.3     1  UNL1        0.1148
     43 C          64.8463   92.2013   11.2611 C.3     1  UNL1        0.0101
     44 C          63.7462   91.5846   10.3986 C.3     1  UNL1        0.0853
     45 C          62.4551   85.9383    9.4440 C.3     1  UNL1        0.4199
     46 F          63.2703   84.8254    9.3254 F       1  UNL1       -0.1658
     47 F          62.6643   86.5063   10.6868 F       1  UNL1       -0.1658
     48 F          62.8281   86.8347    8.4585 F       1  UNL1       -0.1658
@<TRIPOS>BOND
     1    43    44    1
     2    44    35    1
     3    35    36    2
     4    35    37   am
     5    37    38    1
     6    38    39    1
     7    39    40    1
     8    40    29    1
     9    29    30   ar
    10    30    31   ar
    11    31    32   ar
    12    32     1    1
    13     1     2    1
    14     2     3    2
    15     2     4    1
    16     4     5    2
    17     5     6    1
    18     6     7   ar
    19     7     8   ar
    20     8     9   ar
    21     9    10   ar
    22    10    11   ar
    23    11    12   ar
    24    12    16    1
    25    16    17   ar
    26    17    18   ar
    27    18    19   ar
    28    19    20   ar
    29    20    21   ar
    30    21    26    1
    31    26    27    1
    32    26    28    1
    33    21    22   ar
    34    22    23   ar
    35    23    24   ar
    36    24    25   ar
    37    12    13   ar
    38    13    14   ar
    39    14    15   ar
    40    32    33   ar
    41    33    34   ar
    42    34    45    1
    43    45    46    1
    44    45    47    1
    45    45    48    1
    46    40    41    1
    47    41    42    1
    48    42    37    1
    49    34    29   ar
    50    15     1    1
    51    15     6   ar
    52    14     9   ar
    53    25    16   ar
    54    24    19   ar
@<TRIPOS>MOLECULE
*****
 48 54 0 0 0
SMALL
GASTEIGER

@<TRIPOS>ATOM
      1 N          63.9589   89.4785   13.8568 N.am    1  UNL1       -0.0905
      2 C          64.6667   89.5610   15.0372 C.2     1  UNL1        0.4229
      3 O          64.5891   88.6465   15.9047 O.2     1  UNL1       -0.2135
      4 C          65.4551   90.6712   15.3239 C.2     1  UNL1        0.1157
      5 C          65.4774   91.7412   14.4484 C.2     1  UNL1        0.0173
      6 C          64.7751   91.6705   13.2461 C.ar    1  UNL1        0.0828
      7 C          64.7413   92.7867   12.4066 C.ar    1  UNL1        0.1047
      8 N          64.0586   92.7435   11.2417 N.ar    1  UNL1       -0.2434
      9 C          63.4516   91.6139   10.8050 C.ar    1  UNL1        0.0870
     10 C          62.8033   91.6383    9.5673 C.ar    1  UNL1        0.0193
     11 C          62.2435   90.4780    9.0420 C.ar    1  UNL1        0.0016
     12 C          62.3856   89.2581    9.7151 C.ar    1  UNL1        0.0018
     13 C          63.0681   89.2290   10.9449 C.ar    1  UNL1        0.0075
     14 C          63.5109   90.4189   11.5723 C.ar    1  UNL1        0.0810
     15 C          64.0787   90.4804   12.8951 C.ar    1  UNL1        0.2297
     16 C          61.7876   88.0199    9.1538 C.ar    1  UNL1        0.0192
     17 C          60.6171   88.0863    8.3778 C.ar    1  UNL1        0.0988
     18 N          60.0330   86.9518    7.9115 N.ar    1  UNL1       -0.2438
     19 C          60.5503   85.7219    8.1661 C.ar    1  UNL1        0.0810
     20 C          59.8973   84.5778    7.6964 C.ar    1  UNL1        0.0148
     21 C          60.4005   83.2985    7.9912 C.ar    1  UNL1       -0.0210
     22 C          61.5813   83.1861    8.7512 C.ar    1  UNL1       -0.0042
     23 C          62.2444   84.3276    9.2105 C.ar    1  UNL1        0.0012
     24 C          61.7304   85.5997    8.9274 C.ar    1  UNL1        0.0177
     25 C          62.3466   86.7580    9.4178 C.ar    1  UNL1        0.0030
     26 C          59.6587   82.0654    7.5102 C.3     1  UNL1        0.0224
     27 C          58.1411   82.2749    7.5760 C.3     1  UNL1        0.0047
     28 C          60.0793   80.8211    8.3016 C.3     1  UNL1        0.0047
     29 C          61.0517   86.3898   13.4407 C.ar    1  UNL1        0.0522
     30 C          60.6592   87.7105   13.7101 C.ar    1  UNL1        0.0206
     31 C          61.6103   88.7141   13.8908 C.ar    1  UNL1        0.0703
     32 C          62.9746   88.4233   13.7647 C.ar    1  UNL1        0.2271
     33 C          63.3771   87.0983   13.5324 C.ar    1  UNL1        0.0742
     34 C          62.4323   86.0638   13.4031 C.ar    1  UNL1        0.0906
     35 C          58.4222   81.7729   11.6490 C.2     1  UNL1        0.2257
     36 O          57.4607   81.7740   10.8308 O.2     1  UNL1       -0.2749
     37 N          58.8622   83.0188   12.2346 N.am    1  UNL1       -0.2760
     38 C          59.6958   83.0040   13.4488 C.3     1  UNL1        0.1148
     39 C          59.7245   84.3711   14.1288 C.3     1  UNL1        0.1123
     40 N          60.0388   85.4113   13.1461 N.pl3   1  UNL1       -0.3041
     41 C          59.3942   85.4027   11.8264 C.3     1  UNL1        0.1123
     42 C          58.3364   84.2954   11.7213 C.3     1  UNL1        0.1148
     43 C          58.3952   79.2600   11.3626 C.3     1  UNL1        0.0101
     44 C          59.0445   80.4570   12.0552 C.3     1  UNL1        0.0853
     45 C          62.9194   84.6487   13.1672 C.3     1  UNL1        0.4199
     46 F          62.2891   84.0866   12.0699 F       1  UNL1       -0.1658
     47 F          62.6430   83.8736   14.2779 F       1  UNL1       -0.1658
     48 F          64.2803   84.6314   12.9197 F       1  UNL1       -0.1658
@<TRIPOS>BOND
     1    43    44    1
     2    44    35    1
     3    35    36    2
     4    35    37   am
     5    37    38    1
     6    38    39    1
     7    39    40    1
     8    40    29    1
     9    29    30   ar
    10    30    31   ar
    11    31    32   ar
    12    32     1    1
    13     1     2    1
    14     2     3    2
    15     2     4    1
    16     4     5    2
    17     5     6    1
    18     6     7   ar
    19     7     8   ar
    20     8     9   ar
    21     9    10   ar
    22    10    11   ar
    23    11    12   ar
    24    12    16    1
    25    16    17   ar
    26    17    18   ar
    27    18    19   ar
    28    19    20   ar
    29    20    21   ar
    30    21    26    1
    31    26    27    1
    32    26    28    1
    33    21    22   ar
    34    22    23   ar
    35    23    24   ar
    36    24    25   ar
    37    12    13   ar
    38    13    14   ar
    39    14    15   ar
    40    32    33   ar
    41    33    34   ar
    42    34    45    1
    43    45    46    1
    44    45    47    1
    45    45    48    1
    46    40    41    1
    47    41    42    1
    48    42    37    1
    49    34    29   ar
    50    15     1    1
    51    15     6   ar
    52    14     9   ar
    53    25    16   ar
    54    24    19   ar
@<TRIPOS>MOLECULE
*****
 48 54 0 0 0
SMALL
GASTEIGER

@<TRIPOS>ATOM
      1 N          61.8595   81.1509   10.8601 N.am    1  UNL1       -0.0905
      2 C          61.7296   80.0803   10.0011 C.2     1  UNL1        0.4229
      3 O          61.3466   80.2482    8.8094 O.2     1  UNL1       -0.2135
      4 C          61.9784   78.7810   10.4327 C.2     1  UNL1        0.1157
      5 C          62.2920   78.5469   11.7589 C.2     1  UNL1        0.0173
      6 C          62.4365   79.6187   12.6387 C.ar    1  UNL1        0.0828
      7 C          62.6760   79.3659   13.9918 C.ar    1  UNL1        0.1047
      8 N          62.8093   80.3893   14.8636 N.ar    1  UNL1       -0.2434
      9 C          62.7947   81.6830   14.4620 C.ar    1  UNL1        0.0870
     10 C          62.9842   82.6830   15.4195 C.ar    1  UNL1        0.0193
     11 C          63.0639   84.0184   15.0376 C.ar    1  UNL1        0.0016
     12 C          63.0263   84.3685   13.6820 C.ar    1  UNL1        0.0018
     13 C          62.8694   83.3573   12.7168 C.ar    1  UNL1        0.0075
     14 C          62.6323   82.0116   13.0887 C.ar    1  UNL1        0.0810
     15 C          62.3133   80.9542   12.1634 C.ar    1  UNL1        0.2297
     16 C          63.1113   85.7943   13.2751 C.ar    1  UNL1        0.0192
     17 C          62.6240   86.2045   12.0218 C.ar    1  UNL1        0.0988
     18 N          62.7525   87.4960   11.6203 N.ar    1  UNL1       -0.2438
     19 C          63.3437   88.4352   12.4036 C.ar    1  UNL1        0.0810
     20 C          63.4869   89.7457   11.9368 C.ar    1  UNL1        0.0148
     21 C          64.1360   90.7149   12.7218 C.ar    1  UNL1       -0.0210
     22 C          64.6242   90.3515   13.9923 C.ar    1  UNL1       -0.0042
     23 C          64.4706   89.0462   14.4680 C.ar    1  UNL1        0.0012
     24 C          63.8370   88.0802   13.6756 C.ar    1  UNL1        0.0177
     25 C          63.7146   86.7531   14.1066 C.ar    1  UNL1        0.0030
     26 C          64.3209   92.1220   12.1851 C.3     1  UNL1        0.0224
     27 C          64.2925   92.1350   10.6520 C.3     1  UNL1        0.0047
     28 C          65.6118   92.7542   12.7191 C.3     1  UNL1        0.0047
     29 C          60.3813   84.9490    9.6133 C.ar    1  UNL1        0.0522
     30 C          59.6641   84.1691   10.5344 C.ar    1  UNL1        0.0206
     31 C          60.1232   82.9071   10.9098 C.ar    1  UNL1        0.0703
     32 C          61.3326   82.4167   10.4011 C.ar    1  UNL1        0.2271
     33 C          62.0369   83.1740    9.4513 C.ar    1  UNL1        0.0742
     34 C          61.5589   84.4250    9.0197 C.ar    1  UNL1        0.0906
     35 C          59.6002   89.9537    7.2085 C.2     1  UNL1        0.2257
     36 O          59.8614   91.0577    7.7624 O.2     1  UNL1       -0.2749
     37 N          59.6004   88.7423    7.9966 N.am    1  UNL1       -0.2760
     38 C          58.9384   87.5320    7.4805 C.3     1  UNL1        0.1148
     39 C          58.6989   86.5062    8.5864 C.3     1  UNL1        0.1123
     40 N          59.9346   86.2898    9.3430 N.pl3   1  UNL1       -0.3041
     41 C          60.7676   87.4312    9.7434 C.3     1  UNL1        0.1123
     42 C          60.1071   88.7681    9.3795 C.3     1  UNL1        0.1148
     43 C          58.7504   91.2965    5.2406 C.3     1  UNL1        0.0101
     44 C          59.2196   89.9332    5.7461 C.3     1  UNL1        0.0853
     45 C          62.3495   85.1959    7.9824 C.3     1  UNL1        0.4199
     46 F          63.2802   84.3784    7.3638 F       1  UNL1       -0.1658
     47 F          63.0184   86.2401    8.5933 F       1  UNL1       -0.1658
     48 F          61.5149   85.6954    6.9986 F       1  UNL1       -0.1658
@<TRIPOS>BOND
     1    43    44    1
     2    44    35    1
     3    35    36    2
     4    35    37   am
     5    37    38    1
     6    38    39    1
     7    39    40    1
     8    40    29    1
     9    29    30   ar
    10    30    31   ar
    11    31    32   ar
    12    32     1    1
    13     1     2    1
    14     2     3    2
    15     2     4    1
    16     4     5    2
    17     5     6    1
    18     6     7   ar
    19     7     8   ar
    20     8     9   ar
    21     9    10   ar
    22    10    11   ar
    23    11    12   ar
    24    12    16    1
    25    16    17   ar
    26    17    18   ar
    27    18    19   ar
    28    19    20   ar
    29    20    21   ar
    30    21    26    1
    31    26    27    1
    32    26    28    1
    33    21    22   ar
    34    22    23   ar
    35    23    24   ar
    36    24    25   ar
    37    12    13   ar
    38    13    14   ar
    39    14    15   ar
    40    32    33   ar
    41    33    34   ar
    42    34    45    1
    43    45    46    1
    44    45    47    1
    45    45    48    1
    46    40    41    1
    47    41    42    1
    48    42    37    1
    49    34    29   ar
    50    15     1    1
    51    15     6   ar
    52    14     9   ar
    53    25    16   ar
    54    24    19   ar
@<TRIPOS>MOLECULE
*****
 48 54 0 0 0
SMALL
GASTEIGER

@<TRIPOS>ATOM
      1 N          63.0900   89.9677   11.1042 N.am    1  UNL1       -0.0905
      2 C          63.1469   91.1215   10.3516 C.2     1  UNL1        0.4229
      3 O          62.6722   91.1564    9.1818 O.2     1  UNL1       -0.2135
      4 C          63.7635   92.2680   10.8432 C.2     1  UNL1        0.1157
      5 C          64.3914   92.2349   12.0747 C.2     1  UNL1        0.0173
      6 C          64.3354   91.0794   12.8527 C.ar    1  UNL1        0.0828
      7 C          65.0390   91.0317   14.0587 C.ar    1  UNL1        0.1047
      8 N          65.0068   89.9185   14.8235 N.ar    1  UNL1       -0.2434
      9 C          64.2439   88.8463   14.5016 C.ar    1  UNL1        0.0870
     10 C          64.2303   87.7503   15.3684 C.ar    1  UNL1        0.0193
     11 C          63.3942   86.6663   15.1208 C.ar    1  UNL1        0.0016
     12 C          62.5053   86.6930   14.0388 C.ar    1  UNL1        0.0018
     13 C          62.4961   87.8120   13.1864 C.ar    1  UNL1        0.0075
     14 C          63.4423   88.8561   13.3279 C.ar    1  UNL1        0.0810
     15 C          63.5900   89.9530   12.4054 C.ar    1  UNL1        0.2297
     16 C          61.6131   85.5353   13.7750 C.ar    1  UNL1        0.0192
     17 C          60.2272   85.6459   13.9838 C.ar    1  UNL1        0.0988
     18 N          59.4139   84.5731   13.8007 N.ar    1  UNL1       -0.2438
     19 C          59.8968   83.3657   13.4080 C.ar    1  UNL1        0.0810
     20 C          59.0289   82.2783   13.2656 C.ar    1  UNL1        0.0148
     21 C          59.5246   81.0139   12.9017 C.ar    1  UNL1       -0.0210
     22 C          60.9051   80.8621   12.6655 C.ar    1  UNL1       -0.0042
     23 C          61.7736   81.9499   12.7932 C.ar    1  UNL1        0.0012
     24 C          61.2771   83.2041   13.1712 C.ar    1  UNL1        0.0177
     25 C          62.1316   84.2984   13.3556 C.ar    1  UNL1        0.0030
     26 C          58.5771   79.8339   12.7915 C.3     1  UNL1        0.0224
     27 C          58.9040   78.7650   13.8412 C.3     1  UNL1        0.0047
     28 C          58.5909   79.2416   11.3772 C.3     1  UNL1        0.0047
     29 C          61.9007   86.3494    9.1915 C.ar    1  UNL1        0.0522
     30 C          63.1606   86.9135    8.9357 C.ar    1  UNL1        0.0206
     31 C          63.5344   88.1203    9.5259 C.ar    1  UNL1        0.0703
     32 C          62.6690   88.7670   10.4174 C.ar    1  UNL1        0.2271
     33 C          61.3930   88.2291   10.6499 C.ar    1  UNL1        0.0742
     34 C          60.9789   87.0415   10.0192 C.ar    1  UNL1        0.0906
     35 C          59.3616   81.4855    8.0356 C.2     1  UNL1        0.2257
     36 O          59.8716   80.3496    8.2440 O.2     1  UNL1       -0.2749
     37 N          60.1878   82.6673    8.1328 N.am    1  UNL1       -0.2760
     38 C          59.7313   83.9323    7.5321 C.3     1  UNL1        0.1148
     39 C          60.8762   84.9326    7.3878 C.3     1  UNL1        0.1123
     40 N          61.6014   85.0481    8.6556 N.pl3   1  UNL1       -0.3041
     41 C          61.9393   83.8454    9.4279 C.3     1  UNL1        0.1123
     42 C          61.5530   82.5640    8.6762 C.3     1  UNL1        0.1148
     43 C          57.6597   80.9721    6.2363 C.3     1  UNL1        0.0101
     44 C          57.9129   81.5786    7.6155 C.3     1  UNL1        0.0853
     45 C          59.5866   86.5106   10.2930 C.3     1  UNL1        0.4199
     46 F          59.6320   85.1800   10.6732 F       1  UNL1       -0.1658
     47 F          58.8187   86.6150    9.1483 F       1  UNL1       -0.1658
     48 F          58.9837   87.2163   11.3189 F       1  UNL1       -0.1658
@<TRIPOS>BOND
     1    43    44    1
     2    44    35    1
     3    35    36    2
     4    35    37   am
     5    37    38    1
     6    38    39    1
     7    39    40    1
     8    40    29    1
     9    29    30   ar
    10    30    31   ar
    11    31    32   ar
    12    32     1    1
    13     1     2    1
    14     2     3    2
    15     2     4    1
    16     4     5    2
    17     5     6    1
    18     6     7   ar
    19     7     8   ar
    20     8     9   ar
    21     9    10   ar
    22    10    11   ar
    23    11    12   ar
    24    12    16    1
    25    16    17   ar
    26    17    18   ar
    27    18    19   ar
    28    19    20   ar
    29    20    21   ar
    30    21    26    1
    31    26    27    1
    32    26    28    1
    33    21    22   ar
    34    22    23   ar
    35    23    24   ar
    36    24    25   ar
    37    12    13   ar
    38    13    14   ar
    39    14    15   ar
    40    32    33   ar
    41    33    34   ar
    42    34    45    1
    43    45    46    1
    44    45    47    1
    45    45    48    1
    46    40    41    1
    47    41    42    1
    48    42    37    1
    49    34    29   ar
    50    15     1    1
    51    15     6   ar
    52    14     9   ar
    53    25    16   ar
    54    24    19   ar
