@<TRIPOS>MOLECULE
*****
 44 48 0 0 0
SMALL
GASTEIGER

@<TRIPOS>ATOM
      1 C          -7.3590  -16.5321   23.9653 C.3     1  UNL1        0.1890
      2 C          -8.8278  -16.1027   23.8014 C.3     1  UNL1        0.2176
      3 F          -9.0009  -14.7648   24.1308 F       1  UNL1       -0.2320
      4 C          -9.1627  -16.3518   22.3079 C.3     1  UNL1        0.1592
      5 O         -10.0170  -15.3542   21.7876 O.3     1  UNL1       -0.3781
      6 C          -7.7948  -16.2952   21.5879 C.3     1  UNL1        0.1293
      7 N          -6.8067  -16.5736   22.6158 N.am    1  UNL1       -0.2520
      8 C          -5.4408  -16.9212   22.3308 C.2     1  UNL1        0.3081
      9 O          -4.7886  -17.6007   23.1694 O.2     1  UNL1       -0.2522
     10 N          -4.7989  -16.4236   21.1449 N.am    1  UNL1       -0.2681
     11 H          -9.5643  -14.4727   21.8466 H       1  UNL1        0.2109
     12 H          -5.3170  -15.7244   20.5677 H       1  UNL1        0.1564
     13 C          -9.8425  -17.7264   22.1705 C.ar    1  UNL1        0.0336
     14 C         -10.0571  -18.5529   23.2990 C.ar    1  UNL1        0.0026
     15 C         -10.7202  -19.7764   23.1785 C.ar    1  UNL1        0.0295
     16 C         -11.2109  -20.1891   21.9412 C.ar    1  UNL1        0.1424
     17 F         -11.8584  -21.3750   21.8288 F       1  UNL1       -0.2041
     18 C         -11.0561  -19.3694   20.8240 C.ar    1  UNL1        0.0590
     19 C         -10.3943  -18.1419   20.9327 C.ar    1  UNL1        0.1407
     20 F         -10.3241  -17.3559   19.8286 F       1  UNL1       -0.2043
     21 C          -3.3994  -16.5981   20.8698 C.ar    1  UNL1        0.0516
     22 C          -2.4145  -16.1022   21.7420 C.ar    1  UNL1        0.0156
     23 C          -1.0590  -16.2995   21.4594 C.ar    1  UNL1        0.0127
     24 C          -0.6759  -17.0016   20.3123 C.ar    1  UNL1        0.0578
     25 CL          1.0243  -17.2521   19.9626 Cl      1  UNL1       -0.0822
     26 C          -1.6505  -17.5088   19.4476 C.ar    1  UNL1        0.0127
     27 C          -3.0059  -17.3160   19.7298 C.ar    1  UNL1        0.0156
     28 O          -5.8940  -14.6643   24.3109 O.2     1  UNL1       -0.2729
     29 C          -6.5662  -15.5906   24.8378 C.2     1  UNL1        0.2482
     30 N          -6.5462  -15.7709   26.2598 N.am    1  UNL1       -0.2679
     31 H          -6.3697  -16.7386   26.6124 H       1  UNL1        0.1563
     32 C          -7.1675  -14.8498   27.1712 C.ar    1  UNL1        0.1346
     33 C          -8.5244  -14.9527   27.5235 C.ar    1  UNL1        0.0406
     34 C          -9.0544  -14.0864   28.4799 C.ar    1  UNL1        0.0736
     35 C          -8.2414  -13.1158   29.0818 C.ar    1  UNL1        0.2466
     36 C          -6.8954  -13.0376   28.6945 C.ar    1  UNL1        0.1691
     37 N          -6.3992  -13.8956   27.7647 N.ar    1  UNL1       -0.2228
     38 N          -8.7699  -12.2442   30.1033 N.am    1  UNL1       -0.0841
     39 C         -10.1076  -12.3001   30.3908 C.2     1  UNL1        0.2905
     40 C         -10.6589  -11.4890   31.3839 C.2     1  UNL1        0.0758
     41 C          -9.8366  -10.6129   32.0866 C.2     1  UNL1        0.0161
     42 C          -8.4779  -10.5500   31.7860 C.2     1  UNL1        0.1156
     43 C          -7.9532  -11.3713   30.7820 C.2     1  UNL1        0.4230
     44 O          -6.7263  -11.2839   30.5011 O.2     1  UNL1       -0.2135
@<TRIPOS>BOND
     1    28    29    2
     2    29    30   am
     3    30    32    1
     4    32    33   ar
     5    33    34   ar
     6    34    35   ar
     7    35    38    1
     8    38    39    1
     9    39    40    2
    10    40    41    1
    11    41    42    2
    12    42    43    1
    13    43    44    2
    14    35    36   ar
    15    36    37   ar
    16    29     1    1
    17     1     2    1
    18     2     3    1
    19     2     4    1
    20     4     5    1
    21     4    13    1
    22    13    14   ar
    23    14    15   ar
    24    15    16   ar
    25    16    17    1
    26    16    18   ar
    27    18    19   ar
    28    19    20    1
    29     4     6    1
    30     6     7    1
    31     7     8   am
    32     8     9    2
    33     8    10   am
    34    10    21    1
    35    21    22   ar
    36    22    23   ar
    37    23    24   ar
    38    24    25    1
    39    24    26   ar
    40    26    27   ar
    41    37    32   ar
    42     7     1    1
    43    27    21   ar
    44    43    38    1
    45    19    13   ar
    46    30    31    1
    47     5    11    1
    48    10    12    1
@<TRIPOS>MOLECULE
*****
 44 48 0 0 0
SMALL
GASTEIGER

@<TRIPOS>ATOM
      1 C          -8.0742  -16.1186   23.1097 C.3     1  UNL1        0.1890
      2 C          -8.1533  -17.5203   22.4790 C.3     1  UNL1        0.2176
      3 F          -6.8936  -18.0940   22.3677 F       1  UNL1       -0.2320
      4 C          -9.0548  -18.3475   23.4319 C.3     1  UNL1        0.1592
      5 O          -8.6129  -19.6845   23.5443 O.3     1  UNL1       -0.3781
      6 C          -8.9271  -17.6386   24.8009 C.3     1  UNL1        0.1293
      7 N          -8.5000  -16.2842   24.4950 N.am    1  UNL1       -0.2520
      8 C          -8.5549  -15.2018   25.4401 C.2     1  UNL1        0.3081
      9 O          -8.6447  -14.0170   25.0176 O.2     1  UNL1       -0.2522
     10 N          -8.4184  -15.4610   26.8472 N.am    1  UNL1       -0.2681
     11 H          -7.6949  -19.6950   23.9218 H       1  UNL1        0.2109
     12 H          -8.1717  -16.4321   27.1417 H       1  UNL1        0.1564
     13 C         -10.4975  -18.3315   22.8944 C.ar    1  UNL1        0.0336
     14 C         -11.5618  -17.8127   23.6696 C.ar    1  UNL1        0.0026
     15 C         -12.8605  -17.7525   23.1589 C.ar    1  UNL1        0.0295
     16 C         -13.1226  -18.1770   21.8577 C.ar    1  UNL1        0.1424
     17 F         -14.3835  -18.1126   21.3636 F       1  UNL1       -0.2041
     18 C         -12.0819  -18.6455   21.0569 C.ar    1  UNL1        0.0590
     19 C         -10.7772  -18.7098   21.5573 C.ar    1  UNL1        0.1407
     20 F          -9.7919  -19.1163   20.7173 F       1  UNL1       -0.2043
     21 C          -8.3085  -14.4244   27.8361 C.ar    1  UNL1        0.0516
     22 C          -7.0661  -13.8526   28.1623 C.ar    1  UNL1        0.0156
     23 C          -6.9883  -12.8335   29.1169 C.ar    1  UNL1        0.0127
     24 C          -8.1485  -12.3696   29.7448 C.ar    1  UNL1        0.0578
     25 CL         -8.0490  -11.0880   30.9380 Cl      1  UNL1       -0.0822
     26 C          -9.3887  -12.9247   29.4156 C.ar    1  UNL1        0.0127
     27 C          -9.4694  -13.9409   28.4592 C.ar    1  UNL1        0.0156
     28 O          -6.1780  -15.0121   24.0762 O.2     1  UNL1       -0.2729
     29 C          -6.6896  -15.5230   23.0444 C.2     1  UNL1        0.2482
     30 N          -5.9715  -15.5036   21.8037 N.am    1  UNL1       -0.2679
     31 H          -6.4904  -15.1681   20.9611 H       1  UNL1        0.1563
     32 C          -4.7963  -16.2971   21.5707 C.ar    1  UNL1        0.1346
     33 C          -4.3557  -16.6112   20.2733 C.ar    1  UNL1        0.0406
     34 C          -3.1603  -17.3096   20.1031 C.ar    1  UNL1        0.0736
     35 C          -2.4058  -17.7010   21.2179 C.ar    1  UNL1        0.2466
     36 C          -2.8854  -17.3788   22.4962 C.ar    1  UNL1        0.1691
     37 N          -4.0499  -16.6928   22.6380 N.ar    1  UNL1       -0.2228
     38 N          -1.1465  -18.3856   21.0503 N.am    1  UNL1       -0.0841
     39 C          -0.0726  -17.6835   20.5714 C.2     1  UNL1        0.2905
     40 C           1.1692  -18.3000   20.4109 C.2     1  UNL1        0.0758
     41 C           1.3135  -19.6446   20.7404 C.2     1  UNL1        0.0161
     42 C           0.2176  -20.3599   21.2179 C.2     1  UNL1        0.1156
     43 C          -1.0169  -19.7176   21.3642 C.2     1  UNL1        0.4230
     44 O          -2.0075  -20.3845   21.7712 O.2     1  UNL1       -0.2135
@<TRIPOS>BOND
     1    28    29    2
     2    29    30   am
     3    30    32    1
     4    32    33   ar
     5    33    34   ar
     6    34    35   ar
     7    35    38    1
     8    38    39    1
     9    39    40    2
    10    40    41    1
    11    41    42    2
    12    42    43    1
    13    43    44    2
    14    35    36   ar
    15    36    37   ar
    16    29     1    1
    17     1     2    1
    18     2     3    1
    19     2     4    1
    20     4     5    1
    21     4    13    1
    22    13    14   ar
    23    14    15   ar
    24    15    16   ar
    25    16    17    1
    26    16    18   ar
    27    18    19   ar
    28    19    20    1
    29     4     6    1
    30     6     7    1
    31     7     8   am
    32     8     9    2
    33     8    10   am
    34    10    21    1
    35    21    22   ar
    36    22    23   ar
    37    23    24   ar
    38    24    25    1
    39    24    26   ar
    40    26    27   ar
    41    37    32   ar
    42     7     1    1
    43    27    21   ar
    44    43    38    1
    45    19    13   ar
    46    30    31    1
    47     5    11    1
    48    10    12    1
