@<TRIPOS>MOLECULE
*****
 43 47 0 0 0
SMALL
GASTEIGER

@<TRIPOS>ATOM
      1 C           9.6151   79.6000   27.8010 C.3     1  UNL1        0.2392
      2 O           8.6269   78.6649   28.2458 O.3     1  UNL1       -0.4694
      3 C           7.8492   77.9440   27.3346 C.ar    1  UNL1        0.1723
      4 C           6.7104   77.2553   27.7572 C.ar    1  UNL1        0.0398
      5 C           5.9259   76.5677   26.8256 C.ar    1  UNL1        0.0026
      6 C           6.2835   76.5542   25.4638 C.ar    1  UNL1        0.0233
      7 C           7.4344   77.2480   25.0488 C.ar    1  UNL1        0.0393
      8 C           8.2229   77.9220   25.9852 C.ar    1  UNL1        0.1725
      9 O           9.3902   78.5824   25.5909 O.3     1  UNL1       -0.4679
     10 C          10.3477   79.0367   26.5535 C.3     1  UNL1        0.2305
     11 C           5.4170   75.8451   24.4500 C.3     1  UNL1        0.2223
     12 O           4.4176   76.7393   23.9588 O.3     1  UNL1       -0.4715
     13 C           3.6433   76.4357   22.8344 C.ar    1  UNL1        0.1477
     14 C           2.4828   77.1675   22.5906 C.ar    1  UNL1        0.0738
     15 C           1.6740   76.8788   21.4786 C.ar    1  UNL1        0.1430
     16 C           2.0256   75.8150   20.6220 C.ar    1  UNL1        0.0752
     17 C           3.2061   75.0756   20.8657 C.ar    1  UNL1        0.1457
     18 C           4.0394   75.4129   21.9570 C.ar    1  UNL1        0.1050
     19 C           5.3634   74.7758   22.1916 C.2     1  UNL1        0.2095
     20 O           5.7925   73.8740   21.4224 O.2     1  UNL1       -0.2884
     21 C           6.2633   75.2950   23.2876 C.3     1  UNL1        0.2169
     22 O           7.0924   74.2653   23.7648 O.3     1  UNL1       -0.3739
     23 H           7.8642   74.2040   23.1430 H       1  UNL1        0.2110
     24 C           1.1811   75.5363   19.4017 C.3     1  UNL1        0.1697
     25 O           0.8995   74.1664   19.3384 O.3     1  UNL1       -0.3771
     26 H           0.3660   74.0318   18.5123 H       1  UNL1        0.2109
     27 O           0.5174   77.6262   21.1964 O.3     1  UNL1       -0.4715
     28 C           0.2619   78.9395   21.6839 C.3     1  UNL1        0.2525
     29 O           3.5474   74.0189   20.0167 O.3     1  UNL1       -0.4714
     30 C           4.4484   74.2055   18.9305 C.3     1  UNL1        0.2525
     31 C          11.2543   80.0683   25.9231 C.ar    1  UNL1        0.0241
     32 C          10.8329   81.3990   25.7875 C.ar    1  UNL1        0.0026
     33 C          11.6856   82.3578   25.2386 C.ar    1  UNL1        0.0398
     34 C          12.9844   82.0048   24.8267 C.ar    1  UNL1        0.1724
     35 C          13.4212   80.6789   24.9729 C.ar    1  UNL1        0.1722
     36 C          12.5521   79.7156   25.5210 C.ar    1  UNL1        0.0393
     37 O          13.8707   82.9419   24.2725 O.3     1  UNL1       -0.4684
     38 C          13.6398   84.3465   24.2353 C.3     1  UNL1        0.2526
     39 O          14.7263   80.3584   24.5665 O.3     1  UNL1       -0.4684
     40 C          15.2709   79.0425   24.5656 C.3     1  UNL1        0.2526
     41 C          10.5700   79.9206   28.9577 C.3     1  UNL1        0.1897
     42 C           9.5238   80.2239   30.9871 C.3     1  UNL1        0.1743
     43 O          10.1310   79.2779   30.1369 O.3     1  UNL1       -0.3471
@<TRIPOS>BOND
     1    42    43    1
     2    43    41    1
     3    41     1    1
     4     1     2    1
     5     2     3    1
     6     3     4   ar
     7     4     5   ar
     8     5     6   ar
     9     6    11    1
    10    11    12    1
    11    12    13    1
    12    13    14   ar
    13    14    15   ar
    14    15    27    1
    15    27    28    1
    16    15    16   ar
    17    16    24    1
    18    24    25    1
    19    16    17   ar
    20    17    29    1
    21    29    30    1
    22    17    18   ar
    23    18    19    1
    24    19    20    2
    25    19    21    1
    26    21    22    1
    27     6     7   ar
    28     7     8   ar
    29     8     9    1
    30     9    10    1
    31    10    31    1
    32    31    32   ar
    33    32    33   ar
    34    33    34   ar
    35    34    37    1
    36    37    38    1
    37    34    35   ar
    38    35    39    1
    39    39    40    1
    40    35    36   ar
    41    10     1    1
    42    36    31   ar
    43     8     3   ar
    44    21    11    1
    45    18    13   ar
    46    25    26    1
    47    22    23    1
@<TRIPOS>MOLECULE
*****
 43 47 0 0 0
SMALL
GASTEIGER

@<TRIPOS>ATOM
      1 C           9.9640   75.7427   28.0694 C.3     1  UNL1        0.2392
      2 O          10.1234   74.9526   26.8866 O.3     1  UNL1       -0.4694
      3 C           9.6425   75.3937   25.6502 C.ar    1  UNL1        0.1723
      4 C           9.5451   74.5160   24.5685 C.ar    1  UNL1        0.0398
      5 C           9.0298   74.9671   23.3490 C.ar    1  UNL1        0.0026
      6 C           8.6193   76.3057   23.1997 C.ar    1  UNL1        0.0233
      7 C           8.7248   77.1827   24.2941 C.ar    1  UNL1        0.0393
      8 C           9.2533   76.7312   25.5065 C.ar    1  UNL1        0.1725
      9 O           9.3994   77.6032   26.5892 O.3     1  UNL1       -0.4679
     10 C          10.1819   77.2425   27.7328 C.3     1  UNL1        0.2305
     11 C           8.0265   76.7854   21.8960 C.3     1  UNL1        0.2223
     12 O           6.8066   76.0900   21.6350 O.3     1  UNL1       -0.4715
     13 C           5.9185   76.5055   20.6376 C.ar    1  UNL1        0.1477
     14 C           4.9251   75.6298   20.2042 C.ar    1  UNL1        0.0738
     15 C           4.0260   76.0096   19.1938 C.ar    1  UNL1        0.1430
     16 C           4.1547   77.2781   18.5910 C.ar    1  UNL1        0.0752
     17 C           5.1590   78.1695   19.0342 C.ar    1  UNL1        0.1457
     18 C           6.0217   77.7948   20.0898 C.ar    1  UNL1        0.1050
     19 C           7.0042   78.7291   20.7028 C.2     1  UNL1        0.2095
     20 O           7.1242   79.9104   20.2795 O.2     1  UNL1       -0.2884
     21 C           7.7822   78.3051   21.9257 C.3     1  UNL1        0.2169
     22 O           9.0184   78.9723   21.9711 O.3     1  UNL1       -0.3739
     23 H           8.8505   79.8651   22.3721 H       1  UNL1        0.2110
     24 C           3.1589   77.7027   17.5383 C.3     1  UNL1        0.1697
     25 O           2.8015   79.0391   17.7534 O.3     1  UNL1       -0.3771
     26 H           2.1323   79.2621   17.0551 H       1  UNL1        0.2109
     27 O           2.9963   75.1538   18.7654 O.3     1  UNL1       -0.4715
     28 C           1.7968   74.9025   19.4905 C.3     1  UNL1        0.2525
     29 O           5.2858   79.4236   18.4300 O.3     1  UNL1       -0.4714
     30 C           6.3313   79.6945   17.5027 C.3     1  UNL1        0.2525
     31 C           9.8238   78.1358   28.8978 C.ar    1  UNL1        0.0241
     32 C          10.4967   79.3499   29.0975 C.ar    1  UNL1        0.0026
     33 C          10.1395   80.1905   30.1526 C.ar    1  UNL1        0.0398
     34 C           9.0902   79.8374   31.0219 C.ar    1  UNL1        0.1724
     35 C           8.4001   78.6319   30.8209 C.ar    1  UNL1        0.1722
     36 C           8.7714   77.7854   29.7581 C.ar    1  UNL1        0.0393
     37 O           8.7014   80.6583   32.0923 O.3     1  UNL1       -0.4684
     38 C           9.0113   82.0440   32.2001 C.3     1  UNL1        0.2526
     39 O           7.3488   78.3119   31.6947 O.3     1  UNL1       -0.4684
     40 C           6.3904   77.2847   31.4620 C.3     1  UNL1        0.2526
     41 C          10.9187   75.2318   29.1557 C.3     1  UNL1        0.1897
     42 C           8.9455   74.1449   29.6352 C.3     1  UNL1        0.1743
     43 O          10.3422   74.1281   29.8233 O.3     1  UNL1       -0.3471
@<TRIPOS>BOND
     1    42    43    1
     2    43    41    1
     3    41     1    1
     4     1     2    1
     5     2     3    1
     6     3     4   ar
     7     4     5   ar
     8     5     6   ar
     9     6    11    1
    10    11    12    1
    11    12    13    1
    12    13    14   ar
    13    14    15   ar
    14    15    27    1
    15    27    28    1
    16    15    16   ar
    17    16    24    1
    18    24    25    1
    19    16    17   ar
    20    17    29    1
    21    29    30    1
    22    17    18   ar
    23    18    19    1
    24    19    20    2
    25    19    21    1
    26    21    22    1
    27     6     7   ar
    28     7     8   ar
    29     8     9    1
    30     9    10    1
    31    10    31    1
    32    31    32   ar
    33    32    33   ar
    34    33    34   ar
    35    34    37    1
    36    37    38    1
    37    34    35   ar
    38    35    39    1
    39    39    40    1
    40    35    36   ar
    41    10     1    1
    42    36    31   ar
    43     8     3   ar
    44    21    11    1
    45    18    13   ar
    46    25    26    1
    47    22    23    1
@<TRIPOS>MOLECULE
*****
 43 47 0 0 0
SMALL
GASTEIGER

@<TRIPOS>ATOM
      1 C           7.4127   74.8456   28.8825 C.3     1  UNL1        0.2392
      2 O           7.1207   73.8496   27.8969 O.3     1  UNL1       -0.4694
      3 C           7.0403   74.1748   26.5395 C.ar    1  UNL1        0.1723
      4 C           6.4856   73.2790   25.6232 C.ar    1  UNL1        0.0398
      5 C           6.3827   73.6355   24.2747 C.ar    1  UNL1        0.0026
      6 C           6.8467   74.8887   23.8310 C.ar    1  UNL1        0.0233
      7 C           7.4071   75.7824   24.7612 C.ar    1  UNL1        0.0393
      8 C           7.5206   75.4164   26.1051 C.ar    1  UNL1        0.1725
      9 O           8.1112   76.2803   27.0318 O.3     1  UNL1       -0.4679
     10 C           8.4859   75.8259   28.3369 C.3     1  UNL1        0.2305
     11 C           6.7014   75.2917   22.3827 C.3     1  UNL1        0.2223
     12 O           5.3400   75.1485   21.9755 O.3     1  UNL1       -0.4715
     13 C           4.8683   75.6856   20.7734 C.ar    1  UNL1        0.1477
     14 C           3.6445   75.2508   20.2685 C.ar    1  UNL1        0.0738
     15 C           3.1483   75.7585   19.0561 C.ar    1  UNL1        0.1430
     16 C           3.9153   76.6923   18.3289 C.ar    1  UNL1        0.0752
     17 C           5.1548   77.1382   18.8434 C.ar    1  UNL1        0.1457
     18 C           5.6157   76.6600   20.0916 C.ar    1  UNL1        0.1050
     19 C           6.8351   77.1886   20.7607 C.2     1  UNL1        0.2095
     20 O           7.5328   78.0869   20.2175 O.2     1  UNL1       -0.2884
     21 C           7.1788   76.7384   22.1606 C.3     1  UNL1        0.2169
     22 O           8.5676   76.8046   22.3656 O.3     1  UNL1       -0.3739
     23 H           8.7803   77.7452   22.6024 H       1  UNL1        0.2110
     24 C           3.3596   77.2720   17.0502 C.3     1  UNL1        0.1697
     25 O           4.3422   77.2192   16.0543 O.3     1  UNL1       -0.3771
     26 H           3.9388   77.6304   15.2460 H       1  UNL1        0.2109
     27 O           1.9012   75.3578   18.5462 O.3     1  UNL1       -0.4715
     28 C           0.6891   75.3357   19.2934 C.3     1  UNL1        0.2525
     29 O           5.9136   78.0599   18.1164 O.3     1  UNL1       -0.4714
     30 C           5.6857   79.4602   18.2336 C.3     1  UNL1        0.2525
     31 C           8.6792   77.0115   29.2536 C.ar    1  UNL1        0.0241
     32 C           9.8735   77.7461   29.2257 C.ar    1  UNL1        0.0026
     33 C          10.0356   78.8627   30.0469 C.ar    1  UNL1        0.0398
     34 C           8.9976   79.2744   30.9038 C.ar    1  UNL1        0.1724
     35 C           7.7925   78.5552   30.9274 C.ar    1  UNL1        0.1722
     36 C           7.6394   77.4251   30.1010 C.ar    1  UNL1        0.0393
     37 O           9.1233   80.3934   31.7423 O.3     1  UNL1       -0.4684
     38 C           9.1284   81.7436   31.2900 C.3     1  UNL1        0.2526
     39 O           6.7693   78.9969   31.7814 O.3     1  UNL1       -0.4684
     40 C           5.4288   78.5173   31.7500 C.3     1  UNL1        0.2526
     41 C           7.8399   74.1614   30.1871 C.3     1  UNL1        0.1897
     42 C           5.6133   74.6352   30.5377 C.3     1  UNL1        0.1743
     43 O           6.8352   74.3234   31.1672 O.3     1  UNL1       -0.3471
@<TRIPOS>BOND
     1    42    43    1
     2    43    41    1
     3    41     1    1
     4     1     2    1
     5     2     3    1
     6     3     4   ar
     7     4     5   ar
     8     5     6   ar
     9     6    11    1
    10    11    12    1
    11    12    13    1
    12    13    14   ar
    13    14    15   ar
    14    15    27    1
    15    27    28    1
    16    15    16   ar
    17    16    24    1
    18    24    25    1
    19    16    17   ar
    20    17    29    1
    21    29    30    1
    22    17    18   ar
    23    18    19    1
    24    19    20    2
    25    19    21    1
    26    21    22    1
    27     6     7   ar
    28     7     8   ar
    29     8     9    1
    30     9    10    1
    31    10    31    1
    32    31    32   ar
    33    32    33   ar
    34    33    34   ar
    35    34    37    1
    36    37    38    1
    37    34    35   ar
    38    35    39    1
    39    39    40    1
    40    35    36   ar
    41    10     1    1
    42    36    31   ar
    43     8     3   ar
    44    21    11    1
    45    18    13   ar
    46    25    26    1
    47    22    23    1
@<TRIPOS>MOLECULE
*****
 43 47 0 0 0
SMALL
GASTEIGER

@<TRIPOS>ATOM
      1 C           4.5751   76.0866   19.7125 C.3     1  UNL1        0.2392
      2 O           5.8587   76.3409   20.2927 O.3     1  UNL1       -0.4694
      3 C           6.0397   76.3433   21.6790 C.ar    1  UNL1        0.1723
      4 C           7.2061   76.8620   22.2450 C.ar    1  UNL1        0.0398
      5 C           7.3548   76.8869   23.6355 C.ar    1  UNL1        0.0026
      6 C           6.3404   76.3802   24.4703 C.ar    1  UNL1        0.0233
      7 C           5.1711   75.8566   23.8903 C.ar    1  UNL1        0.0393
      8 C           5.0328   75.8210   22.5002 C.ar    1  UNL1        0.1725
      9 O           3.8923   75.2675   21.9111 O.3     1  UNL1       -0.4679
     10 C           3.8494   74.9705   20.5111 C.3     1  UNL1        0.2305
     11 C           6.4816   76.4413   25.9729 C.3     1  UNL1        0.2223
     12 O           7.4863   77.3932   26.3255 O.3     1  UNL1       -0.4715
     13 C           7.6506   77.8408   27.6403 C.ar    1  UNL1        0.1477
     14 C           8.8258   78.5021   27.9913 C.ar    1  UNL1        0.0738
     15 C           9.0295   78.9516   29.3067 C.ar    1  UNL1        0.1430
     16 C           8.0471   78.6991   30.2866 C.ar    1  UNL1        0.0752
     17 C           6.8518   78.0331   29.9298 C.ar    1  UNL1        0.1457
     18 C           6.6365   77.6354   28.5902 C.ar    1  UNL1        0.1050
     19 C           5.3495   77.0606   28.1134 C.2     1  UNL1        0.2095
     20 O           4.3878   76.8804   28.9081 O.2     1  UNL1       -0.2884
     21 C           5.1420   76.8027   26.6399 C.3     1  UNL1        0.2169
     22 O           4.2324   75.7476   26.4542 O.3     1  UNL1       -0.3739
     23 H           3.3211   76.1352   26.5274 H       1  UNL1        0.2110
     24 C           8.2467   79.2238   31.6883 C.3     1  UNL1        0.1697
     25 O           9.5545   78.9457   32.1033 O.3     1  UNL1       -0.3771
     26 H           9.6280   79.2868   33.0325 H       1  UNL1        0.2109
     27 O          10.1932   79.6496   29.6737 O.3     1  UNL1       -0.4715
     28 C          10.3998   81.0439   29.4715 C.3     1  UNL1        0.2525
     29 O           5.8834   77.7807   30.9057 O.3     1  UNL1       -0.4714
     30 C           5.9303   76.6044   31.7061 C.3     1  UNL1        0.2525
     31 C           2.4137   74.8081   20.0683 C.ar    1  UNL1        0.0241
     32 C           1.6911   75.9056   19.5785 C.ar    1  UNL1        0.0026
     33 C           0.3773   75.7459   19.1357 C.ar    1  UNL1        0.0398
     34 C          -0.2349   74.4787   19.1620 C.ar    1  UNL1        0.1724
     35 C           0.4854   73.3710   19.6356 C.ar    1  UNL1        0.1722
     36 C           1.8083   73.5418   20.0875 C.ar    1  UNL1        0.0393
     37 O          -1.5534   74.2790   18.7230 O.3     1  UNL1       -0.4684
     38 C          -2.6868   74.9752   19.2312 C.3     1  UNL1        0.2526
     39 O          -0.1456   72.1168   19.6373 O.3     1  UNL1       -0.4684
     40 C           0.0949   71.0939   20.5984 C.3     1  UNL1        0.2526
     41 C           4.7467   75.7407   18.2281 C.3     1  UNL1        0.1897
     42 C           4.4839   78.0014   17.8740 C.3     1  UNL1        0.1743
     43 O           4.1103   76.7171   17.4294 O.3     1  UNL1       -0.3471
@<TRIPOS>BOND
     1    42    43    1
     2    43    41    1
     3    41     1    1
     4     1     2    1
     5     2     3    1
     6     3     4   ar
     7     4     5   ar
     8     5     6   ar
     9     6    11    1
    10    11    12    1
    11    12    13    1
    12    13    14   ar
    13    14    15   ar
    14    15    27    1
    15    27    28    1
    16    15    16   ar
    17    16    24    1
    18    24    25    1
    19    16    17   ar
    20    17    29    1
    21    29    30    1
    22    17    18   ar
    23    18    19    1
    24    19    20    2
    25    19    21    1
    26    21    22    1
    27     6     7   ar
    28     7     8   ar
    29     8     9    1
    30     9    10    1
    31    10    31    1
    32    31    32   ar
    33    32    33   ar
    34    33    34   ar
    35    34    37    1
    36    37    38    1
    37    34    35   ar
    38    35    39    1
    39    39    40    1
    40    35    36   ar
    41    10     1    1
    42    36    31   ar
    43     8     3   ar
    44    21    11    1
    45    18    13   ar
    46    25    26    1
    47    22    23    1
@<TRIPOS>MOLECULE
*****
 43 47 0 0 0
SMALL
GASTEIGER

@<TRIPOS>ATOM
      1 C           7.4957   79.1699   20.1566 C.3     1  UNL1        0.2392
      2 O           8.6650   79.4537   20.9318 O.3     1  UNL1       -0.4694
      3 C           8.7846   79.0098   22.2522 C.ar    1  UNL1        0.1723
      4 C           9.7810   79.5180   23.0880 C.ar    1  UNL1        0.0398
      5 C           9.8639   79.0868   24.4159 C.ar    1  UNL1        0.0026
      6 C           8.9559   78.1328   24.9139 C.ar    1  UNL1        0.0233
      7 C           7.9582   77.6244   24.0630 C.ar    1  UNL1        0.0393
      8 C           7.8878   78.0477   22.7330 C.ar    1  UNL1        0.1725
      9 O           6.9253   77.5207   21.8671 O.3     1  UNL1       -0.4679
     10 C           7.0068   77.7264   20.4525 C.3     1  UNL1        0.2305
     11 C           9.0187   77.6945   26.3579 C.3     1  UNL1        0.2223
     12 O           7.7221   77.7909   26.9490 O.3     1  UNL1       -0.4715
     13 C           7.4316   77.2149   28.1899 C.ar    1  UNL1        0.1477
     14 C           6.2774   77.6044   28.8666 C.ar    1  UNL1        0.0738
     15 C           5.9633   77.0568   30.1216 C.ar    1  UNL1        0.1430
     16 C           6.8447   76.1290   30.7145 C.ar    1  UNL1        0.0752
     17 C           8.0132   75.7290   30.0259 C.ar    1  UNL1        0.1457
     18 C           8.2883   76.2469   28.7393 C.ar    1  UNL1        0.1050
     19 C           9.4181   75.7671   27.8982 C.2     1  UNL1        0.2095
     20 O          10.2051   74.8769   28.3191 O.2     1  UNL1       -0.2884
     21 C           9.5572   76.2571   26.4765 C.3     1  UNL1        0.2169
     22 O          10.9065   76.2339   26.0840 O.3     1  UNL1       -0.3739
     23 H          11.1081   75.3050   25.7967 H       1  UNL1        0.2110
     24 C           6.4823   75.5064   32.0415 C.3     1  UNL1        0.1697
     25 O           6.0687   76.5107   32.9248 O.3     1  UNL1       -0.3771
     26 H           5.8655   76.0567   33.7838 H       1  UNL1        0.2109
     27 O           4.7875   77.4115   30.8056 O.3     1  UNL1       -0.4715
     28 C           3.4719   77.0517   30.3965 C.3     1  UNL1        0.2525
     29 O           8.8862   74.8131   30.6200 O.3     1  UNL1       -0.4714
     30 C           8.7387   73.4122   30.4147 C.3     1  UNL1        0.2525
     31 C           5.6633   77.4493   19.8188 C.ar    1  UNL1        0.0241
     32 C           5.5246   76.4384   18.8566 C.ar    1  UNL1        0.0026
     33 C           4.2758   76.1596   18.2996 C.ar    1  UNL1        0.0398
     34 C           3.1368   76.8798   18.7061 C.ar    1  UNL1        0.1724
     35 C           3.2624   77.8827   19.6800 C.ar    1  UNL1        0.1722
     36 C           4.5275   78.1631   20.2321 C.ar    1  UNL1        0.0393
     37 O           1.8644   76.6261   18.1700 O.3     1  UNL1       -0.4684
     38 C           0.9635   75.6396   18.6630 C.3     1  UNL1        0.2526
     39 O           2.1073   78.5753   20.0765 O.3     1  UNL1       -0.4684
     40 C           1.7682   78.8721   21.4274 C.3     1  UNL1        0.2526
     41 C           7.8005   79.4024   18.6715 C.3     1  UNL1        0.1897
     42 C           9.4502   79.3895   17.0642 C.3     1  UNL1        0.1743
     43 O           9.1330   79.0271   18.3888 O.3     1  UNL1       -0.3471
@<TRIPOS>BOND
     1    42    43    1
     2    43    41    1
     3    41     1    1
     4     1     2    1
     5     2     3    1
     6     3     4   ar
     7     4     5   ar
     8     5     6   ar
     9     6    11    1
    10    11    12    1
    11    12    13    1
    12    13    14   ar
    13    14    15   ar
    14    15    27    1
    15    27    28    1
    16    15    16   ar
    17    16    24    1
    18    24    25    1
    19    16    17   ar
    20    17    29    1
    21    29    30    1
    22    17    18   ar
    23    18    19    1
    24    19    20    2
    25    19    21    1
    26    21    22    1
    27     6     7   ar
    28     7     8   ar
    29     8     9    1
    30     9    10    1
    31    10    31    1
    32    31    32   ar
    33    32    33   ar
    34    33    34   ar
    35    34    37    1
    36    37    38    1
    37    34    35   ar
    38    35    39    1
    39    39    40    1
    40    35    36   ar
    41    10     1    1
    42    36    31   ar
    43     8     3   ar
    44    21    11    1
    45    18    13   ar
    46    25    26    1
    47    22    23    1
@<TRIPOS>MOLECULE
*****
 43 47 0 0 0
SMALL
GASTEIGER

@<TRIPOS>ATOM
      1 C           5.9859   76.4864   29.0651 C.3     1  UNL1        0.2392
      2 O           4.6591   76.7910   28.6228 O.3     1  UNL1       -0.4694
      3 C           4.3574   76.9078   27.2626 C.ar    1  UNL1        0.1723
      4 C           3.1512   77.4745   26.8458 C.ar    1  UNL1        0.0398
      5 C           2.8817   77.6140   25.4805 C.ar    1  UNL1        0.0026
      6 C           3.8141   77.1750   24.5210 C.ar    1  UNL1        0.0233
      7 C           5.0244   76.6023   24.9511 C.ar    1  UNL1        0.0393
      8 C           5.2834   76.4522   26.3161 C.ar    1  UNL1        0.1725
      9 O           6.4655   75.8490   26.7554 O.3     1  UNL1       -0.4679
     10 C           6.6279   75.4378   28.1172 C.3     1  UNL1        0.2305
     11 C           3.5426   77.3598   23.0468 C.3     1  UNL1        0.2223
     12 O           4.6740   77.9646   22.4192 O.3     1  UNL1       -0.4715
     13 C           4.8046   78.0204   21.0278 C.ar    1  UNL1        0.1477
     14 C           5.7382   78.8896   20.4671 C.ar    1  UNL1        0.0738
     15 C           5.8848   78.9816   19.0729 C.ar    1  UNL1        0.1430
     16 C           5.0533   78.2096   18.2351 C.ar    1  UNL1        0.0752
     17 C           4.1095   77.3232   18.8035 C.ar    1  UNL1        0.1457
     18 C           4.0112   77.2005   20.2086 C.ar    1  UNL1        0.1050
     19 C           3.1459   76.1895   20.8743 C.2     1  UNL1        0.2095
     20 O           2.4333   75.4011   20.1962 O.2     1  UNL1       -0.2884
     21 C           3.2095   76.0162   22.3731 C.3     1  UNL1        0.2169
     22 O           1.9782   75.5459   22.8610 O.3     1  UNL1       -0.3739
     23 H           1.9744   74.5610   22.7348 H       1  UNL1        0.2110
     24 C           5.2440   78.2747   16.7386 C.3     1  UNL1        0.1697
     25 O           5.1566   76.9830   16.2057 O.3     1  UNL1       -0.3771
     26 H           5.3110   77.0758   15.2296 H       1  UNL1        0.2109
     27 O           6.8431   79.8275   18.4880 O.3     1  UNL1       -0.4715
     28 C           8.2390   79.5520   18.4285 C.3     1  UNL1        0.2525
     29 O           3.2842   76.5641   17.9689 O.3     1  UNL1       -0.4714
     30 C           1.9988   77.0332   17.5762 C.3     1  UNL1        0.2525
     31 C           8.0951   75.2357   28.4172 C.ar    1  UNL1        0.0241
     32 C           8.5094   74.2262   29.2981 C.ar    1  UNL1        0.0026
     33 C           9.8669   74.0175   29.5454 C.ar    1  UNL1        0.0398
     34 C          10.8385   74.8083   28.9035 C.ar    1  UNL1        0.1724
     35 C          10.4345   75.8108   28.0081 C.ar    1  UNL1        0.1722
     36 C           9.0623   76.0200   27.7694 C.ar    1  UNL1        0.0393
     37 O          12.2127   74.6262   29.1256 O.3     1  UNL1       -0.4684
     38 C          12.7663   73.9742   30.2640 C.3     1  UNL1        0.2526
     39 O          11.4256   76.5749   27.3716 O.3     1  UNL1       -0.4684
     40 C          11.1641   77.6428   26.4666 C.3     1  UNL1        0.2526
     41 C           5.9414   76.0201   30.5256 C.3     1  UNL1        0.1897
     42 C           6.9748   78.0006   31.0868 C.3     1  UNL1        0.1743
     43 O           5.9006   77.1390   31.3873 O.3     1  UNL1       -0.3471
@<TRIPOS>BOND
     1    42    43    1
     2    43    41    1
     3    41     1    1
     4     1     2    1
     5     2     3    1
     6     3     4   ar
     7     4     5   ar
     8     5     6   ar
     9     6    11    1
    10    11    12    1
    11    12    13    1
    12    13    14   ar
    13    14    15   ar
    14    15    27    1
    15    27    28    1
    16    15    16   ar
    17    16    24    1
    18    24    25    1
    19    16    17   ar
    20    17    29    1
    21    29    30    1
    22    17    18   ar
    23    18    19    1
    24    19    20    2
    25    19    21    1
    26    21    22    1
    27     6     7   ar
    28     7     8   ar
    29     8     9    1
    30     9    10    1
    31    10    31    1
    32    31    32   ar
    33    32    33   ar
    34    33    34   ar
    35    34    37    1
    36    37    38    1
    37    34    35   ar
    38    35    39    1
    39    39    40    1
    40    35    36   ar
    41    10     1    1
    42    36    31   ar
    43     8     3   ar
    44    21    11    1
    45    18    13   ar
    46    25    26    1
    47    22    23    1
@<TRIPOS>MOLECULE
*****
 43 47 0 0 0
SMALL
GASTEIGER

@<TRIPOS>ATOM
      1 C          13.7718   79.8166   25.3161 C.3     1  UNL1        0.2392
      2 O          13.2730   78.5679   24.8254 O.3     1  UNL1       -0.4694
      3 C          11.9156   78.3909   24.5415 C.ar    1  UNL1        0.1723
      4 C          11.3902   77.1133   24.3377 C.ar    1  UNL1        0.0398
      5 C          10.0234   76.9533   24.0883 C.ar    1  UNL1        0.0026
      6 C           9.1733   78.0742   24.0287 C.ar    1  UNL1        0.0233
      7 C           9.7128   79.3570   24.2317 C.ar    1  UNL1        0.0393
      8 C          11.0815   79.5133   24.4667 C.ar    1  UNL1        0.1725
      9 O          11.6358   80.7860   24.6312 O.3     1  UNL1       -0.4679
     10 C          13.0527   80.9890   24.5960 C.3     1  UNL1        0.2305
     11 C           7.6907   77.9013   23.7982 C.3     1  UNL1        0.2223
     12 O           7.4656   77.3264   22.5103 O.3     1  UNL1       -0.4715
     13 C           6.2163   76.8224   22.1346 C.ar    1  UNL1        0.1477
     14 C           5.9594   76.5777   20.7871 C.ar    1  UNL1        0.0738
     15 C           4.7101   76.0856   20.3737 C.ar    1  UNL1        0.1430
     16 C           3.6973   75.8705   21.3313 C.ar    1  UNL1        0.0752
     17 C           3.9592   76.1133   22.6995 C.ar    1  UNL1        0.1457
     18 C           5.2386   76.5559   23.1072 C.ar    1  UNL1        0.1050
     19 C           5.6298   76.6950   24.5360 C.2     1  UNL1        0.2095
     20 O           4.8096   76.4402   25.4588 O.2     1  UNL1       -0.2884
     21 C           7.0591   77.0248   24.8950 C.3     1  UNL1        0.2169
     22 O           7.1069   77.7105   26.1209 O.3     1  UNL1       -0.3739
     23 H           7.0721   77.0241   26.8376 H       1  UNL1        0.2110
     24 C           2.3713   75.2975   20.8914 C.3     1  UNL1        0.1697
     25 O           2.5974   74.1582   20.1099 O.3     1  UNL1       -0.3771
     26 H           1.7025   73.8346   19.8278 H       1  UNL1        0.2109
     27 O           4.4417   75.8009   19.0235 O.3     1  UNL1       -0.4715
     28 C           4.1608   76.7804   18.0288 C.3     1  UNL1        0.2525
     29 O           2.9504   75.9035   23.6442 O.3     1  UNL1       -0.4714
     30 C           2.1453   76.9785   24.1162 C.3     1  UNL1        0.2525
     31 C          13.3923   82.3225   25.2206 C.ar    1  UNL1        0.0241
     32 C          13.6397   82.4216   26.5975 C.ar    1  UNL1        0.0026
     33 C          13.9892   83.6472   27.1661 C.ar    1  UNL1        0.0398
     34 C          14.1113   84.7969   26.3633 C.ar    1  UNL1        0.1724
     35 C          13.8812   84.7047   24.9818 C.ar    1  UNL1        0.1722
     36 C          13.5218   83.4657   24.4165 C.ar    1  UNL1        0.0393
     37 O          14.4629   86.0459   26.8992 O.3     1  UNL1       -0.4684
     38 C          14.3457   86.3953   28.2747 C.3     1  UNL1        0.2526
     39 O          14.0239   85.8644   24.2034 O.3     1  UNL1       -0.4684
     40 C          12.9655   86.4880   23.4830 C.3     1  UNL1        0.2526
     41 C          15.2956   79.8586   25.1461 C.3     1  UNL1        0.1897
     42 C          15.9447   78.5804   23.3433 C.3     1  UNL1        0.1743
     43 O          15.6264   79.8845   23.7727 O.3     1  UNL1       -0.3471
@<TRIPOS>BOND
     1    42    43    1
     2    43    41    1
     3    41     1    1
     4     1     2    1
     5     2     3    1
     6     3     4   ar
     7     4     5   ar
     8     5     6   ar
     9     6    11    1
    10    11    12    1
    11    12    13    1
    12    13    14   ar
    13    14    15   ar
    14    15    27    1
    15    27    28    1
    16    15    16   ar
    17    16    24    1
    18    24    25    1
    19    16    17   ar
    20    17    29    1
    21    29    30    1
    22    17    18   ar
    23    18    19    1
    24    19    20    2
    25    19    21    1
    26    21    22    1
    27     6     7   ar
    28     7     8   ar
    29     8     9    1
    30     9    10    1
    31    10    31    1
    32    31    32   ar
    33    32    33   ar
    34    33    34   ar
    35    34    37    1
    36    37    38    1
    37    34    35   ar
    38    35    39    1
    39    39    40    1
    40    35    36   ar
    41    10     1    1
    42    36    31   ar
    43     8     3   ar
    44    21    11    1
    45    18    13   ar
    46    25    26    1
    47    22    23    1
@<TRIPOS>MOLECULE
*****
 43 47 0 0 0
SMALL
GASTEIGER

@<TRIPOS>ATOM
      1 C          14.6252   86.8439   24.8031 C.3     1  UNL1        0.2392
      2 O          14.6180   85.8942   25.8739 O.3     1  UNL1       -0.4694
      3 C          14.0856   84.6128   25.7026 C.ar    1  UNL1        0.1723
      4 C          13.8231   83.7964   26.8046 C.ar    1  UNL1        0.0398
      5 C          13.2588   82.5307   26.6157 C.ar    1  UNL1        0.0026
      6 C          12.9643   82.0675   25.3190 C.ar    1  UNL1        0.0233
      7 C          13.2358   82.8960   24.2155 C.ar    1  UNL1        0.0393
      8 C          13.8125   84.1542   24.4080 C.ar    1  UNL1        0.1725
      9 O          14.1229   84.9707   23.3166 O.3     1  UNL1       -0.4679
     10 C          14.9549   86.1263   23.4665 C.3     1  UNL1        0.2305
     11 C          12.3192   80.7171   25.1148 C.3     1  UNL1        0.2223
     12 O          11.2913   80.8169   24.1282 O.3     1  UNL1       -0.4715
     13 C          10.7035   79.6837   23.5570 C.ar    1  UNL1        0.1477
     14 C           9.5051   79.8184   22.8589 C.ar    1  UNL1        0.0738
     15 C           8.8800   78.6984   22.2855 C.ar    1  UNL1        0.1430
     16 C           9.4569   77.4219   22.4493 C.ar    1  UNL1        0.0752
     17 C          10.6759   77.2853   23.1528 C.ar    1  UNL1        0.1457
     18 C          11.3221   78.4284   23.6770 C.ar    1  UNL1        0.1050
     19 C          12.6717   78.3803   24.3016 C.2     1  UNL1        0.2095
     20 O          13.2953   77.2902   24.4108 O.2     1  UNL1       -0.2884
     21 C          13.3617   79.6634   24.6992 C.3     1  UNL1        0.2169
     22 O          14.2392   79.4314   25.7722 O.3     1  UNL1       -0.3739
     23 H          15.0842   79.0826   25.3844 H       1  UNL1        0.2110
     24 C           8.8090   76.2263   21.7929 C.3     1  UNL1        0.1697
     25 O           9.7599   75.5553   21.0149 O.3     1  UNL1       -0.3771
     26 H           9.2827   74.7965   20.5887 H       1  UNL1        0.2109
     27 O           7.6884   78.8174   21.5494 O.3     1  UNL1       -0.4715
     28 C           7.5397   79.5992   20.3686 C.3     1  UNL1        0.2525
     29 O          11.2409   76.0172   23.3168 O.3     1  UNL1       -0.4714
     30 C          10.8298   75.1564   24.3734 C.3     1  UNL1        0.2525
     31 C          14.7732   87.0429   22.2790 C.ar    1  UNL1        0.0241
     32 C          15.8482   87.3199   21.4221 C.ar    1  UNL1        0.0026
     33 C          15.6691   88.1373   20.3052 C.ar    1  UNL1        0.0398
     34 C          14.4042   88.6831   20.0165 C.ar    1  UNL1        0.1724
     35 C          13.3183   88.3989   20.8592 C.ar    1  UNL1        0.1722
     36 C          13.5089   87.5790   21.9885 C.ar    1  UNL1        0.0393
     37 O          14.1854   89.5075   18.9014 O.3     1  UNL1       -0.4684
     38 C          14.2859   89.0768   17.5479 C.3     1  UNL1        0.2526
     39 O          12.0653   88.9454   20.5392 O.3     1  UNL1       -0.4684
     40 C          11.1906   88.4286   19.5413 C.3     1  UNL1        0.2526
     41 C          15.6098   87.9735   25.1308 C.3     1  UNL1        0.1897
     42 C          13.6775   89.1750   25.4882 C.3     1  UNL1        0.1743
     43 O          14.9811   89.2265   24.9548 O.3     1  UNL1       -0.3471
@<TRIPOS>BOND
     1    42    43    1
     2    43    41    1
     3    41     1    1
     4     1     2    1
     5     2     3    1
     6     3     4   ar
     7     4     5   ar
     8     5     6   ar
     9     6    11    1
    10    11    12    1
    11    12    13    1
    12    13    14   ar
    13    14    15   ar
    14    15    27    1
    15    27    28    1
    16    15    16   ar
    17    16    24    1
    18    24    25    1
    19    16    17   ar
    20    17    29    1
    21    29    30    1
    22    17    18   ar
    23    18    19    1
    24    19    20    2
    25    19    21    1
    26    21    22    1
    27     6     7   ar
    28     7     8   ar
    29     8     9    1
    30     9    10    1
    31    10    31    1
    32    31    32   ar
    33    32    33   ar
    34    33    34   ar
    35    34    37    1
    36    37    38    1
    37    34    35   ar
    38    35    39    1
    39    39    40    1
    40    35    36   ar
    41    10     1    1
    42    36    31   ar
    43     8     3   ar
    44    21    11    1
    45    18    13   ar
    46    25    26    1
    47    22    23    1
@<TRIPOS>MOLECULE
*****
 43 47 0 0 0
SMALL
GASTEIGER

@<TRIPOS>ATOM
      1 C          11.4503   77.6198   23.9075 C.3     1  UNL1        0.2392
      2 O          12.4797   78.1815   24.7282 O.3     1  UNL1       -0.4694
      3 C          12.6878   79.5628   24.7860 C.ar    1  UNL1        0.1723
      4 C          13.8517   80.0856   25.3531 C.ar    1  UNL1        0.0398
      5 C          14.0577   81.4689   25.3714 C.ar    1  UNL1        0.0026
      6 C          13.0925   82.3408   24.8321 C.ar    1  UNL1        0.0233
      7 C          11.9220   81.8045   24.2664 C.ar    1  UNL1        0.0393
      8 C          11.7139   80.4226   24.2630 C.ar    1  UNL1        0.1725
      9 O          10.5371   79.8801   23.7389 O.3     1  UNL1       -0.4679
     10 C          10.1818   78.5127   23.9713 C.3     1  UNL1        0.2305
     11 C          13.3300   83.8323   24.8155 C.3     1  UNL1        0.2223
     12 O          13.6908   84.2788   26.1232 O.3     1  UNL1       -0.4715
     13 C          14.2120   85.5568   26.3496 C.ar    1  UNL1        0.1477
     14 C          14.2406   86.0587   27.6492 C.ar    1  UNL1        0.0738
     15 C          14.7435   87.3444   27.9099 C.ar    1  UNL1        0.1430
     16 C          15.1918   88.1448   26.8387 C.ar    1  UNL1        0.0752
     17 C          15.1683   87.6339   25.5203 C.ar    1  UNL1        0.1457
     18 C          14.7108   86.3179   25.2797 C.ar    1  UNL1        0.1050
     19 C          14.7902   85.6646   23.9452 C.2     1  UNL1        0.2095
     20 O          15.2576   86.2813   22.9501 O.2     1  UNL1       -0.2884
     21 C          14.4244   84.2066   23.7995 C.3     1  UNL1        0.2169
     22 O          13.9569   83.9501   22.4992 O.3     1  UNL1       -0.3739
     23 H          14.7564   83.8198   21.9249 H       1  UNL1        0.2110
     24 C          15.7753   89.5076   27.1256 C.3     1  UNL1        0.1697
     25 O          16.8079   89.3796   28.0621 O.3     1  UNL1       -0.3771
     26 H          17.1407   90.2988   28.2339 H       1  UNL1        0.2109
     27 O          14.8117   87.8565   29.2172 O.3     1  UNL1       -0.4715
     28 C          13.8040   88.6557   29.8283 C.3     1  UNL1        0.2525
     29 O          15.6088   88.4330   24.4614 O.3     1  UNL1       -0.4714
     30 C          14.7560   89.4039   23.8643 C.3     1  UNL1        0.2525
     31 C           9.1403   78.0786   22.9662 C.ar    1  UNL1        0.0241
     32 C           8.0671   77.2656   23.3586 C.ar    1  UNL1        0.0026
     33 C           7.0865   76.8962   22.4369 C.ar    1  UNL1        0.0398
     34 C           7.1544   77.3459   21.1048 C.ar    1  UNL1        0.1724
     35 C           8.2160   78.1730   20.7061 C.ar    1  UNL1        0.1722
     36 C           9.2056   78.5354   21.6405 C.ar    1  UNL1        0.0393
     37 O           6.1857   76.9970   20.1505 O.3     1  UNL1       -0.4684
     38 C           5.2087   75.9765   20.3288 C.3     1  UNL1        0.2526
     39 O           8.2506   78.6180   19.3750 O.3     1  UNL1       -0.4684
     40 C           7.5160   79.7317   18.8771 C.3     1  UNL1        0.2526
     41 C          11.1830   76.1740   24.3440 C.3     1  UNL1        0.1897
     42 C          10.7694   74.4543   22.8687 C.3     1  UNL1        0.1743
     43 O          11.7702   75.2768   23.4240 O.3     1  UNL1       -0.3471
@<TRIPOS>BOND
     1    42    43    1
     2    43    41    1
     3    41     1    1
     4     1     2    1
     5     2     3    1
     6     3     4   ar
     7     4     5   ar
     8     5     6   ar
     9     6    11    1
    10    11    12    1
    11    12    13    1
    12    13    14   ar
    13    14    15   ar
    14    15    27    1
    15    27    28    1
    16    15    16   ar
    17    16    24    1
    18    24    25    1
    19    16    17   ar
    20    17    29    1
    21    29    30    1
    22    17    18   ar
    23    18    19    1
    24    19    20    2
    25    19    21    1
    26    21    22    1
    27     6     7   ar
    28     7     8   ar
    29     8     9    1
    30     9    10    1
    31    10    31    1
    32    31    32   ar
    33    32    33   ar
    34    33    34   ar
    35    34    37    1
    36    37    38    1
    37    34    35   ar
    38    35    39    1
    39    39    40    1
    40    35    36   ar
    41    10     1    1
    42    36    31   ar
    43     8     3   ar
    44    21    11    1
    45    18    13   ar
    46    25    26    1
    47    22    23    1
