@<TRIPOS>MOLECULE
*****
 51 56 0 0 0
SMALL
GASTEIGER

@<TRIPOS>ATOM
      1 N         -62.8455  -46.3272  -27.2615 N.am    1  UNL1       -0.2945
      2 C         -61.8479  -45.9499  -26.2999 C.2     1  UNL1        0.2483
      3 O         -60.7319  -46.5380  -26.2953 O.2     1  UNL1       -0.2701
      4 H         -63.6129  -45.6508  -27.4576 H       1  UNL1        0.1501
      5 C         -62.1253  -44.8828  -25.3081 C.ar    1  UNL1        0.0808
      6 C         -61.9719  -45.1384  -23.9338 C.ar    1  UNL1        0.0080
      7 C         -62.2244  -44.1394  -22.9913 C.ar    1  UNL1        0.0148
      8 C         -62.6339  -42.8587  -23.3980 C.ar    1  UNL1        0.0502
      9 C         -62.7747  -42.5983  -24.7726 C.ar    1  UNL1        0.0443
     10 C         -62.5219  -43.5960  -25.7194 C.ar    1  UNL1        0.1457
     11 F         -62.6845  -43.3041  -27.0351 F       1  UNL1       -0.2040
     12 N         -62.8921  -41.8256  -22.4209 N.pl3   1  UNL1       -0.3040
     13 C         -64.2804  -41.4912  -22.0665 C.3     1  UNL1        0.1123
     14 C         -64.3578  -40.7313  -20.7389 C.3     1  UNL1        0.1136
     15 N         -63.4281  -39.5926  -20.7418 N.pl3   1  UNL1       -0.2897
     16 C         -62.1010  -39.7365  -21.3642 C.3     1  UNL1        0.1136
     17 C         -61.7794  -41.1983  -21.6937 C.3     1  UNL1        0.1123
     18 C         -63.7696  -38.3896  -20.0162 C.ar    1  UNL1        0.1318
     19 C         -64.9038  -38.3306  -19.1875 C.ar    1  UNL1        0.0343
     20 C         -65.1997  -37.1504  -18.5037 C.ar    1  UNL1        0.0083
     21 C         -64.3599  -36.0336  -18.6236 C.ar    1  UNL1        0.0906
     22 C         -63.2500  -36.1239  -19.4769 C.ar    1  UNL1        0.1041
     23 N         -62.9832  -37.2828  -20.1346 N.ar    1  UNL1       -0.2292
     24 C         -64.6962  -34.7381  -17.9299 C.3     1  UNL1        0.4200
     25 F         -65.8153  -34.1559  -18.4995 F       1  UNL1       -0.1658
     26 F         -63.6276  -33.8691  -18.0460 F       1  UNL1       -0.1658
     27 F         -64.9570  -34.9561  -16.5881 F       1  UNL1       -0.1658
     28 C         -62.7805  -47.5856  -28.0145 C.3     1  UNL1        0.1535
     29 C         -63.0877  -48.7652  -27.1224 C.2     1  UNL1        0.2443
     30 O         -63.7401  -49.7345  -27.5963 O.2     1  UNL1       -0.2730
     31 N         -62.7200  -48.7457  -25.7314 N.am    1  UNL1       -0.2825
     32 H         -62.4165  -47.8363  -25.3151 H       1  UNL1        0.1549
     33 C         -62.8875  -49.8599  -24.8408 C.ar    1  UNL1        0.0535
     34 C         -61.8933  -50.1393  -23.8938 C.ar    1  UNL1        0.0353
     35 C         -62.0407  -51.2353  -23.0405 C.ar    1  UNL1        0.1002
     36 N         -63.1354  -52.0350  -23.1407 N.ar    1  UNL1       -0.2422
     37 C         -64.1068  -51.8001  -24.0621 C.ar    1  UNL1        0.1002
     38 C         -63.9991  -50.7136  -24.9339 C.ar    1  UNL1        0.0353
     39 C         -63.7112  -47.5575  -29.2502 C.3     1  UNL1        0.0569
     40 C         -62.4429  -42.4780  -30.3210 C.ar    1  UNL1       -0.0208
     41 C         -61.5469  -43.5625  -30.1455 C.ar    1  UNL1       -0.0042
     42 C         -62.0300  -44.8630  -29.9200 C.ar    1  UNL1        0.0008
     43 C         -63.4116  -45.0461  -29.8570 C.ar    1  UNL1        0.0131
     44 C         -64.1792  -46.1725  -29.6186 C.ar    1  UNL1       -0.0017
     45 C         -65.5026  -45.7427  -29.6862 C.ar    1  UNL1        0.0681
     46 N         -65.5581  -44.4158  -29.9369 N.ar    1  UNL1       -0.3523
     47 C         -64.2832  -44.0027  -30.0359 C.ar    1  UNL1        0.0560
     48 C         -63.8359  -42.7024  -30.2616 C.ar    1  UNL1        0.0127
     49 H         -66.4195  -43.8311  -30.0185 H       1  UNL1        0.1660
     50 C         -61.5351  -40.4689  -29.1613 C.3     1  UNL1        0.0050
     51 C         -61.9111  -41.0832  -30.5057 C.3     1  UNL1        0.0264
@<TRIPOS>BOND
     1    50    51    1
     2    51    40    1
     3    40    41   ar
     4    41    42   ar
     5    42    43   ar
     6    43    44   ar
     7    44    39    1
     8    39    28    1
     9    28     1    1
    10     1     2   am
    11     2     3    2
    12     2     5    1
    13     5     6   ar
    14     6     7   ar
    15     7     8   ar
    16     8    12    1
    17    12    13    1
    18    13    14    1
    19    14    15    1
    20    15    18    1
    21    18    19   ar
    22    19    20   ar
    23    20    21   ar
    24    21    24    1
    25    24    25    1
    26    24    26    1
    27    24    27    1
    28    21    22   ar
    29    22    23   ar
    30    15    16    1
    31    16    17    1
    32     8     9   ar
    33     9    10   ar
    34    10    11    1
    35    28    29    1
    36    29    30    2
    37    29    31   am
    38    31    33    1
    39    33    34   ar
    40    34    35   ar
    41    35    36   ar
    42    36    37   ar
    43    37    38   ar
    44    44    45   ar
    45    45    46   ar
    46    46    47   ar
    47    47    48   ar
    48    48    40   ar
    49    47    43   ar
    50    10     5   ar
    51    38    33   ar
    52    17    12    1
    53    23    18   ar
    54     1     4    1
    55    31    32    1
    56    46    49    1
@<TRIPOS>MOLECULE
*****
 51 56 0 0 0
SMALL
GASTEIGER

@<TRIPOS>ATOM
      1 N         -62.0924  -46.6825  -26.3635 N.am    1  UNL1       -0.2945
      2 C         -61.1108  -46.1005  -25.4917 C.2     1  UNL1        0.2483
      3 O         -59.9321  -46.5499  -25.4913 O.2     1  UNL1       -0.2701
      4 H         -62.9438  -46.1230  -26.5799 H       1  UNL1        0.1501
      5 C         -61.4767  -44.9843  -24.5864 C.ar    1  UNL1        0.0808
      6 C         -61.3944  -45.1492  -23.1923 C.ar    1  UNL1        0.0080
      7 C         -61.7305  -44.1031  -22.3305 C.ar    1  UNL1        0.0148
      8 C         -62.1548  -42.8645  -22.8397 C.ar    1  UNL1        0.0502
      9 C         -62.2247  -42.6944  -24.2338 C.ar    1  UNL1        0.0443
     10 C         -61.8880  -43.7395  -25.0999 C.ar    1  UNL1        0.1457
     11 F         -61.9839  -43.5351  -26.4384 F       1  UNL1       -0.2040
     12 N         -62.4997  -41.7824  -21.9460 N.pl3   1  UNL1       -0.3040
     13 C         -63.8973  -41.6091  -21.5200 C.3     1  UNL1        0.1123
     14 C         -64.0022  -40.7351  -20.2666 C.3     1  UNL1        0.1136
     15 N         -63.2499  -39.4849  -20.4455 N.pl3   1  UNL1       -0.2897
     16 C         -61.9570  -39.5066  -21.1505 C.3     1  UNL1        0.1136
     17 C         -61.4473  -40.9357  -21.3664 C.3     1  UNL1        0.1123
     18 C         -63.7172  -38.2728  -19.8109 C.ar    1  UNL1        0.1318
     19 C         -64.8590  -38.2682  -18.9906 C.ar    1  UNL1        0.0343
     20 C         -65.2783  -37.0772  -18.3960 C.ar    1  UNL1        0.0083
     21 C         -64.5541  -35.8931  -18.5962 C.ar    1  UNL1        0.0906
     22 C         -63.4330  -35.9329  -19.4387 C.ar    1  UNL1        0.1041
     23 N         -63.0450  -37.1039  -20.0090 N.ar    1  UNL1       -0.2292
     24 C         -65.0251  -34.5911  -18.0002 C.3     1  UNL1        0.4200
     25 F         -65.2876  -34.7395  -16.6493 F       1  UNL1       -0.1658
     26 F         -66.1811  -34.1885  -18.6422 F       1  UNL1       -0.1658
     27 F         -64.0611  -33.6090  -18.1486 F       1  UNL1       -0.1658
     28 C         -61.9043  -47.9902  -27.0031 C.3     1  UNL1        0.1535
     29 C         -62.1339  -49.1116  -26.0175 C.2     1  UNL1        0.2443
     30 O         -63.1851  -49.8012  -26.1126 O.2     1  UNL1       -0.2730
     31 N         -61.2131  -49.3333  -24.9343 N.am    1  UNL1       -0.2825
     32 H         -60.5013  -48.5945  -24.7341 H       1  UNL1        0.1549
     33 C         -61.3051  -50.4324  -24.0145 C.ar    1  UNL1        0.0535
     34 C         -60.1429  -51.1279  -23.6551 C.ar    1  UNL1        0.0353
     35 C         -60.2300  -52.2120  -22.7786 C.ar    1  UNL1        0.1002
     36 N         -61.4383  -52.5990  -22.2908 N.ar    1  UNL1       -0.2422
     37 C         -62.5849  -51.9557  -22.6364 C.ar    1  UNL1        0.1002
     38 C         -62.5421  -50.8656  -23.5093 C.ar    1  UNL1        0.0353
     39 C         -62.8034  -48.1466  -28.2526 C.3     1  UNL1        0.0569
     40 C         -62.1735  -43.1157  -29.9407 C.ar    1  UNL1       -0.0208
     41 C         -61.1589  -44.0901  -29.7644 C.ar    1  UNL1       -0.0042
     42 C         -61.4819  -45.3976  -29.3626 C.ar    1  UNL1        0.0008
     43 C         -62.8240  -45.6970  -29.1268 C.ar    1  UNL1        0.0131
     44 C         -63.4449  -46.8565  -28.6966 C.ar    1  UNL1       -0.0017
     45 C         -64.8048  -46.5576  -28.6552 C.ar    1  UNL1        0.0681
     46 N         -65.0200  -45.2752  -29.0239 N.ar    1  UNL1       -0.3523
     47 C         -63.8106  -44.7615  -29.3052 C.ar    1  UNL1        0.0560
     48 C         -63.5230  -43.4575  -29.7033 C.ar    1  UNL1        0.0127
     49 H         -65.9400  -44.7828  -29.0633 H       1  UNL1        0.1660
     50 C         -61.6495  -40.8410  -29.0707 C.3     1  UNL1        0.0050
     51 C         -61.8077  -41.7061  -30.3169 C.3     1  UNL1        0.0264
@<TRIPOS>BOND
     1    50    51    1
     2    51    40    1
     3    40    41   ar
     4    41    42   ar
     5    42    43   ar
     6    43    44   ar
     7    44    39    1
     8    39    28    1
     9    28     1    1
    10     1     2   am
    11     2     3    2
    12     2     5    1
    13     5     6   ar
    14     6     7   ar
    15     7     8   ar
    16     8    12    1
    17    12    13    1
    18    13    14    1
    19    14    15    1
    20    15    18    1
    21    18    19   ar
    22    19    20   ar
    23    20    21   ar
    24    21    24    1
    25    24    25    1
    26    24    26    1
    27    24    27    1
    28    21    22   ar
    29    22    23   ar
    30    15    16    1
    31    16    17    1
    32     8     9   ar
    33     9    10   ar
    34    10    11    1
    35    28    29    1
    36    29    30    2
    37    29    31   am
    38    31    33    1
    39    33    34   ar
    40    34    35   ar
    41    35    36   ar
    42    36    37   ar
    43    37    38   ar
    44    44    45   ar
    45    45    46   ar
    46    46    47   ar
    47    47    48   ar
    48    48    40   ar
    49    47    43   ar
    50    10     5   ar
    51    38    33   ar
    52    17    12    1
    53    23    18   ar
    54     1     4    1
    55    31    32    1
    56    46    49    1
@<TRIPOS>MOLECULE
*****
 51 56 0 0 0
SMALL
GASTEIGER

@<TRIPOS>ATOM
      1 N         -63.5017  -40.1426  -20.1085 N.am    1  UNL1       -0.2945
      2 C         -64.4931  -40.1185  -21.1473 C.2     1  UNL1        0.2483
      3 O         -65.6560  -39.7028  -20.8903 O.2     1  UNL1       -0.2701
      4 H         -62.5005  -40.1854  -20.3922 H       1  UNL1        0.1501
      5 C         -64.1612  -40.5886  -22.5141 C.ar    1  UNL1        0.0808
      6 C         -62.9865  -41.3273  -22.7414 C.ar    1  UNL1        0.0080
      7 C         -62.6670  -41.7803  -24.0231 C.ar    1  UNL1        0.0148
      8 C         -63.5147  -41.5092  -25.1101 C.ar    1  UNL1        0.0502
      9 C         -64.6963  -40.7820  -24.8814 C.ar    1  UNL1        0.0443
     10 C         -65.0198  -40.3275  -23.5990 C.ar    1  UNL1        0.1457
     11 F         -66.1636  -39.6170  -23.4272 F       1  UNL1       -0.2040
     12 N         -63.1834  -41.9813  -26.4352 N.pl3   1  UNL1       -0.3040
     13 C         -62.1312  -42.9960  -26.6032 C.3     1  UNL1        0.1123
     14 C         -62.2250  -43.6874  -27.9667 C.3     1  UNL1        0.1136
     15 N         -62.3028  -42.6917  -29.0453 N.pl3   1  UNL1       -0.2897
     16 C         -63.0966  -41.4665  -28.8506 C.3     1  UNL1        0.1136
     17 C         -63.9732  -41.5464  -27.5960 C.3     1  UNL1        0.1123
     18 C         -61.7148  -42.9858  -30.3329 C.ar    1  UNL1        0.1318
     19 C         -62.3571  -42.6274  -31.5311 C.ar    1  UNL1        0.0343
     20 C         -61.7568  -42.9293  -32.7544 C.ar    1  UNL1        0.0083
     21 C         -60.5087  -43.5678  -32.7917 C.ar    1  UNL1        0.0906
     22 C         -59.9094  -43.9293  -31.5758 C.ar    1  UNL1        0.1041
     23 N         -60.5140  -43.6272  -30.3968 N.ar    1  UNL1       -0.2292
     24 C         -59.8740  -43.9437  -34.1063 C.3     1  UNL1        0.4200
     25 F         -59.1249  -42.8919  -34.6049 F       1  UNL1       -0.1658
     26 F         -60.8651  -44.2619  -35.0157 F       1  UNL1       -0.1658
     27 F         -59.0373  -45.0352  -33.9502 F       1  UNL1       -0.1658
     28 C         -63.8466  -40.0406  -18.6854 C.3     1  UNL1        0.1535
     29 C         -64.6611  -38.7976  -18.4148 C.2     1  UNL1        0.2443
     30 O         -65.5261  -38.8230  -17.4979 O.2     1  UNL1       -0.2730
     31 N         -64.5156  -37.6323  -19.2464 N.am    1  UNL1       -0.2825
     32 H         -63.9867  -37.7301  -20.1427 H       1  UNL1        0.1549
     33 C         -65.1779  -36.3821  -18.9999 C.ar    1  UNL1        0.0535
     34 C         -66.3898  -36.1062  -19.6470 C.ar    1  UNL1        0.0353
     35 C         -67.0265  -34.8823  -19.4283 C.ar    1  UNL1        0.1002
     36 N         -66.4639  -33.9587  -18.6048 N.ar    1  UNL1       -0.2422
     37 C         -65.2799  -34.1904  -17.9785 C.ar    1  UNL1        0.1002
     38 C         -64.6107  -35.4020  -18.1687 C.ar    1  UNL1        0.0353
     39 C         -64.5749  -41.3104  -18.1844 C.3     1  UNL1        0.0569
     40 C         -61.2299  -44.0449  -21.3291 C.ar    1  UNL1       -0.0208
     41 C         -60.9231  -42.9051  -20.5438 C.ar    1  UNL1       -0.0042
     42 C         -61.8983  -42.3189  -19.7186 C.ar    1  UNL1        0.0008
     43 C         -63.1748  -42.8818  -19.7127 C.ar    1  UNL1        0.0131
     44 C         -64.3347  -42.5217  -19.0494 C.ar    1  UNL1       -0.0017
     45 C         -65.2885  -43.4635  -19.4284 C.ar    1  UNL1        0.0681
     46 N         -64.7571  -44.3543  -20.2950 N.ar    1  UNL1       -0.3523
     47 C         -63.4746  -43.9900  -20.4625 C.ar    1  UNL1        0.0560
     48 C         -62.5302  -44.5945  -21.2898 C.ar    1  UNL1        0.0127
     49 H         -65.2520  -45.1518  -20.7526 H       1  UNL1        0.1660
     50 C         -59.1337  -43.5853  -22.5942 C.3     1  UNL1        0.0050
     51 C         -60.1925  -44.6276  -22.2494 C.3     1  UNL1        0.0264
@<TRIPOS>BOND
     1    50    51    1
     2    51    40    1
     3    40    41   ar
     4    41    42   ar
     5    42    43   ar
     6    43    44   ar
     7    44    39    1
     8    39    28    1
     9    28     1    1
    10     1     2   am
    11     2     3    2
    12     2     5    1
    13     5     6   ar
    14     6     7   ar
    15     7     8   ar
    16     8    12    1
    17    12    13    1
    18    13    14    1
    19    14    15    1
    20    15    18    1
    21    18    19   ar
    22    19    20   ar
    23    20    21   ar
    24    21    24    1
    25    24    25    1
    26    24    26    1
    27    24    27    1
    28    21    22   ar
    29    22    23   ar
    30    15    16    1
    31    16    17    1
    32     8     9   ar
    33     9    10   ar
    34    10    11    1
    35    28    29    1
    36    29    30    2
    37    29    31   am
    38    31    33    1
    39    33    34   ar
    40    34    35   ar
    41    35    36   ar
    42    36    37   ar
    43    37    38   ar
    44    44    45   ar
    45    45    46   ar
    46    46    47   ar
    47    47    48   ar
    48    48    40   ar
    49    47    43   ar
    50    10     5   ar
    51    38    33   ar
    52    17    12    1
    53    23    18   ar
    54     1     4    1
    55    31    32    1
    56    46    49    1
@<TRIPOS>MOLECULE
*****
 51 56 0 0 0
SMALL
GASTEIGER

@<TRIPOS>ATOM
      1 N         -61.1412  -46.5674  -25.8265 N.am    1  UNL1       -0.2945
      2 C         -60.5808  -46.3167  -24.5283 C.2     1  UNL1        0.2483
      3 O         -59.7352  -47.1202  -24.0480 O.2     1  UNL1       -0.2701
      4 H         -61.5800  -45.7680  -26.3298 H       1  UNL1        0.1501
      5 C         -60.9975  -45.1274  -23.7465 C.ar    1  UNL1        0.0808
      6 C         -61.3290  -45.2568  -22.3861 C.ar    1  UNL1        0.0080
      7 C         -61.7167  -44.1428  -21.6386 C.ar    1  UNL1        0.0148
      8 C         -61.7804  -42.8704  -22.2307 C.ar    1  UNL1        0.0502
      9 C         -61.4362  -42.7378  -23.5876 C.ar    1  UNL1        0.0443
     10 C         -61.0467  -43.8512  -24.3391 C.ar    1  UNL1        0.1457
     11 F         -60.7370  -43.6787  -25.6494 F       1  UNL1       -0.2040
     12 N         -62.1794  -41.7185  -21.4546 N.pl3   1  UNL1       -0.3040
     13 C         -63.4858  -41.7153  -20.7778 C.3     1  UNL1        0.1123
     14 C         -63.5478  -40.6563  -19.6730 C.3     1  UNL1        0.1136
     15 N         -63.1135  -39.3493  -20.1869 N.pl3   1  UNL1       -0.2897
     16 C         -61.9881  -39.2756  -21.1341 C.3     1  UNL1        0.1136
     17 C         -61.2398  -40.6092  -21.2378 C.3     1  UNL1        0.1123
     18 C         -63.7026  -38.1409  -19.6550 C.ar    1  UNL1        0.1318
     19 C         -64.9607  -38.1535  -19.0273 C.ar    1  UNL1        0.0343
     20 C         -65.4956  -36.9655  -18.5269 C.ar    1  UNL1        0.0083
     21 C         -64.7748  -35.7668  -18.6288 C.ar    1  UNL1        0.0906
     22 C         -63.5330  -35.7901  -19.2812 C.ar    1  UNL1        0.1041
     23 N         -63.0333  -36.9586  -19.7629 N.ar    1  UNL1       -0.2292
     24 C         -65.3635  -34.4690  -18.1372 C.3     1  UNL1        0.4200
     25 F         -65.5147  -34.4920  -16.7615 F       1  UNL1       -0.1658
     26 F         -66.6009  -34.2796  -18.7233 F       1  UNL1       -0.1658
     27 F         -64.5413  -33.4048  -18.4646 F       1  UNL1       -0.1658
     28 C         -61.0548  -47.8767  -26.4845 C.3     1  UNL1        0.1535
     29 C         -61.5440  -48.9743  -25.5694 C.2     1  UNL1        0.2443
     30 O         -62.7715  -49.2621  -25.5643 O.2     1  UNL1       -0.2730
     31 N         -60.6408  -49.6206  -24.6544 N.am    1  UNL1       -0.2825
     32 H         -59.7014  -49.1884  -24.5022 H       1  UNL1        0.1549
     33 C         -61.0012  -50.7345  -23.8226 C.ar    1  UNL1        0.0535
     34 C         -62.3161  -50.8440  -23.3511 C.ar    1  UNL1        0.0353
     35 C         -62.6662  -51.9131  -22.5231 C.ar    1  UNL1        0.1002
     36 N         -61.7312  -52.8322  -22.1644 N.ar    1  UNL1       -0.2422
     37 C         -60.4435  -52.7416  -22.5905 C.ar    1  UNL1        0.1002
     38 C         -60.0517  -51.6887  -23.4212 C.ar    1  UNL1        0.0353
     39 C         -61.8152  -47.8872  -27.8319 C.3     1  UNL1        0.0569
     40 C         -64.5985  -43.7821  -29.8214 C.ar    1  UNL1       -0.0208
     41 C         -65.0991  -44.8534  -29.0394 C.ar    1  UNL1       -0.0042
     42 C         -64.2337  -45.8405  -28.5372 C.ar    1  UNL1        0.0008
     43 C         -62.8772  -45.7411  -28.8477 C.ar    1  UNL1        0.0131
     44 C         -61.8021  -46.5561  -28.5398 C.ar    1  UNL1       -0.0017
     45 C         -60.6921  -45.9417  -29.1150 C.ar    1  UNL1        0.0681
     46 N         -61.0571  -44.8124  -29.7617 N.ar    1  UNL1       -0.3523
     47 C         -62.3859  -44.7019  -29.5952 C.ar    1  UNL1        0.0560
     48 C         -63.2174  -43.7076  -30.1069 C.ar    1  UNL1        0.0127
     49 H         -60.4319  -44.1689  -30.2960 H       1  UNL1        0.1660
     50 C         -64.9874  -41.3548  -30.2247 C.3     1  UNL1        0.0050
     51 C         -65.5437  -42.7643  -30.3986 C.3     1  UNL1        0.0264
@<TRIPOS>BOND
     1    50    51    1
     2    51    40    1
     3    40    41   ar
     4    41    42   ar
     5    42    43   ar
     6    43    44   ar
     7    44    39    1
     8    39    28    1
     9    28     1    1
    10     1     2   am
    11     2     3    2
    12     2     5    1
    13     5     6   ar
    14     6     7   ar
    15     7     8   ar
    16     8    12    1
    17    12    13    1
    18    13    14    1
    19    14    15    1
    20    15    18    1
    21    18    19   ar
    22    19    20   ar
    23    20    21   ar
    24    21    24    1
    25    24    25    1
    26    24    26    1
    27    24    27    1
    28    21    22   ar
    29    22    23   ar
    30    15    16    1
    31    16    17    1
    32     8     9   ar
    33     9    10   ar
    34    10    11    1
    35    28    29    1
    36    29    30    2
    37    29    31   am
    38    31    33    1
    39    33    34   ar
    40    34    35   ar
    41    35    36   ar
    42    36    37   ar
    43    37    38   ar
    44    44    45   ar
    45    45    46   ar
    46    46    47   ar
    47    47    48   ar
    48    48    40   ar
    49    47    43   ar
    50    10     5   ar
    51    38    33   ar
    52    17    12    1
    53    23    18   ar
    54     1     4    1
    55    31    32    1
    56    46    49    1
@<TRIPOS>MOLECULE
*****
 51 56 0 0 0
SMALL
GASTEIGER

@<TRIPOS>ATOM
      1 N         -65.5595  -53.4962  -23.2297 N.am    1  UNL1       -0.2945
      2 C         -64.1815  -53.1023  -23.1370 C.2     1  UNL1        0.2483
      3 O         -63.3559  -53.8543  -22.5503 O.2     1  UNL1       -0.2701
      4 H         -66.1473  -53.0422  -23.9600 H       1  UNL1        0.1501
      5 C         -63.7271  -51.8150  -23.7161 C.ar    1  UNL1        0.0808
      6 C         -64.4984  -51.1715  -24.7002 C.ar    1  UNL1        0.0080
      7 C         -64.0834  -49.9559  -25.2481 C.ar    1  UNL1        0.0148
      8 C         -62.8884  -49.3507  -24.8247 C.ar    1  UNL1        0.0502
      9 C         -62.1232  -49.9868  -23.8311 C.ar    1  UNL1        0.0443
     10 C         -62.5362  -51.2038  -23.2796 C.ar    1  UNL1        0.1457
     11 F         -61.7588  -51.7891  -22.3332 F       1  UNL1       -0.2040
     12 N         -62.4622  -48.0914  -25.3912 N.pl3   1  UNL1       -0.3040
     13 C         -62.9057  -46.8306  -24.7758 C.3     1  UNL1        0.1123
     14 C         -62.0269  -45.6520  -25.2052 C.3     1  UNL1        0.1136
     15 N         -61.8948  -45.6138  -26.6688 N.pl3   1  UNL1       -0.2897
     16 C         -61.7562  -46.8721  -27.4214 C.3     1  UNL1        0.1136
     17 C         -61.4937  -48.0657  -26.4964 C.3     1  UNL1        0.1123
     18 C         -61.7645  -44.3406  -27.3414 C.ar    1  UNL1        0.1318
     19 C         -60.8180  -43.3867  -26.9279 C.ar    1  UNL1        0.0343
     20 C         -60.7234  -42.1689  -27.6032 C.ar    1  UNL1        0.0083
     21 C         -61.5522  -41.9034  -28.7029 C.ar    1  UNL1        0.0906
     22 C         -62.4990  -42.8707  -29.0718 C.ar    1  UNL1        0.1041
     23 N         -62.5746  -44.0483  -28.3976 N.ar    1  UNL1       -0.2292
     24 C         -61.4938  -40.5727  -29.4088 C.3     1  UNL1        0.4200
     25 F         -62.5967  -39.8008  -29.0866 F       1  UNL1       -0.1658
     26 F         -61.4742  -40.7826  -30.7748 F       1  UNL1       -0.1658
     27 F         -60.3556  -39.8753  -29.0429 F       1  UNL1       -0.1658
     28 C         -66.1378  -54.5504  -22.3878 C.3     1  UNL1        0.1535
     29 C         -67.5737  -54.2365  -22.0396 C.2     1  UNL1        0.2443
     30 O         -68.2165  -53.4338  -22.7690 O.2     1  UNL1       -0.2730
     31 N         -68.1714  -54.7745  -20.8463 N.am    1  UNL1       -0.2825
     32 H         -67.5437  -55.2196  -20.1389 H       1  UNL1        0.1549
     33 C         -69.5532  -54.6050  -20.4937 C.ar    1  UNL1        0.0535
     34 C         -70.5339  -55.3261  -21.1878 C.ar    1  UNL1        0.0353
     35 C         -71.8809  -55.1479  -20.8642 C.ar    1  UNL1        0.1002
     36 N         -72.2378  -54.2672  -19.8922 N.ar    1  UNL1       -0.2422
     37 C         -71.3103  -53.5397  -19.2151 C.ar    1  UNL1        0.1002
     38 C         -69.9521  -53.6887  -19.5066 C.ar    1  UNL1        0.0353
     39 C         -66.0115  -55.9420  -23.0522 C.3     1  UNL1        0.0569
     40 C         -68.9710  -55.3881  -27.4670 C.ar    1  UNL1       -0.0208
     41 C         -67.6899  -54.8322  -27.2232 C.ar    1  UNL1       -0.0042
     42 C         -67.0032  -55.1092  -26.0285 C.ar    1  UNL1        0.0008
     43 C         -67.6288  -55.9294  -25.0892 C.ar    1  UNL1        0.0131
     44 C         -67.2367  -56.3497  -23.8304 C.ar    1  UNL1       -0.0017
     45 C         -68.2704  -57.1623  -23.3702 C.ar    1  UNL1        0.0681
     46 N         -69.2622  -57.2321  -24.2856 N.ar    1  UNL1       -0.3523
     47 C         -68.8635  -56.4778  -25.3238 C.ar    1  UNL1        0.0560
     48 C         -69.5694  -56.2231  -26.4979 C.ar    1  UNL1        0.0127
     49 H         -70.1622  -57.7536  -24.1928 H       1  UNL1        0.1660
     50 C         -71.1483  -55.5630  -28.6648 C.3     1  UNL1        0.0050
     51 C         -69.7175  -55.0381  -28.7251 C.3     1  UNL1        0.0264
@<TRIPOS>BOND
     1    50    51    1
     2    51    40    1
     3    40    41   ar
     4    41    42   ar
     5    42    43   ar
     6    43    44   ar
     7    44    39    1
     8    39    28    1
     9    28     1    1
    10     1     2   am
    11     2     3    2
    12     2     5    1
    13     5     6   ar
    14     6     7   ar
    15     7     8   ar
    16     8    12    1
    17    12    13    1
    18    13    14    1
    19    14    15    1
    20    15    18    1
    21    18    19   ar
    22    19    20   ar
    23    20    21   ar
    24    21    24    1
    25    24    25    1
    26    24    26    1
    27    24    27    1
    28    21    22   ar
    29    22    23   ar
    30    15    16    1
    31    16    17    1
    32     8     9   ar
    33     9    10   ar
    34    10    11    1
    35    28    29    1
    36    29    30    2
    37    29    31   am
    38    31    33    1
    39    33    34   ar
    40    34    35   ar
    41    35    36   ar
    42    36    37   ar
    43    37    38   ar
    44    44    45   ar
    45    45    46   ar
    46    46    47   ar
    47    47    48   ar
    48    48    40   ar
    49    47    43   ar
    50    10     5   ar
    51    38    33   ar
    52    17    12    1
    53    23    18   ar
    54     1     4    1
    55    31    32    1
    56    46    49    1
@<TRIPOS>MOLECULE
*****
 51 56 0 0 0
SMALL
GASTEIGER

@<TRIPOS>ATOM
      1 N         -65.5362  -54.0573  -23.1033 N.am    1  UNL1       -0.2945
      2 C         -64.1767  -53.6232  -22.9434 C.2     1  UNL1        0.2483
      3 O         -63.3562  -54.3561  -22.3262 O.2     1  UNL1       -0.2701
      4 H         -66.1035  -53.6136  -23.8557 H       1  UNL1        0.1501
      5 C         -63.7357  -52.3167  -23.4891 C.ar    1  UNL1        0.0808
      6 C         -64.4851  -51.6822  -24.4958 C.ar    1  UNL1        0.0080
      7 C         -64.0828  -50.4489  -25.0127 C.ar    1  UNL1        0.0148
      8 C         -62.9228  -49.8167  -24.5350 C.ar    1  UNL1        0.0502
      9 C         -62.1801  -50.4440  -23.5191 C.ar    1  UNL1        0.0443
     10 C         -62.5805  -51.6787  -22.9985 C.ar    1  UNL1        0.1457
     11 F         -61.8251  -52.2544  -22.0286 F       1  UNL1       -0.2040
     12 N         -62.5097  -48.5391  -25.0696 N.pl3   1  UNL1       -0.3040
     13 C         -63.1501  -47.3068  -24.5837 C.3     1  UNL1        0.1123
     14 C         -62.3089  -46.0678  -24.9051 C.3     1  UNL1        0.1136
     15 N         -61.9359  -46.0526  -26.3269 N.pl3   1  UNL1       -0.2897
     16 C         -61.5722  -47.3118  -26.9987 C.3     1  UNL1        0.1136
     17 C         -61.3742  -48.4567  -25.9992 C.3     1  UNL1        0.1123
     18 C         -61.7969  -44.7890  -27.0156 C.ar    1  UNL1        0.1318
     19 C         -60.6726  -44.5080  -27.8117 C.ar    1  UNL1        0.0343
     20 C         -60.5753  -43.2760  -28.4603 C.ar    1  UNL1        0.0083
     21 C         -61.6023  -42.3290  -28.3380 C.ar    1  UNL1        0.0906
     22 C         -62.6977  -42.6370  -27.5174 C.ar    1  UNL1        0.1041
     23 N         -62.7696  -43.8423  -26.8935 N.ar    1  UNL1       -0.2292
     24 C         -61.4855  -40.9762  -28.9928 C.3     1  UNL1        0.4200
     25 F         -61.5274  -41.0960  -30.3712 F       1  UNL1       -0.1658
     26 F         -60.2856  -40.3956  -28.6273 F       1  UNL1       -0.1658
     27 F         -62.5247  -40.1513  -28.5983 F       1  UNL1       -0.1658
     28 C         -66.1201  -55.1373  -22.2986 C.3     1  UNL1        0.1535
     29 C         -67.0911  -54.5877  -21.2805 C.2     1  UNL1        0.2443
     30 O         -66.9065  -53.4259  -20.8268 O.2     1  UNL1       -0.2730
     31 N         -68.1579  -55.4076  -20.7703 N.am    1  UNL1       -0.2825
     32 H         -68.1293  -56.4332  -20.9698 H       1  UNL1        0.1549
     33 C         -69.1780  -54.9338  -19.8772 C.ar    1  UNL1        0.0535
     34 C         -69.2639  -55.4688  -18.5850 C.ar    1  UNL1        0.0353
     35 C         -70.2683  -55.0280  -17.7202 C.ar    1  UNL1        0.1002
     36 N         -71.1667  -54.0969  -18.1371 N.ar    1  UNL1       -0.2422
     37 C         -71.1201  -53.5740  -19.3910 C.ar    1  UNL1        0.1002
     38 C         -70.1307  -53.9864  -20.2871 C.ar    1  UNL1        0.0353
     39 C         -66.7872  -56.2127  -23.1888 C.3     1  UNL1        0.0569
     40 C         -71.7185  -55.2944  -25.0316 C.ar    1  UNL1       -0.0208
     41 C         -71.3650  -55.8029  -23.7563 C.ar    1  UNL1       -0.0042
     42 C         -70.0156  -55.9425  -23.3885 C.ar    1  UNL1        0.0008
     43 C         -69.0425  -55.5835  -24.3215 C.ar    1  UNL1        0.0131
     44 C         -67.6605  -55.6368  -24.2745 C.ar    1  UNL1       -0.0017
     45 C         -67.2264  -55.1361  -25.4998 C.ar    1  UNL1        0.0681
     46 N         -68.2812  -54.8035  -26.2768 N.ar    1  UNL1       -0.3523
     47 C         -69.3784  -55.0818  -25.5527 C.ar    1  UNL1        0.0560
     48 C         -70.7064  -54.9308  -25.9469 C.ar    1  UNL1        0.0127
     49 H         -68.2456  -54.4242  -27.2490 H       1  UNL1        0.1660
     50 C         -74.0186  -56.1388  -24.5817 C.3     1  UNL1        0.0050
     51 C         -73.1655  -55.2031  -25.4320 C.3     1  UNL1        0.0264
@<TRIPOS>BOND
     1    50    51    1
     2    51    40    1
     3    40    41   ar
     4    41    42   ar
     5    42    43   ar
     6    43    44   ar
     7    44    39    1
     8    39    28    1
     9    28     1    1
    10     1     2   am
    11     2     3    2
    12     2     5    1
    13     5     6   ar
    14     6     7   ar
    15     7     8   ar
    16     8    12    1
    17    12    13    1
    18    13    14    1
    19    14    15    1
    20    15    18    1
    21    18    19   ar
    22    19    20   ar
    23    20    21   ar
    24    21    24    1
    25    24    25    1
    26    24    26    1
    27    24    27    1
    28    21    22   ar
    29    22    23   ar
    30    15    16    1
    31    16    17    1
    32     8     9   ar
    33     9    10   ar
    34    10    11    1
    35    28    29    1
    36    29    30    2
    37    29    31   am
    38    31    33    1
    39    33    34   ar
    40    34    35   ar
    41    35    36   ar
    42    36    37   ar
    43    37    38   ar
    44    44    45   ar
    45    45    46   ar
    46    46    47   ar
    47    47    48   ar
    48    48    40   ar
    49    47    43   ar
    50    10     5   ar
    51    38    33   ar
    52    17    12    1
    53    23    18   ar
    54     1     4    1
    55    31    32    1
    56    46    49    1
@<TRIPOS>MOLECULE
*****
 51 56 0 0 0
SMALL
GASTEIGER

@<TRIPOS>ATOM
      1 N         -60.2818  -45.9627  -26.4527 N.am    1  UNL1       -0.2945
      2 C         -61.0755  -46.1951  -25.2787 C.2     1  UNL1        0.2483
      3 O         -61.4666  -47.3642  -25.0114 O.2     1  UNL1       -0.2701
      4 H         -59.7197  -45.0868  -26.4947 H       1  UNL1        0.1501
      5 C         -61.4460  -45.0696  -24.3869 C.ar    1  UNL1        0.0808
      6 C         -60.9160  -44.9946  -23.0865 C.ar    1  UNL1        0.0080
      7 C         -61.2530  -43.9361  -22.2403 C.ar    1  UNL1        0.0148
      8 C         -62.1260  -42.9240  -22.6727 C.ar    1  UNL1        0.0502
      9 C         -62.6460  -42.9911  -23.9775 C.ar    1  UNL1        0.0443
     10 C         -62.3100  -44.0492  -24.8280 C.ar    1  UNL1        0.1457
     11 F         -62.8468  -44.0809  -26.0744 F       1  UNL1       -0.2040
     12 N         -62.4713  -41.8281  -21.7961 N.pl3   1  UNL1       -0.3040
     13 C         -63.8529  -41.6960  -21.3075 C.3     1  UNL1        0.1123
     14 C         -63.9331  -40.7870  -20.0774 C.3     1  UNL1        0.1136
     15 N         -63.2416  -39.5147  -20.3305 N.pl3   1  UNL1       -0.2897
     16 C         -61.9840  -39.5085  -21.0971 C.3     1  UNL1        0.1136
     17 C         -61.4276  -40.9228  -21.2946 C.3     1  UNL1        0.1123
     18 C         -63.7267  -38.3021  -19.7105 C.ar    1  UNL1        0.1318
     19 C         -64.8822  -38.3002  -18.9095 C.ar    1  UNL1        0.0343
     20 C         -65.3186  -37.1085  -18.3285 C.ar    1  UNL1        0.0083
     21 C         -64.5983  -35.9211  -18.5232 C.ar    1  UNL1        0.0906
     22 C         -63.4631  -35.9585  -19.3467 C.ar    1  UNL1        0.1041
     23 N         -63.0585  -37.1302  -19.9039 N.ar    1  UNL1       -0.2292
     24 C         -65.0872  -34.6187  -17.9424 C.3     1  UNL1        0.4200
     25 F         -65.2912  -34.7388  -16.5786 F       1  UNL1       -0.1658
     26 F         -66.2800  -34.2699  -18.5475 F       1  UNL1       -0.1658
     27 F         -64.1619  -33.6114  -18.1547 F       1  UNL1       -0.1658
     28 C         -60.1855  -46.9370  -27.5464 C.3     1  UNL1        0.1535
     29 C         -61.5205  -47.1149  -28.2303 C.2     1  UNL1        0.2443
     30 O         -62.0587  -48.2550  -28.2299 O.2     1  UNL1       -0.2730
     31 N         -62.1265  -46.0239  -28.9465 N.am    1  UNL1       -0.2825
     32 H         -61.5425  -45.1798  -29.1441 H       1  UNL1        0.1549
     33 C         -63.4331  -46.0802  -29.5399 C.ar    1  UNL1        0.0535
     34 C         -63.8963  -47.2915  -30.0705 C.ar    1  UNL1        0.0353
     35 C         -65.1572  -47.3462  -30.6691 C.ar    1  UNL1        0.1002
     36 N         -65.9225  -46.2258  -30.7502 N.ar    1  UNL1       -0.2422
     37 C         -65.4920  -45.0325  -30.2617 C.ar    1  UNL1        0.1002
     38 C         -64.2378  -44.9344  -29.6539 C.ar    1  UNL1        0.0353
     39 C         -59.0822  -46.5479  -28.5590 C.3     1  UNL1        0.0569
     40 C         -61.5362  -41.9041  -29.5434 C.ar    1  UNL1       -0.0208
     41 C         -61.2011  -42.4400  -28.2744 C.ar    1  UNL1       -0.0042
     42 C         -60.5037  -43.6559  -28.1706 C.ar    1  UNL1        0.0008
     43 C         -60.1708  -44.3221  -29.3503 C.ar    1  UNL1        0.0131
     44 C         -59.5315  -45.5287  -29.5751 C.ar    1  UNL1       -0.0017
     45 C         -59.4750  -45.6681  -30.9599 C.ar    1  UNL1        0.0681
     46 N         -60.0623  -44.6131  -31.5672 N.ar    1  UNL1       -0.3523
     47 C         -60.4836  -43.8038  -30.5806 C.ar    1  UNL1        0.0560
     48 C         -61.1736  -42.6008  -30.7170 C.ar    1  UNL1        0.0127
     49 H         -60.1785  -44.4693  -32.5949 H       1  UNL1        0.1660
     50 C         -63.8143  -40.9354  -29.8229 C.3     1  UNL1        0.0050
     51 C         -62.3313  -40.6307  -29.6378 C.3     1  UNL1        0.0264
@<TRIPOS>BOND
     1    50    51    1
     2    51    40    1
     3    40    41   ar
     4    41    42   ar
     5    42    43   ar
     6    43    44   ar
     7    44    39    1
     8    39    28    1
     9    28     1    1
    10     1     2   am
    11     2     3    2
    12     2     5    1
    13     5     6   ar
    14     6     7   ar
    15     7     8   ar
    16     8    12    1
    17    12    13    1
    18    13    14    1
    19    14    15    1
    20    15    18    1
    21    18    19   ar
    22    19    20   ar
    23    20    21   ar
    24    21    24    1
    25    24    25    1
    26    24    26    1
    27    24    27    1
    28    21    22   ar
    29    22    23   ar
    30    15    16    1
    31    16    17    1
    32     8     9   ar
    33     9    10   ar
    34    10    11    1
    35    28    29    1
    36    29    30    2
    37    29    31   am
    38    31    33    1
    39    33    34   ar
    40    34    35   ar
    41    35    36   ar
    42    36    37   ar
    43    37    38   ar
    44    44    45   ar
    45    45    46   ar
    46    46    47   ar
    47    47    48   ar
    48    48    40   ar
    49    47    43   ar
    50    10     5   ar
    51    38    33   ar
    52    17    12    1
    53    23    18   ar
    54     1     4    1
    55    31    32    1
    56    46    49    1
@<TRIPOS>MOLECULE
*****
 51 56 0 0 0
SMALL
GASTEIGER

@<TRIPOS>ATOM
      1 N         -63.8859  -42.3811  -20.0963 N.am    1  UNL1       -0.2945
      2 C         -62.4934  -42.4328  -20.4436 C.2     1  UNL1        0.2483
      3 O         -61.6205  -42.2827  -19.5455 O.2     1  UNL1       -0.2701
      4 H         -64.5689  -42.8042  -20.7592 H       1  UNL1        0.1501
      5 C         -62.0771  -42.6504  -21.8502 C.ar    1  UNL1        0.0808
      6 C         -62.3312  -43.8819  -22.4799 C.ar    1  UNL1        0.0080
      7 C         -61.9493  -44.0959  -23.8059 C.ar    1  UNL1        0.0148
      8 C         -61.3060  -43.0839  -24.5377 C.ar    1  UNL1        0.0502
      9 C         -61.0634  -41.8476  -23.9132 C.ar    1  UNL1        0.0443
     10 C         -61.4453  -41.6294  -22.5856 C.ar    1  UNL1        0.1457
     11 F         -61.1782  -40.4253  -22.0187 F       1  UNL1       -0.2040
     12 N         -60.9139  -43.3066  -25.9107 N.pl3   1  UNL1       -0.3040
     13 C         -60.4067  -42.1824  -26.7130 C.3     1  UNL1        0.1123
     14 C         -59.6390  -42.6687  -27.9460 C.3     1  UNL1        0.1136
     15 N         -60.4343  -43.6535  -28.6932 N.pl3   1  UNL1       -0.2897
     16 C         -61.2404  -44.6456  -27.9618 C.3     1  UNL1        0.1136
     17 C         -60.9026  -44.6670  -26.4670 C.3     1  UNL1        0.1123
     18 C         -60.3116  -43.7274  -30.1319 C.ar    1  UNL1        0.1318
     19 C         -59.3071  -44.4981  -30.7432 C.ar    1  UNL1        0.0343
     20 C         -59.2216  -44.5435  -32.1355 C.ar    1  UNL1        0.0083
     21 C         -60.1450  -43.8421  -32.9243 C.ar    1  UNL1        0.0906
     22 C         -61.1192  -43.0667  -32.2780 C.ar    1  UNL1        0.1041
     23 N         -61.1815  -43.0358  -30.9207 N.ar    1  UNL1       -0.2292
     24 C         -60.0324  -43.8431  -34.4276 C.3     1  UNL1        0.4200
     25 F         -61.2849  -43.7572  -35.0107 F       1  UNL1       -0.1658
     26 F         -59.4238  -45.0144  -34.8377 F       1  UNL1       -0.1658
     27 F         -59.2782  -42.7666  -34.8615 F       1  UNL1       -0.1658
     28 C         -64.3626  -41.8219  -18.8256 C.3     1  UNL1        0.1535
     29 C         -63.9334  -40.3815  -18.6747 C.2     1  UNL1        0.2443
     30 O         -63.1052  -40.0835  -17.7720 O.2     1  UNL1       -0.2730
     31 N         -64.5256  -39.3528  -19.4881 N.am    1  UNL1       -0.2825
     32 H         -65.3817  -39.5918  -20.0381 H       1  UNL1        0.1549
     33 C         -64.1070  -37.9791  -19.4758 C.ar    1  UNL1        0.0535
     34 C         -64.8585  -37.0372  -18.7605 C.ar    1  UNL1        0.0353
     35 C         -64.4686  -35.6959  -18.7641 C.ar    1  UNL1        0.1002
     36 N         -63.3755  -35.3055  -19.4715 N.ar    1  UNL1       -0.2422
     37 C         -62.6382  -36.1931  -20.1902 C.ar    1  UNL1        0.1002
     38 C         -62.9927  -37.5443  -20.2124 C.ar    1  UNL1        0.0353
     39 C         -65.8956  -41.9703  -18.6786 C.3     1  UNL1        0.0569
     40 C         -66.0723  -40.6756  -23.8602 C.ar    1  UNL1       -0.0208
     41 C         -65.0770  -41.4447  -23.2062 C.ar    1  UNL1       -0.0042
     42 C         -65.1908  -41.7522  -21.8394 C.ar    1  UNL1        0.0008
     43 C         -66.2996  -41.2626  -21.1486 C.ar    1  UNL1        0.0131
     44 C         -66.6706  -41.3605  -19.8191 C.ar    1  UNL1       -0.0017
     45 C         -67.8814  -40.6791  -19.7189 C.ar    1  UNL1        0.0681
     46 N         -68.2390  -40.1688  -20.9182 N.ar    1  UNL1       -0.3523
     47 C         -67.2704  -40.5266  -21.7781 C.ar    1  UNL1        0.0560
     48 C         -67.1870  -40.2056  -23.1315 C.ar    1  UNL1        0.0127
     49 H         -69.0882  -39.5976  -21.1257 H       1  UNL1        0.1660
     50 C         -64.5008  -40.6380  -25.7928 C.3     1  UNL1        0.0050
     51 C         -65.9092  -40.3074  -25.3094 C.3     1  UNL1        0.0264
@<TRIPOS>BOND
     1    50    51    1
     2    51    40    1
     3    40    41   ar
     4    41    42   ar
     5    42    43   ar
     6    43    44   ar
     7    44    39    1
     8    39    28    1
     9    28     1    1
    10     1     2   am
    11     2     3    2
    12     2     5    1
    13     5     6   ar
    14     6     7   ar
    15     7     8   ar
    16     8    12    1
    17    12    13    1
    18    13    14    1
    19    14    15    1
    20    15    18    1
    21    18    19   ar
    22    19    20   ar
    23    20    21   ar
    24    21    24    1
    25    24    25    1
    26    24    26    1
    27    24    27    1
    28    21    22   ar
    29    22    23   ar
    30    15    16    1
    31    16    17    1
    32     8     9   ar
    33     9    10   ar
    34    10    11    1
    35    28    29    1
    36    29    30    2
    37    29    31   am
    38    31    33    1
    39    33    34   ar
    40    34    35   ar
    41    35    36   ar
    42    36    37   ar
    43    37    38   ar
    44    44    45   ar
    45    45    46   ar
    46    46    47   ar
    47    47    48   ar
    48    48    40   ar
    49    47    43   ar
    50    10     5   ar
    51    38    33   ar
    52    17    12    1
    53    23    18   ar
    54     1     4    1
    55    31    32    1
    56    46    49    1
