@<TRIPOS>MOLECULE
*****
 45 50 0 0 0
SMALL
GASTEIGER

@<TRIPOS>ATOM
      1 C          62.0115   87.2670   10.1549 C.ar    1  UNL1        0.0702
      2 C          60.9615   87.5184    9.2643 C.ar    1  UNL1        0.0191
      3 C          60.1597   86.4718    8.8069 C.ar    1  UNL1        0.0356
      4 C          60.4205   85.1587    9.2350 C.ar    1  UNL1        0.1318
      5 N          61.4684   84.9353   10.0772 N.ar    1  UNL1       -0.2279
      6 C          62.2600   85.9394   10.5381 C.ar    1  UNL1        0.1149
      7 N          59.6160   84.0477    8.7833 N.pl3   1  UNL1       -0.2932
      8 C          60.2327   82.7430    8.4867 C.3     1  UNL1        0.0923
      9 C          59.3872   81.9466    7.4853 C.3     1  UNL1        0.0252
     10 C          57.9204   81.7671    7.9514 C.3     1  UNL1        0.0472
     11 C          57.4185   82.9433    8.8279 C.3     1  UNL1        0.0252
     12 C          58.1775   84.2418    8.5451 C.3     1  UNL1        0.0923
     13 C          57.7364   80.4213    8.6832 C.3     1  UNL1        0.2054
     14 O          57.3916   80.6221   10.0553 O.3     1  UNL1       -0.4746
     15 C          58.2994   80.7590   11.1198 C.ar    1  UNL1        0.1492
     16 C          58.7901   82.0122   11.5403 C.ar    1  UNL1        0.0442
     17 C          59.6998   82.1057   12.6087 C.ar    1  UNL1        0.0785
     18 C          60.1121   80.9310   13.2599 C.ar    1  UNL1        0.0075
     19 C          59.6239   79.6889   12.8517 C.ar    1  UNL1        0.0147
     20 C          58.7214   79.6005   11.7889 C.ar    1  UNL1        0.0915
     21 CL         58.1314   78.0210   11.2937 Cl      1  UNL1       -0.0791
     22 C          60.2138   83.4252   13.0400 C.2     1  UNL1        0.3381
     23 O          61.1026   83.5043   13.9308 O.2     1  UNL1       -0.2451
     24 O          59.7206   84.5937   12.4648 O.3     1  UNL1       -0.4771
     25 H          60.0661   85.5014   12.7526 H       1  UNL1        0.2954
     26 C          62.5571   89.1675   11.7472 C.2     1  UNL1        0.2839
     27 O          61.4164   89.1317   12.2822 O.2     1  UNL1       -0.2665
     28 N          62.8436   88.3524   10.5992 N.am    1  UNL1       -0.2766
     29 H          63.6601   88.6160   10.0022 H       1  UNL1        0.1553
     30 C          64.3472   88.7360   14.3707 C.3     1  UNL1        0.0345
     31 C          64.3745   89.8940   13.4190 C.ar    1  UNL1        0.0202
     32 C          63.5904   90.0790   12.2747 C.ar    1  UNL1        0.1946
     33 O          63.9037   91.2226   11.6921 O.2     1  UNL1       -0.4492
     34 C          64.8501   91.7893   12.3998 C.ar    1  UNL1        0.1452
     35 C          65.4779   93.0045   12.1499 C.ar    1  UNL1        0.0375
     36 C          66.4771   93.4273   13.0434 C.ar    1  UNL1        0.0031
     37 C          66.8322   92.6341   14.1678 C.ar    1  UNL1        0.0002
     38 C          66.1679   91.4032   14.3862 C.ar    1  UNL1        0.0028
     39 C          65.1809   91.0146   13.4790 C.ar    1  UNL1        0.0337
     40 C          67.8896   93.0911   15.1049 C.ar    1  UNL1        0.0000
     41 C          68.6952   92.1581   15.7854 C.ar    1  UNL1        0.0000
     42 C          69.6894   92.5914   16.6679 C.ar    1  UNL1        0.0000
     43 C          69.8915   93.9569   16.8806 C.ar    1  UNL1        0.0000
     44 C          69.0994   94.8922   16.2115 C.ar    1  UNL1        0.0000
     45 C          68.1030   94.4647   15.3285 C.ar    1  UNL1        0.0000
@<TRIPOS>BOND
     1    30    31    1
     2    31    32   ar
     3    32    26    1
     4    26    27    2
     5    26    28   am
     6    28     1    1
     7     1     2   ar
     8     2     3   ar
     9     3     4   ar
    10     4     7    1
    11     7     8    1
    12     8     9    1
    13     9    10    1
    14    10    13    1
    15    13    14    1
    16    14    15    1
    17    15    16   ar
    18    16    17   ar
    19    17    22    1
    20    22    23    2
    21    22    24    1
    22    17    18   ar
    23    18    19   ar
    24    19    20   ar
    25    20    21    1
    26    10    11    1
    27    11    12    1
    28     4     5   ar
    29     5     6   ar
    30    32    33   ar
    31    33    34   ar
    32    34    35   ar
    33    35    36   ar
    34    36    37   ar
    35    37    40    1
    36    40    41   ar
    37    41    42   ar
    38    42    43   ar
    39    43    44   ar
    40    44    45   ar
    41    37    38   ar
    42    38    39   ar
    43    39    31   ar
    44     6     1   ar
    45    39    34   ar
    46    12     7    1
    47    45    40   ar
    48    20    15   ar
    49    28    29    1
    50    24    25    1
@<TRIPOS>MOLECULE
*****
 45 50 0 0 0
SMALL
GASTEIGER

@<TRIPOS>ATOM
      1 C          60.9848   89.2483    9.1844 C.ar    1  UNL1        0.0702
      2 C          61.4777   87.9802    9.5127 C.ar    1  UNL1        0.0191
      3 C          61.4522   87.5350   10.8351 C.ar    1  UNL1        0.0356
      4 C          60.9406   88.3734   11.8405 C.ar    1  UNL1        0.1318
      5 N          60.4960   89.6160   11.5004 N.ar    1  UNL1       -0.2279
      6 C          60.5079   90.0689   10.2189 C.ar    1  UNL1        0.1149
      7 N          60.8986   87.9515   13.2210 N.pl3   1  UNL1       -0.2932
      8 C          60.5464   86.5653   13.5743 C.3     1  UNL1        0.0923
      9 C          59.9712   86.4855   14.9938 C.3     1  UNL1        0.0252
     10 C          60.9165   87.0997   16.0570 C.3     1  UNL1        0.0472
     11 C          61.7865   88.2533   15.4951 C.3     1  UNL1        0.0252
     12 C          61.1366   88.9349   14.2888 C.3     1  UNL1        0.0923
     13 C          61.7997   86.0116   16.7022 C.3     1  UNL1        0.2054
     14 O          63.0458   85.8827   16.0147 O.3     1  UNL1       -0.4746
     15 C          63.3829   84.8632   15.1074 C.ar    1  UNL1        0.1492
     16 C          63.2782   83.4952   15.4323 C.ar    1  UNL1        0.0442
     17 C          63.6283   82.5058   14.4962 C.ar    1  UNL1        0.0785
     18 C          64.0805   82.8973   13.2249 C.ar    1  UNL1        0.0075
     19 C          64.1795   84.2501   12.8964 C.ar    1  UNL1        0.0147
     20 C          63.8319   85.2297   13.8300 C.ar    1  UNL1        0.0915
     21 CL         63.9753   86.9246   13.3885 Cl      1  UNL1       -0.0791
     22 C          63.5202   81.0719   14.8477 C.2     1  UNL1        0.3381
     23 O          63.1910   80.2234   13.9750 O.2     1  UNL1       -0.2451
     24 O          63.7820   80.6453   16.1473 O.3     1  UNL1       -0.4771
     25 H          63.7113   79.6662   16.3978 H       1  UNL1        0.2954
     26 C          59.8798   89.9879    7.0217 C.2     1  UNL1        0.2839
     27 O          58.7388   89.6094    7.4005 O.2     1  UNL1       -0.2665
     28 N          61.0391   89.7022    7.8210 N.am    1  UNL1       -0.2766
     29 H          61.9758   89.7458    7.3592 H       1  UNL1        0.1553
     30 C          57.5320   91.0881    5.1375 C.3     1  UNL1        0.0345
     31 C          59.0110   91.1737    4.9087 C.ar    1  UNL1        0.0202
     32 C          60.0332   90.6911    5.7338 C.ar    1  UNL1        0.1946
     33 O          61.2108   90.9566    5.1969 O.2     1  UNL1       -0.4492
     34 C          61.0052   91.5859    4.0658 C.ar    1  UNL1        0.1452
     35 C          61.9640   92.0542    3.1743 C.ar    1  UNL1        0.0375
     36 C          61.5210   92.7089    2.0122 C.ar    1  UNL1        0.0031
     37 C          60.1337   92.8850    1.7591 C.ar    1  UNL1        0.0002
     38 C          59.1901   92.3926    2.6925 C.ar    1  UNL1        0.0028
     39 C          59.6654   91.7475    3.8353 C.ar    1  UNL1        0.0337
     40 C          59.6775   93.5786    0.5278 C.ar    1  UNL1        0.0000
     41 C          58.3150   93.5852    0.1729 C.ar    1  UNL1        0.0000
     42 C          57.8886   94.2383   -0.9876 C.ar    1  UNL1        0.0000
     43 C          58.8139   94.8913   -1.8048 C.ar    1  UNL1        0.0000
     44 C          60.1680   94.8923   -1.4636 C.ar    1  UNL1        0.0000
     45 C          60.6004   94.2401   -0.3048 C.ar    1  UNL1        0.0000
@<TRIPOS>BOND
     1    30    31    1
     2    31    32   ar
     3    32    26    1
     4    26    27    2
     5    26    28   am
     6    28     1    1
     7     1     2   ar
     8     2     3   ar
     9     3     4   ar
    10     4     7    1
    11     7     8    1
    12     8     9    1
    13     9    10    1
    14    10    13    1
    15    13    14    1
    16    14    15    1
    17    15    16   ar
    18    16    17   ar
    19    17    22    1
    20    22    23    2
    21    22    24    1
    22    17    18   ar
    23    18    19   ar
    24    19    20   ar
    25    20    21    1
    26    10    11    1
    27    11    12    1
    28     4     5   ar
    29     5     6   ar
    30    32    33   ar
    31    33    34   ar
    32    34    35   ar
    33    35    36   ar
    34    36    37   ar
    35    37    40    1
    36    40    41   ar
    37    41    42   ar
    38    42    43   ar
    39    43    44   ar
    40    44    45   ar
    41    37    38   ar
    42    38    39   ar
    43    39    31   ar
    44     6     1   ar
    45    39    34   ar
    46    12     7    1
    47    45    40   ar
    48    20    15   ar
    49    28    29    1
    50    24    25    1
@<TRIPOS>MOLECULE
*****
 45 50 0 0 0
SMALL
GASTEIGER

@<TRIPOS>ATOM
      1 C          61.9700   87.4302   10.2360 C.ar    1  UNL1        0.0702
      2 C          61.1072   87.6389    9.1540 C.ar    1  UNL1        0.0191
      3 C          60.2869   86.6062    8.6976 C.ar    1  UNL1        0.0356
      4 C          60.3411   85.3483    9.3223 C.ar    1  UNL1        0.1318
      5 N          61.2124   85.1608   10.3533 N.ar    1  UNL1       -0.2279
      6 C          62.0177   86.1529   10.8166 C.ar    1  UNL1        0.1149
      7 N          59.5108   84.2531    8.8790 N.pl3   1  UNL1       -0.2932
      8 C          60.1139   83.0024    8.3864 C.3     1  UNL1        0.0923
      9 C          59.1624   82.2670    7.4345 C.3     1  UNL1        0.0252
     10 C          57.7751   81.9949    8.0688 C.3     1  UNL1        0.0472
     11 C          57.3657   83.0709    9.1071 C.3     1  UNL1        0.0252
     12 C          58.0491   84.4156    8.8484 C.3     1  UNL1        0.0923
     13 C          57.7221   80.5844    8.6917 C.3     1  UNL1        0.2054
     14 O          58.0205   80.6248   10.0885 O.3     1  UNL1       -0.4746
     15 C          59.2966   80.4848   10.6613 C.ar    1  UNL1        0.1492
     16 C          60.3167   79.7193   10.0601 C.ar    1  UNL1        0.0442
     17 C          61.5797   79.6024   10.6675 C.ar    1  UNL1        0.0785
     18 C          61.8171   80.2649   11.8835 C.ar    1  UNL1        0.0075
     19 C          60.8127   81.0292   12.4790 C.ar    1  UNL1        0.0147
     20 C          59.5589   81.1414   11.8728 C.ar    1  UNL1        0.0915
     21 CL         58.3127   82.1047   12.6520 Cl      1  UNL1       -0.0791
     22 C          62.6432   78.7924   10.0318 C.2     1  UNL1        0.3381
     23 O          63.4306   79.3144    9.1966 O.2     1  UNL1       -0.2451
     24 O          62.7852   77.4442   10.3508 O.3     1  UNL1       -0.4771
     25 H          63.5101   76.8815    9.9217 H       1  UNL1        0.2954
     26 C          62.5481   89.3309   11.8166 C.2     1  UNL1        0.2839
     27 O          61.4006   89.3313   12.3381 O.2     1  UNL1       -0.2665
     28 N          62.8260   88.4969   10.6801 N.am    1  UNL1       -0.2766
     29 H          63.6564   88.7324   10.0906 H       1  UNL1        0.1553
     30 C          64.3540   88.8349   14.4179 C.3     1  UNL1        0.0345
     31 C          64.3906   90.0060   13.4826 C.ar    1  UNL1        0.0202
     32 C          63.5995   90.2191   12.3480 C.ar    1  UNL1        0.1946
     33 O          63.9249   91.3662   11.7790 O.2     1  UNL1       -0.4492
     34 C          64.8858   91.9085   12.4864 C.ar    1  UNL1        0.1452
     35 C          65.5297   93.1176   12.2483 C.ar    1  UNL1        0.0375
     36 C          66.5428   93.5126   13.1390 C.ar    1  UNL1        0.0031
     37 C          66.8956   92.6980   14.2487 C.ar    1  UNL1        0.0002
     38 C          66.2146   91.4741   14.4554 C.ar    1  UNL1        0.0028
     39 C          65.2142   91.1134   13.5515 C.ar    1  UNL1        0.0337
     40 C          67.9677   93.1256   15.1829 C.ar    1  UNL1        0.0000
     41 C          68.2219   94.4928   15.4034 C.ar    1  UNL1        0.0000
     42 C          69.2328   94.8925   16.2829 C.ar    1  UNL1        0.0000
     43 C          69.9992   93.9353   16.9515 C.ar    1  UNL1        0.0000
     44 C          69.7568   92.5762   16.7416 C.ar    1  UNL1        0.0000
     45 C          68.7478   92.1706   15.8626 C.ar    1  UNL1        0.0000
@<TRIPOS>BOND
     1    30    31    1
     2    31    32   ar
     3    32    26    1
     4    26    27    2
     5    26    28   am
     6    28     1    1
     7     1     2   ar
     8     2     3   ar
     9     3     4   ar
    10     4     7    1
    11     7     8    1
    12     8     9    1
    13     9    10    1
    14    10    13    1
    15    13    14    1
    16    14    15    1
    17    15    16   ar
    18    16    17   ar
    19    17    22    1
    20    22    23    2
    21    22    24    1
    22    17    18   ar
    23    18    19   ar
    24    19    20   ar
    25    20    21    1
    26    10    11    1
    27    11    12    1
    28     4     5   ar
    29     5     6   ar
    30    32    33   ar
    31    33    34   ar
    32    34    35   ar
    33    35    36   ar
    34    36    37   ar
    35    37    40    1
    36    40    41   ar
    37    41    42   ar
    38    42    43   ar
    39    43    44   ar
    40    44    45   ar
    41    37    38   ar
    42    38    39   ar
    43    39    31   ar
    44     6     1   ar
    45    39    34   ar
    46    12     7    1
    47    45    40   ar
    48    20    15   ar
    49    28    29    1
    50    24    25    1
@<TRIPOS>MOLECULE
*****
 45 50 0 0 0
SMALL
GASTEIGER

@<TRIPOS>ATOM
      1 C          60.4481   88.1098    8.3737 C.ar    1  UNL1        0.0702
      2 C          60.1660   86.7424    8.4714 C.ar    1  UNL1        0.0191
      3 C          60.2956   86.0819    9.6939 C.ar    1  UNL1        0.0356
      4 C          60.7250   86.7948   10.8265 C.ar    1  UNL1        0.1318
      5 N          61.0242   88.1182   10.6987 N.ar    1  UNL1       -0.2279
      6 C          60.9018   88.7826    9.5193 C.ar    1  UNL1        0.1149
      7 N          60.8743   86.1481   12.1091 N.pl3   1  UNL1       -0.2932
      8 C          62.0157   85.2549   12.3737 C.3     1  UNL1        0.0923
      9 C          61.6806   84.2406   13.4741 C.3     1  UNL1        0.0252
     10 C          61.1973   84.9160   14.7823 C.3     1  UNL1        0.0472
     11 C          60.4617   86.2575   14.5316 C.3     1  UNL1        0.0252
     12 C          59.8362   86.3236   13.1364 C.3     1  UNL1        0.0923
     13 C          62.3692   85.1095   15.7670 C.3     1  UNL1        0.2054
     14 O          63.3559   85.9920   15.2290 O.3     1  UNL1       -0.4746
     15 C          63.3690   87.3912   15.3637 C.ar    1  UNL1        0.1492
     16 C          63.5968   88.2550   14.2729 C.ar    1  UNL1        0.0442
     17 C          63.6045   89.6501   14.4507 C.ar    1  UNL1        0.0785
     18 C          63.3757   90.1767   15.7330 C.ar    1  UNL1        0.0075
     19 C          63.1431   89.3259   16.8145 C.ar    1  UNL1        0.0147
     20 C          63.1378   87.9406   16.6335 C.ar    1  UNL1        0.0915
     21 CL         62.8498   86.8960   18.0170 Cl      1  UNL1       -0.0791
     22 C          63.8497   90.5493   13.3006 C.2     1  UNL1        0.3381
     23 O          63.6610   90.1442   12.1216 O.2     1  UNL1       -0.2451
     24 O          64.2909   91.8535   13.5100 O.3     1  UNL1       -0.4771
     25 H          64.4610   92.4769   12.7297 H       1  UNL1        0.2954
     26 C          59.8701   90.1220    6.9376 C.2     1  UNL1        0.2839
     27 O          59.2975   90.7173    7.8897 O.2     1  UNL1       -0.2665
     28 N          60.3323   88.7716    7.1022 N.am    1  UNL1       -0.2766
     29 H          60.5157   88.2078    6.2413 H       1  UNL1        0.1553
     30 C          57.5361   91.2482    5.0515 C.3     1  UNL1        0.0345
     31 C          59.0150   91.2917    4.8101 C.ar    1  UNL1        0.0202
     32 C          60.0311   90.7979    5.6361 C.ar    1  UNL1        0.1946
     33 O          61.2108   91.0233    5.0856 O.2     1  UNL1       -0.4492
     34 C          61.0123   91.6373    3.9448 C.ar    1  UNL1        0.1452
     35 C          61.9756   92.0647    3.0378 C.ar    1  UNL1        0.0375
     36 C          61.5401   92.7097    1.8674 C.ar    1  UNL1        0.0031
     37 C          60.1559   92.9168    1.6216 C.ar    1  UNL1        0.0002
     38 C          59.2075   92.4656    2.5709 C.ar    1  UNL1        0.0028
     39 C          59.6753   91.8290    3.7215 C.ar    1  UNL1        0.0337
     40 C          59.7077   93.5996    0.3814 C.ar    1  UNL1        0.0000
     41 C          58.3375   93.6949    0.0717 C.ar    1  UNL1        0.0000
     42 C          57.9186   94.3376   -1.0973 C.ar    1  UNL1        0.0000
     43 C          58.8592   94.8920   -1.9681 C.ar    1  UNL1        0.0000
     44 C          60.2212   94.8045   -1.6721 C.ar    1  UNL1        0.0000
     45 C          60.6460   94.1621   -0.5050 C.ar    1  UNL1        0.0000
@<TRIPOS>BOND
     1    30    31    1
     2    31    32   ar
     3    32    26    1
     4    26    27    2
     5    26    28   am
     6    28     1    1
     7     1     2   ar
     8     2     3   ar
     9     3     4   ar
    10     4     7    1
    11     7     8    1
    12     8     9    1
    13     9    10    1
    14    10    13    1
    15    13    14    1
    16    14    15    1
    17    15    16   ar
    18    16    17   ar
    19    17    22    1
    20    22    23    2
    21    22    24    1
    22    17    18   ar
    23    18    19   ar
    24    19    20   ar
    25    20    21    1
    26    10    11    1
    27    11    12    1
    28     4     5   ar
    29     5     6   ar
    30    32    33   ar
    31    33    34   ar
    32    34    35   ar
    33    35    36   ar
    34    36    37   ar
    35    37    40    1
    36    40    41   ar
    37    41    42   ar
    38    42    43   ar
    39    43    44   ar
    40    44    45   ar
    41    37    38   ar
    42    38    39   ar
    43    39    31   ar
    44     6     1   ar
    45    39    34   ar
    46    12     7    1
    47    45    40   ar
    48    20    15   ar
    49    28    29    1
    50    24    25    1
@<TRIPOS>MOLECULE
*****
 45 50 0 0 0
SMALL
GASTEIGER

@<TRIPOS>ATOM
      1 C          61.4971   90.0874    9.0997 C.ar    1  UNL1        0.0702
      2 C          60.3005   90.1946    9.8178 C.ar    1  UNL1        0.0191
      3 C          60.2484   89.8173   11.1604 C.ar    1  UNL1        0.0356
      4 C          61.4025   89.3152   11.7861 C.ar    1  UNL1        0.1318
      5 N          62.5471   89.1905   11.0570 N.ar    1  UNL1       -0.2279
      6 C          62.6218   89.5550    9.7496 C.ar    1  UNL1        0.1149
      7 N          61.3899   88.9117   13.1727 N.pl3   1  UNL1       -0.2932
      8 C          60.1987   88.2747   13.7608 C.3     1  UNL1        0.0923
      9 C          60.1481   88.4912   15.2782 C.3     1  UNL1        0.0252
     10 C          61.4364   88.0117   15.9934 C.3     1  UNL1        0.0472
     11 C          62.6997   88.1301   15.1026 C.3     1  UNL1        0.0252
     12 C          62.5509   89.2077   14.0261 C.3     1  UNL1        0.0923
     13 C          61.2700   86.5708   16.5193 C.3     1  UNL1        0.2054
     14 O          60.6070   85.7442   15.5607 O.3     1  UNL1       -0.4746
     15 C          61.2159   85.0982   14.4707 C.ar    1  UNL1        0.1492
     16 C          62.5918   84.7911   14.4446 C.ar    1  UNL1        0.0442
     17 C          63.1628   84.1460   13.3330 C.ar    1  UNL1        0.0785
     18 C          62.3418   83.8038   12.2454 C.ar    1  UNL1        0.0075
     19 C          60.9782   84.0997   12.2695 C.ar    1  UNL1        0.0147
     20 C          60.4154   84.7420   13.3752 C.ar    1  UNL1        0.0915
     21 CL         58.6966   85.1080   13.3716 Cl      1  UNL1       -0.0791
     22 C          64.6092   83.8320   13.3120 C.2     1  UNL1        0.3381
     23 O          65.3586   84.2099   14.2531 O.2     1  UNL1       -0.2451
     24 O          65.1573   83.1145   12.2517 O.3     1  UNL1       -0.4771
     25 H          66.1457   82.8941   12.2282 H       1  UNL1        0.2954
     26 C          60.4121   90.3264    6.8169 C.2     1  UNL1        0.2839
     27 O          59.4113   89.6361    7.1496 O.2     1  UNL1       -0.2665
     28 N          61.5294   90.4582    7.7106 N.am    1  UNL1       -0.2766
     29 H          62.4451   90.7626    7.3090 H       1  UNL1        0.1553
     30 C          57.9204   91.4230    5.1251 C.3     1  UNL1        0.0345
     31 C          59.3711   91.4494    4.7479 C.ar    1  UNL1        0.0202
     32 C          60.4562   90.9686    5.4894 C.ar    1  UNL1        0.1946
     33 O          61.5814   91.1716    4.8274 O.2     1  UNL1       -0.4492
     34 C          61.2821   91.7586    3.6945 C.ar    1  UNL1        0.1452
     35 C          62.1600   92.1562    2.6924 C.ar    1  UNL1        0.0375
     36 C          61.6222   92.7753    1.5509 C.ar    1  UNL1        0.0031
     37 C          60.2222   92.9867    1.4281 C.ar    1  UNL1        0.0002
     38 C          59.3628   92.5662    2.4716 C.ar    1  UNL1        0.0028
     39 C          59.9312   91.9548    3.5902 C.ar    1  UNL1        0.0337
     40 C          59.6655   93.6420    0.2174 C.ar    1  UNL1        0.0000
     41 C          60.5205   94.2059   -0.7487 C.ar    1  UNL1        0.0000
     42 C          59.9933   94.8232   -1.8872 C.ar    1  UNL1        0.0000
     43 C          58.6107   94.8842   -2.0749 C.ar    1  UNL1        0.0000
     44 C          57.7520   94.3283   -1.1242 C.ar    1  UNL1        0.0000
     45 C          58.2736   93.7106    0.0167 C.ar    1  UNL1        0.0000
@<TRIPOS>BOND
     1    30    31    1
     2    31    32   ar
     3    32    26    1
     4    26    27    2
     5    26    28   am
     6    28     1    1
     7     1     2   ar
     8     2     3   ar
     9     3     4   ar
    10     4     7    1
    11     7     8    1
    12     8     9    1
    13     9    10    1
    14    10    13    1
    15    13    14    1
    16    14    15    1
    17    15    16   ar
    18    16    17   ar
    19    17    22    1
    20    22    23    2
    21    22    24    1
    22    17    18   ar
    23    18    19   ar
    24    19    20   ar
    25    20    21    1
    26    10    11    1
    27    11    12    1
    28     4     5   ar
    29     5     6   ar
    30    32    33   ar
    31    33    34   ar
    32    34    35   ar
    33    35    36   ar
    34    36    37   ar
    35    37    40    1
    36    40    41   ar
    37    41    42   ar
    38    42    43   ar
    39    43    44   ar
    40    44    45   ar
    41    37    38   ar
    42    38    39   ar
    43    39    31   ar
    44     6     1   ar
    45    39    34   ar
    46    12     7    1
    47    45    40   ar
    48    20    15   ar
    49    28    29    1
    50    24    25    1
