@<TRIPOS>MOLECULE
*****
 47 52 0 0 0
SMALL
GASTEIGER

@<TRIPOS>ATOM
      1 C         -64.3190  -52.2623  -24.5894 C.ar    1  UNL1        0.0702
      2 C         -63.8245  -52.6865  -23.3465 C.ar    1  UNL1        0.0191
      3 C         -64.5173  -53.6474  -22.6082 C.ar    1  UNL1        0.0356
      4 C         -65.7236  -54.1664  -23.1048 C.ar    1  UNL1        0.1318
      5 N         -66.1873  -53.7326  -24.3098 N.ar    1  UNL1       -0.2279
      6 C         -65.5293  -52.7984  -25.0457 C.ar    1  UNL1        0.1149
      7 N         -66.4548  -55.1751  -22.3824 N.pl3   1  UNL1       -0.2932
      8 C         -67.6557  -55.8065  -22.9472 C.3     1  UNL1        0.0923
      9 C         -68.8110  -55.7878  -21.9319 C.3     1  UNL1        0.0252
     10 C         -68.3377  -55.8946  -20.4563 C.3     1  UNL1        0.0472
     11 C         -66.9398  -56.5319  -20.3548 C.3     1  UNL1        0.0252
     12 C         -65.9124  -55.6746  -21.1100 C.3     1  UNL1        0.0923
     13 C         -69.3513  -56.6734  -19.5963 C.3     1  UNL1        0.2054
     14 O         -69.7552  -55.9086  -18.4591 O.3     1  UNL1       -0.4755
     15 C         -69.1119  -55.8951  -17.2102 C.ar    1  UNL1        0.1388
     16 C         -69.8785  -56.1669  -16.0755 C.ar    1  UNL1        0.0382
     17 C         -69.2959  -56.1693  -14.8084 C.ar    1  UNL1        0.0174
     18 C         -67.9285  -55.9038  -14.6488 C.ar    1  UNL1        0.0480
     19 N         -67.3586  -55.9893  -13.3351 N.pl3   1  UNL1       -0.3568
     20 C         -67.1396  -55.6114  -15.7888 C.ar    1  UNL1        0.0913
     21 C         -67.7390  -55.6232  -17.0611 C.ar    1  UNL1        0.0446
     22 H         -66.3283  -56.0270  -13.1784 H       1  UNL1        0.1424
     23 H         -67.9724  -56.1221  -12.5005 H       1  UNL1        0.1424
     24 C         -65.7081  -55.2481  -15.6841 C.2     1  UNL1        0.3393
     25 O         -65.3573  -54.2447  -15.0086 O.2     1  UNL1       -0.2450
     26 O         -64.7338  -55.9793  -16.3604 O.3     1  UNL1       -0.4771
     27 H         -64.9641  -56.8147  -16.8847 H       1  UNL1        0.2954
     28 C         -63.9026  -49.8453  -25.2510 C.2     1  UNL1        0.2839
     29 O         -64.8033  -49.4192  -24.4798 O.2     1  UNL1       -0.2665
     30 N         -63.6510  -51.2567  -25.3691 N.am    1  UNL1       -0.2766
     31 H         -62.9011  -51.5809  -26.0177 H       1  UNL1        0.1553
     32 C         -64.0896  -49.2920  -28.4358 C.3     1  UNL1        0.0345
     33 C         -63.2298  -48.6111  -27.4144 C.ar    1  UNL1        0.0202
     34 C         -63.1366  -48.8654  -26.0403 C.ar    1  UNL1        0.1946
     35 O         -62.2119  -48.0915  -25.4996 O.2     1  UNL1       -0.4492
     36 C         -61.7186  -47.3314  -26.4465 C.ar    1  UNL1        0.1452
     37 C         -60.7260  -46.3651  -26.3246 C.ar    1  UNL1        0.0375
     38 C         -60.3431  -45.6630  -27.4811 C.ar    1  UNL1        0.0031
     39 C         -60.9538  -45.9362  -28.7353 C.ar    1  UNL1        0.0002
     40 C         -61.9598  -46.9288  -28.8151 C.ar    1  UNL1        0.0028
     41 C         -62.3154  -47.6036  -27.6472 C.ar    1  UNL1        0.0337
     42 C         -60.5412  -45.1884  -29.9501 C.ar    1  UNL1        0.0000
     43 C         -59.2291  -45.3000  -30.4483 C.ar    1  UNL1        0.0000
     44 C         -58.8438  -44.5956  -31.5931 C.ar    1  UNL1        0.0000
     45 C         -59.7605  -43.7733  -32.2519 C.ar    1  UNL1        0.0000
     46 C         -61.0650  -43.6540  -31.7676 C.ar    1  UNL1        0.0000
     47 C         -61.4561  -44.3568  -30.6238 C.ar    1  UNL1        0.0000
@<TRIPOS>BOND
     1    32    33    1
     2    33    34   ar
     3    34    28    1
     4    28    29    2
     5    28    30   am
     6    30     1    1
     7     1     2   ar
     8     2     3   ar
     9     3     4   ar
    10     4     7    1
    11     7     8    1
    12     8     9    1
    13     9    10    1
    14    10    13    1
    15    13    14    1
    16    14    15    1
    17    15    16   ar
    18    16    17   ar
    19    17    18   ar
    20    18    19    1
    21    18    20   ar
    22    20    24    1
    23    24    25    2
    24    24    26    1
    25    20    21   ar
    26    10    11    1
    27    11    12    1
    28     4     5   ar
    29     5     6   ar
    30    34    35   ar
    31    35    36   ar
    32    36    37   ar
    33    37    38   ar
    34    38    39   ar
    35    39    42    1
    36    42    43   ar
    37    43    44   ar
    38    44    45   ar
    39    45    46   ar
    40    46    47   ar
    41    39    40   ar
    42    40    41   ar
    43    41    33   ar
    44     6     1   ar
    45    41    36   ar
    46    12     7    1
    47    47    42   ar
    48    21    15   ar
    49    30    31    1
    50    19    22    1
    51    19    23    1
    52    26    27    1
@<TRIPOS>MOLECULE
*****
 47 52 0 0 0
SMALL
GASTEIGER

@<TRIPOS>ATOM
      1 C         -64.1516  -52.1240  -24.5498 C.ar    1  UNL1        0.0702
      2 C         -63.5498  -52.5935  -23.3722 C.ar    1  UNL1        0.0191
      3 C         -64.1800  -53.5766  -22.6075 C.ar    1  UNL1        0.0356
      4 C         -65.4302  -54.0727  -23.0101 C.ar    1  UNL1        0.1318
      5 N         -65.9978  -53.5952  -24.1525 N.ar    1  UNL1       -0.2279
      6 C         -65.4022  -52.6387  -24.9125 C.ar    1  UNL1        0.1149
      7 N         -66.1003  -55.1028  -22.2595 N.pl3   1  UNL1       -0.2932
      8 C         -66.3925  -56.4170  -22.8491 C.3     1  UNL1        0.0923
      9 C         -67.8627  -56.8049  -22.6168 C.3     1  UNL1        0.0252
     10 C         -68.4415  -56.2594  -21.2825 C.3     1  UNL1        0.0472
     11 C         -67.3268  -55.9478  -20.2671 C.3     1  UNL1        0.0252
     12 C         -66.3806  -54.8779  -20.8334 C.3     1  UNL1        0.0923
     13 C         -69.4691  -57.2340  -20.6760 C.3     1  UNL1        0.2054
     14 O         -70.6841  -56.5591  -20.3446 O.3     1  UNL1       -0.4755
     15 C         -70.9553  -55.9098  -19.1286 C.ar    1  UNL1        0.1388
     16 C         -70.5081  -56.5113  -17.9508 C.ar    1  UNL1        0.0382
     17 C         -70.7461  -55.9139  -16.7133 C.ar    1  UNL1        0.0174
     18 C         -71.4346  -54.6956  -16.6272 C.ar    1  UNL1        0.0480
     19 N         -71.5918  -54.0824  -15.3399 N.pl3   1  UNL1       -0.3568
     20 C         -71.9081  -54.0796  -17.8120 C.ar    1  UNL1        0.0913
     21 C         -71.6511  -54.6886  -19.0535 C.ar    1  UNL1        0.0446
     22 H         -71.8867  -53.0881  -15.2310 H       1  UNL1        0.1424
     23 H         -71.3108  -54.5934  -14.4734 H       1  UNL1        0.1424
     24 C         -72.7070  -52.8333  -17.7868 C.2     1  UNL1        0.3393
     25 O         -73.3773  -52.5315  -16.7643 O.2     1  UNL1       -0.2450
     26 O         -72.7649  -51.9989  -18.9011 O.3     1  UNL1       -0.4771
     27 H         -72.2141  -52.1811  -19.7313 H       1  UNL1        0.2954
     28 C         -63.8998  -49.7018  -25.2726 C.2     1  UNL1        0.2839
     29 O         -64.8339  -49.3199  -24.5180 O.2     1  UNL1       -0.2665
     30 N         -63.5495  -51.0947  -25.3519 N.am    1  UNL1       -0.2766
     31 H         -62.7739  -51.3824  -25.9874 H       1  UNL1        0.1553
     32 C         -64.0067  -49.3227  -28.4864 C.3     1  UNL1        0.0345
     33 C         -63.2581  -48.5137  -27.4709 C.ar    1  UNL1        0.0202
     34 C         -63.1981  -48.6915  -26.0830 C.ar    1  UNL1        0.1946
     35 O         -62.3740  -47.8068  -25.5497 O.2     1  UNL1       -0.4492
     36 C         -61.9161  -47.0490  -26.5160 C.ar    1  UNL1        0.1452
     37 C         -61.0254  -45.9865  -26.4081 C.ar    1  UNL1        0.0375
     38 C         -60.6632  -45.3071  -27.5846 C.ar    1  UNL1        0.0031
     39 C         -61.1930  -45.6979  -28.8445 C.ar    1  UNL1        0.0002
     40 C         -62.0964  -46.7858  -28.9095 C.ar    1  UNL1        0.0028
     41 C         -62.4344  -47.4349  -27.7220 C.ar    1  UNL1        0.0337
     42 C         -60.8032  -44.9730  -30.0805 C.ar    1  UNL1        0.0000
     43 C         -61.7005  -44.0839  -30.7022 C.ar    1  UNL1        0.0000
     44 C         -61.3302  -43.4019  -31.8654 C.ar    1  UNL1        0.0000
     45 C         -60.0640  -43.5990  -32.4206 C.ar    1  UNL1        0.0000
     46 C         -59.1648  -44.4785  -31.8135 C.ar    1  UNL1        0.0000
     47 C         -59.5294  -45.1624  -30.6497 C.ar    1  UNL1        0.0000
@<TRIPOS>BOND
     1    32    33    1
     2    33    34   ar
     3    34    28    1
     4    28    29    2
     5    28    30   am
     6    30     1    1
     7     1     2   ar
     8     2     3   ar
     9     3     4   ar
    10     4     7    1
    11     7     8    1
    12     8     9    1
    13     9    10    1
    14    10    13    1
    15    13    14    1
    16    14    15    1
    17    15    16   ar
    18    16    17   ar
    19    17    18   ar
    20    18    19    1
    21    18    20   ar
    22    20    24    1
    23    24    25    2
    24    24    26    1
    25    20    21   ar
    26    10    11    1
    27    11    12    1
    28     4     5   ar
    29     5     6   ar
    30    34    35   ar
    31    35    36   ar
    32    36    37   ar
    33    37    38   ar
    34    38    39   ar
    35    39    42    1
    36    42    43   ar
    37    43    44   ar
    38    44    45   ar
    39    45    46   ar
    40    46    47   ar
    41    39    40   ar
    42    40    41   ar
    43    41    33   ar
    44     6     1   ar
    45    41    36   ar
    46    12     7    1
    47    47    42   ar
    48    21    15   ar
    49    30    31    1
    50    19    22    1
    51    19    23    1
    52    26    27    1
@<TRIPOS>MOLECULE
*****
 47 52 0 0 0
SMALL
GASTEIGER

@<TRIPOS>ATOM
      1 C         -64.1732  -50.9940  -24.1206 C.ar    1  UNL1        0.0702
      2 C         -63.0222  -51.5041  -23.5007 C.ar    1  UNL1        0.0191
      3 C         -61.8814  -50.7090  -23.3791 C.ar    1  UNL1        0.0356
      4 C         -61.8850  -49.4067  -23.9037 C.ar    1  UNL1        0.1318
      5 N         -63.0116  -48.9371  -24.5082 N.ar    1  UNL1       -0.2279
      6 C         -64.1335  -49.6933  -24.6374 C.ar    1  UNL1        0.1149
      7 N         -60.7350  -48.5490  -23.7776 N.pl3   1  UNL1       -0.2932
      8 C         -59.8022  -48.6749  -22.6488 C.3     1  UNL1        0.0923
      9 C         -59.5395  -47.3043  -22.0022 C.3     1  UNL1        0.0252
     10 C         -59.5881  -46.1256  -23.0129 C.3     1  UNL1        0.0472
     11 C         -59.3382  -46.6052  -24.4545 C.3     1  UNL1        0.0252
     12 C         -60.4184  -47.6161  -24.8694 C.3     1  UNL1        0.0923
     13 C         -58.5893  -45.0166  -22.6307 C.3     1  UNL1        0.2054
     14 O         -58.9619  -43.7663  -23.2133 O.3     1  UNL1       -0.4755
     15 C         -60.1387  -43.0511  -22.9354 C.ar    1  UNL1        0.1388
     16 C         -61.1306  -43.0151  -23.9171 C.ar    1  UNL1        0.0382
     17 C         -62.3213  -42.3225  -23.6990 C.ar    1  UNL1        0.0174
     18 C         -62.5482  -41.6527  -22.4884 C.ar    1  UNL1        0.0480
     19 N         -63.8166  -41.0157  -22.2805 N.pl3   1  UNL1       -0.3568
     20 C         -61.5455  -41.6671  -21.4875 C.ar    1  UNL1        0.0913
     21 C         -60.3544  -42.3788  -21.7178 C.ar    1  UNL1        0.0446
     22 H         -64.1319  -40.7011  -21.3376 H       1  UNL1        0.1424
     23 H         -64.5066  -40.9448  -23.0615 H       1  UNL1        0.1424
     24 C         -61.6886  -40.9185  -20.2181 C.2     1  UNL1        0.3393
     25 O         -61.2303  -41.3958  -19.1466 O.2     1  UNL1       -0.2450
     26 O         -62.3650  -39.7011  -20.1787 O.3     1  UNL1       -0.4771
     27 H         -62.7174  -39.2610  -21.0200 H       1  UNL1        0.2954
     28 C         -65.5726  -53.0635  -23.6605 C.2     1  UNL1        0.2839
     29 O         -64.6652  -53.5921  -22.9642 O.2     1  UNL1       -0.2665
     30 N         -65.3595  -51.7874  -24.2895 N.am    1  UNL1       -0.2766
     31 H         -66.1274  -51.3753  -24.8627 H       1  UNL1        0.1553
     32 C         -68.0848  -53.1672  -21.6203 C.3     1  UNL1        0.0345
     33 C         -67.9351  -53.8260  -22.9581 C.ar    1  UNL1        0.0202
     34 C         -66.8398  -53.7953  -23.8302 C.ar    1  UNL1        0.1946
     35 O         -67.0776  -54.5606  -24.8810 O.2     1  UNL1       -0.4492
     36 C         -68.2796  -55.0657  -24.7477 C.ar    1  UNL1        0.1452
     37 C         -68.9391  -55.9223  -25.6224 C.ar    1  UNL1        0.0375
     38 C         -70.2341  -56.3482  -25.2780 C.ar    1  UNL1        0.0031
     39 C         -70.8471  -55.9146  -24.0710 C.ar    1  UNL1        0.0002
     40 C         -70.1399  -55.0430  -23.2084 C.ar    1  UNL1        0.0028
     41 C         -68.8582  -54.6398  -23.5833 C.ar    1  UNL1        0.0337
     42 C         -72.2152  -56.3709  -23.7176 C.ar    1  UNL1        0.0000
     43 C         -72.6313  -56.4121  -22.3732 C.ar    1  UNL1        0.0000
     44 C         -73.9207  -56.8412  -22.0436 C.ar    1  UNL1        0.0000
     45 C         -74.8073  -57.2338  -23.0487 C.ar    1  UNL1        0.0000
     46 C         -74.4065  -57.1978  -24.3861 C.ar    1  UNL1        0.0000
     47 C         -73.1187  -56.7686  -24.7216 C.ar    1  UNL1        0.0000
@<TRIPOS>BOND
     1    32    33    1
     2    33    34   ar
     3    34    28    1
     4    28    29    2
     5    28    30   am
     6    30     1    1
     7     1     2   ar
     8     2     3   ar
     9     3     4   ar
    10     4     7    1
    11     7     8    1
    12     8     9    1
    13     9    10    1
    14    10    13    1
    15    13    14    1
    16    14    15    1
    17    15    16   ar
    18    16    17   ar
    19    17    18   ar
    20    18    19    1
    21    18    20   ar
    22    20    24    1
    23    24    25    2
    24    24    26    1
    25    20    21   ar
    26    10    11    1
    27    11    12    1
    28     4     5   ar
    29     5     6   ar
    30    34    35   ar
    31    35    36   ar
    32    36    37   ar
    33    37    38   ar
    34    38    39   ar
    35    39    42    1
    36    42    43   ar
    37    43    44   ar
    38    44    45   ar
    39    45    46   ar
    40    46    47   ar
    41    39    40   ar
    42    40    41   ar
    43    41    33   ar
    44     6     1   ar
    45    41    36   ar
    46    12     7    1
    47    47    42   ar
    48    21    15   ar
    49    30    31    1
    50    19    22    1
    51    19    23    1
    52    26    27    1
@<TRIPOS>MOLECULE
*****
 47 52 0 0 0
SMALL
GASTEIGER

@<TRIPOS>ATOM
      1 C         -64.5958  -52.3946  -24.8094 C.ar    1  UNL1        0.0702
      2 C         -65.4468  -53.3171  -25.4372 C.ar    1  UNL1        0.0191
      3 C         -66.0886  -54.3022  -24.6848 C.ar    1  UNL1        0.0356
      4 C         -65.8567  -54.3798  -23.3023 C.ar    1  UNL1        0.1318
      5 N         -65.0199  -53.4781  -22.7175 N.ar    1  UNL1       -0.2279
      6 C         -64.3848  -52.5106  -23.4302 C.ar    1  UNL1        0.1149
      7 N         -66.5179  -55.3679  -22.4897 N.pl3   1  UNL1       -0.2932
      8 C         -67.5506  -56.2540  -23.0452 C.3     1  UNL1        0.0923
      9 C         -68.8029  -56.2596  -22.1522 C.3     1  UNL1        0.0252
     10 C         -68.4860  -56.0685  -20.6435 C.3     1  UNL1        0.0472
     11 C         -67.0337  -56.4613  -20.3158 C.3     1  UNL1        0.0252
     12 C         -66.0566  -55.5806  -21.1096 C.3     1  UNL1        0.0923
     13 C         -69.4721  -56.8547  -19.7586 C.3     1  UNL1        0.2054
     14 O         -70.2788  -55.9711  -18.9777 O.3     1  UNL1       -0.4755
     15 C         -70.2253  -55.8317  -17.5808 C.ar    1  UNL1        0.1388
     16 C         -69.0405  -56.1848  -16.9322 C.ar    1  UNL1        0.0382
     17 C         -68.9265  -56.0671  -15.5472 C.ar    1  UNL1        0.0174
     18 C         -69.9969  -55.5877  -14.7791 C.ar    1  UNL1        0.0480
     19 N         -69.8090  -55.4145  -13.3675 N.pl3   1  UNL1       -0.3568
     20 C         -71.2113  -55.2391  -15.4203 C.ar    1  UNL1        0.0913
     21 C         -71.3076  -55.3530  -16.8189 C.ar    1  UNL1        0.0446
     22 H         -70.4717  -54.8606  -12.7831 H       1  UNL1        0.1424
     23 H         -68.9375  -55.7567  -12.9046 H       1  UNL1        0.1424
     24 C         -72.4044  -54.7988  -14.6622 C.2     1  UNL1        0.3393
     25 O         -72.2762  -54.3043  -13.5111 O.2     1  UNL1       -0.2450
     26 O         -73.6847  -54.9611  -15.1871 O.3     1  UNL1       -0.4771
     27 H         -73.8346  -55.3191  -16.1226 H       1  UNL1        0.2954
     28 C         -64.0683  -49.9682  -25.3455 C.2     1  UNL1        0.2839
     29 O         -64.9244  -49.5414  -24.5255 O.2     1  UNL1       -0.2665
     30 N         -63.8956  -51.3815  -25.5504 N.am    1  UNL1       -0.2766
     31 H         -63.1814  -51.7061  -26.2379 H       1  UNL1        0.1553
     32 C         -64.1551  -49.3785  -28.5281 C.3     1  UNL1        0.0345
     33 C         -63.3219  -48.7152  -27.4737 C.ar    1  UNL1        0.0202
     34 C         -63.2720  -48.9852  -26.1003 C.ar    1  UNL1        0.1946
     35 O         -62.3588  -48.2240  -25.5233 O.2     1  UNL1       -0.4492
     36 C         -61.8318  -47.4572  -26.4463 C.ar    1  UNL1        0.1452
     37 C         -60.8367  -46.4995  -26.2837 C.ar    1  UNL1        0.0375
     38 C         -60.4141  -45.7876  -27.4202 C.ar    1  UNL1        0.0031
     39 C         -60.9885  -46.0424  -28.6952 C.ar    1  UNL1        0.0002
     40 C         -61.9985  -47.0268  -28.8165 C.ar    1  UNL1        0.0028
     41 C         -62.3939  -47.7118  -27.6674 C.ar    1  UNL1        0.0337
     42 C         -60.5342  -45.2844  -29.8885 C.ar    1  UNL1        0.0000
     43 C         -59.2126  -45.4113  -30.3569 C.ar    1  UNL1        0.0000
     44 C         -58.7879  -44.6971  -31.4816 C.ar    1  UNL1        0.0000
     45 C         -59.6745  -43.8497  -32.1498 C.ar    1  UNL1        0.0000
     46 C         -60.9880  -43.7150  -31.6950 C.ar    1  UNL1        0.0000
     47 C         -61.4184  -44.4275  -30.5714 C.ar    1  UNL1        0.0000
@<TRIPOS>BOND
     1    32    33    1
     2    33    34   ar
     3    34    28    1
     4    28    29    2
     5    28    30   am
     6    30     1    1
     7     1     2   ar
     8     2     3   ar
     9     3     4   ar
    10     4     7    1
    11     7     8    1
    12     8     9    1
    13     9    10    1
    14    10    13    1
    15    13    14    1
    16    14    15    1
    17    15    16   ar
    18    16    17   ar
    19    17    18   ar
    20    18    19    1
    21    18    20   ar
    22    20    24    1
    23    24    25    2
    24    24    26    1
    25    20    21   ar
    26    10    11    1
    27    11    12    1
    28     4     5   ar
    29     5     6   ar
    30    34    35   ar
    31    35    36   ar
    32    36    37   ar
    33    37    38   ar
    34    38    39   ar
    35    39    42    1
    36    42    43   ar
    37    43    44   ar
    38    44    45   ar
    39    45    46   ar
    40    46    47   ar
    41    39    40   ar
    42    40    41   ar
    43    41    33   ar
    44     6     1   ar
    45    41    36   ar
    46    12     7    1
    47    47    42   ar
    48    21    15   ar
    49    30    31    1
    50    19    22    1
    51    19    23    1
    52    26    27    1
@<TRIPOS>MOLECULE
*****
 47 52 0 0 0
SMALL
GASTEIGER

@<TRIPOS>ATOM
      1 C         -64.2023  -50.9403  -24.0381 C.ar    1  UNL1        0.0702
      2 C         -63.0661  -51.4159  -23.3657 C.ar    1  UNL1        0.0191
      3 C         -61.9291  -50.6134  -23.2577 C.ar    1  UNL1        0.0356
      4 C         -61.9211  -49.3396  -23.8482 C.ar    1  UNL1        0.1318
      5 N         -63.0332  -48.9038  -24.5027 N.ar    1  UNL1       -0.2279
      6 C         -64.1512  -49.6677  -24.6198 C.ar    1  UNL1        0.1149
      7 N         -60.7750  -48.4744  -23.7387 N.pl3   1  UNL1       -0.2932
      8 C         -59.8151  -48.6062  -22.6336 C.3     1  UNL1        0.0923
      9 C         -59.5478  -47.2412  -21.9770 C.3     1  UNL1        0.0252
     10 C         -59.6290  -46.0512  -22.9722 C.3     1  UNL1        0.0472
     11 C         -59.4093  -46.5119  -24.4248 C.3     1  UNL1        0.0252
     12 C         -60.4912  -47.5263  -24.8264 C.3     1  UNL1        0.0923
     13 C         -58.6300  -44.9389  -22.6002 C.3     1  UNL1        0.2054
     14 O         -58.9713  -43.7071  -23.2386 O.3     1  UNL1       -0.4755
     15 C         -60.2398  -43.1032  -23.2293 C.ar    1  UNL1        0.1388
     16 C         -60.7369  -42.6422  -22.0089 C.ar    1  UNL1        0.0382
     17 C         -61.9893  -42.0329  -21.9366 C.ar    1  UNL1        0.0174
     18 C         -62.7720  -41.8667  -23.0879 C.ar    1  UNL1        0.0480
     19 N         -64.0206  -41.1691  -22.9774 N.pl3   1  UNL1       -0.3568
     20 C         -62.2884  -42.3424  -24.3317 C.ar    1  UNL1        0.0913
     21 C         -61.0190  -42.9451  -24.3908 C.ar    1  UNL1        0.0446
     22 H         -64.5357  -40.8174  -23.8132 H       1  UNL1        0.1424
     23 H         -64.3960  -40.9028  -22.0399 H       1  UNL1        0.1424
     24 C         -63.0947  -42.2676  -25.5712 C.2     1  UNL1        0.3393
     25 O         -63.0340  -43.1933  -26.4229 O.2     1  UNL1       -0.2450
     26 O         -63.8974  -41.1600  -25.8358 O.3     1  UNL1       -0.4771
     27 H         -64.0066  -40.4096  -25.1644 H       1  UNL1        0.2954
     28 C         -65.5629  -53.0394  -23.5960 C.2     1  UNL1        0.2839
     29 O         -64.6289  -53.5759  -22.9421 O.2     1  UNL1       -0.2665
     30 N         -65.3837  -51.7437  -24.1945 N.am    1  UNL1       -0.2766
     31 H         -66.1731  -51.3253  -24.7328 H       1  UNL1        0.1553
     32 C         -68.0845  -53.0920  -21.5655 C.3     1  UNL1        0.0345
     33 C         -67.9253  -53.7911  -22.8816 C.ar    1  UNL1        0.0202
     34 C         -66.8258  -53.7822  -23.7491 C.ar    1  UNL1        0.1946
     35 O         -67.0550  -54.5807  -24.7768 O.2     1  UNL1       -0.4492
     36 C         -68.2553  -55.0872  -24.6336 C.ar    1  UNL1        0.1452
     37 C         -68.9065  -55.9735  -25.4845 C.ar    1  UNL1        0.0375
     38 C         -70.2012  -56.3946  -25.1333 C.ar    1  UNL1        0.0031
     39 C         -70.8221  -55.9269  -23.9432 C.ar    1  UNL1        0.0002
     40 C         -70.1232  -55.0257  -23.1046 C.ar    1  UNL1        0.0028
     41 C         -68.8415  -54.6282  -23.4857 C.ar    1  UNL1        0.0337
     42 C         -72.1899  -56.3785  -23.5824 C.ar    1  UNL1        0.0000
     43 C         -72.5164  -56.6755  -22.2454 C.ar    1  UNL1        0.0000
     44 C         -73.8056  -57.0995  -21.9085 C.ar    1  UNL1        0.0000
     45 C         -74.7811  -57.2326  -22.8990 C.ar    1  UNL1        0.0000
     46 C         -74.4697  -56.9413  -24.2290 C.ar    1  UNL1        0.0000
     47 C         -73.1825  -56.5160  -24.5715 C.ar    1  UNL1        0.0000
@<TRIPOS>BOND
     1    32    33    1
     2    33    34   ar
     3    34    28    1
     4    28    29    2
     5    28    30   am
     6    30     1    1
     7     1     2   ar
     8     2     3   ar
     9     3     4   ar
    10     4     7    1
    11     7     8    1
    12     8     9    1
    13     9    10    1
    14    10    13    1
    15    13    14    1
    16    14    15    1
    17    15    16   ar
    18    16    17   ar
    19    17    18   ar
    20    18    19    1
    21    18    20   ar
    22    20    24    1
    23    24    25    2
    24    24    26    1
    25    20    21   ar
    26    10    11    1
    27    11    12    1
    28     4     5   ar
    29     5     6   ar
    30    34    35   ar
    31    35    36   ar
    32    36    37   ar
    33    37    38   ar
    34    38    39   ar
    35    39    42    1
    36    42    43   ar
    37    43    44   ar
    38    44    45   ar
    39    45    46   ar
    40    46    47   ar
    41    39    40   ar
    42    40    41   ar
    43    41    33   ar
    44     6     1   ar
    45    41    36   ar
    46    12     7    1
    47    47    42   ar
    48    21    15   ar
    49    30    31    1
    50    19    22    1
    51    19    23    1
    52    26    27    1
@<TRIPOS>MOLECULE
*****
 47 52 0 0 0
SMALL
GASTEIGER

@<TRIPOS>ATOM
      1 C         -61.8281  -45.1835  -22.4141 C.ar    1  UNL1        0.0702
      2 C         -60.9561  -45.9833  -21.6597 C.ar    1  UNL1        0.0191
      3 C         -60.7886  -47.3315  -21.9801 C.ar    1  UNL1        0.0356
      4 C         -61.5171  -47.8869  -23.0440 C.ar    1  UNL1        0.1318
      5 N         -62.3635  -47.0921  -23.7560 N.ar    1  UNL1       -0.2279
      6 C         -62.5419  -45.7771  -23.4621 C.ar    1  UNL1        0.1149
      7 N         -61.3543  -49.2680  -23.4184 N.pl3   1  UNL1       -0.2932
      8 C         -62.0481  -49.8357  -24.5830 C.3     1  UNL1        0.0923
      9 C         -62.7558  -51.1493  -24.2099 C.3     1  UNL1        0.0252
     10 C         -62.0147  -51.9591  -23.1108 C.3     1  UNL1        0.0472
     11 C         -60.5238  -51.5816  -23.0379 C.3     1  UNL1        0.0252
     12 C         -60.3725  -50.0912  -22.6965 C.3     1  UNL1        0.0923
     13 C         -62.1791  -53.4760  -23.3239 C.3     1  UNL1        0.2054
     14 O         -63.0827  -54.0343  -22.3683 O.3     1  UNL1       -0.4755
     15 C         -64.4224  -54.3801  -22.6118 C.ar    1  UNL1        0.1388
     16 C         -65.0976  -53.7071  -23.6317 C.ar    1  UNL1        0.0382
     17 C         -66.4284  -54.0074  -23.9213 C.ar    1  UNL1        0.0174
     18 C         -67.1133  -54.9939  -23.1979 C.ar    1  UNL1        0.0480
     19 N         -68.4572  -55.3198  -23.5793 N.pl3   1  UNL1       -0.3568
     20 C         -66.4469  -55.6758  -22.1499 C.ar    1  UNL1        0.0913
     21 C         -65.1017  -55.3696  -21.8765 C.ar    1  UNL1        0.0446
     22 H         -68.9369  -56.1816  -23.2405 H       1  UNL1        0.1424
     23 H         -68.9564  -54.7479  -24.2967 H       1  UNL1        0.1424
     24 C         -67.1330  -56.6735  -21.2978 C.2     1  UNL1        0.3393
     25 O         -68.1868  -57.2328  -21.7010 O.2     1  UNL1       -0.2450
     26 O         -66.6523  -56.9786  -20.0262 O.3     1  UNL1       -0.4771
     27 H         -65.7890  -56.5823  -19.6746 H       1  UNL1        0.2954
     28 C         -63.1295  -43.3186  -21.2821 C.2     1  UNL1        0.2839
     29 O         -64.0014  -44.1157  -20.8438 O.2     1  UNL1       -0.2665
     30 N         -62.0491  -43.7981  -22.1019 N.am    1  UNL1       -0.2766
     31 H         -61.3435  -43.1150  -22.4533 H       1  UNL1        0.1553
     32 C         -65.5279  -41.8763  -19.6537 C.3     1  UNL1        0.0345
     33 C         -64.2874  -41.2659  -20.2324 C.ar    1  UNL1        0.0202
     34 C         -63.2608  -41.8887  -20.9531 C.ar    1  UNL1        0.1946
     35 O         -62.3758  -40.9897  -21.3467 O.2     1  UNL1       -0.4492
     36 C         -62.7620  -39.8206  -20.8975 C.ar    1  UNL1        0.1452
     37 C         -62.1271  -38.5957  -21.0712 C.ar    1  UNL1        0.0375
     38 C         -62.7231  -37.4568  -20.5014 C.ar    1  UNL1        0.0031
     39 C         -63.9384  -37.5584  -19.7711 C.ar    1  UNL1        0.0002
     40 C         -64.5521  -38.8249  -19.6189 C.ar    1  UNL1        0.0028
     41 C         -63.9314  -39.9328  -20.1961 C.ar    1  UNL1        0.0337
     42 C         -64.5589  -36.3487  -19.1738 C.ar    1  UNL1        0.0000
     43 C         -65.8225  -35.9040  -19.6070 C.ar    1  UNL1        0.0000
     44 C         -66.4047  -34.7653  -19.0418 C.ar    1  UNL1        0.0000
     45 C         -65.7344  -34.0584  -18.0411 C.ar    1  UNL1        0.0000
     46 C         -64.4803  -34.4892  -17.6028 C.ar    1  UNL1        0.0000
     47 C         -63.8937  -35.6278  -18.1637 C.ar    1  UNL1        0.0000
@<TRIPOS>BOND
     1    32    33    1
     2    33    34   ar
     3    34    28    1
     4    28    29    2
     5    28    30   am
     6    30     1    1
     7     1     2   ar
     8     2     3   ar
     9     3     4   ar
    10     4     7    1
    11     7     8    1
    12     8     9    1
    13     9    10    1
    14    10    13    1
    15    13    14    1
    16    14    15    1
    17    15    16   ar
    18    16    17   ar
    19    17    18   ar
    20    18    19    1
    21    18    20   ar
    22    20    24    1
    23    24    25    2
    24    24    26    1
    25    20    21   ar
    26    10    11    1
    27    11    12    1
    28     4     5   ar
    29     5     6   ar
    30    34    35   ar
    31    35    36   ar
    32    36    37   ar
    33    37    38   ar
    34    38    39   ar
    35    39    42    1
    36    42    43   ar
    37    43    44   ar
    38    44    45   ar
    39    45    46   ar
    40    46    47   ar
    41    39    40   ar
    42    40    41   ar
    43    41    33   ar
    44     6     1   ar
    45    41    36   ar
    46    12     7    1
    47    47    42   ar
    48    21    15   ar
    49    30    31    1
    50    19    22    1
    51    19    23    1
    52    26    27    1
@<TRIPOS>MOLECULE
*****
 47 52 0 0 0
SMALL
GASTEIGER

@<TRIPOS>ATOM
      1 C         -63.6526  -50.3857  -24.3421 C.ar    1  UNL1        0.0702
      2 C         -62.8383  -51.3427  -23.7172 C.ar    1  UNL1        0.0191
      3 C         -63.3665  -52.5834  -23.3565 C.ar    1  UNL1        0.0356
      4 C         -64.7220  -52.8568  -23.5990 C.ar    1  UNL1        0.1318
      5 N         -65.4939  -51.9086  -24.1992 N.ar    1  UNL1       -0.2279
      6 C         -65.0009  -50.6943  -24.5592 C.ar    1  UNL1        0.1149
      7 N         -65.2971  -54.1332  -23.2614 N.pl3   1  UNL1       -0.2932
      8 C         -66.4569  -54.6700  -23.9872 C.3     1  UNL1        0.0923
      9 C         -67.5437  -55.1425  -23.0066 C.3     1  UNL1        0.0252
     10 C         -66.9726  -55.6951  -21.6719 C.3     1  UNL1        0.0472
     11 C         -65.5116  -56.1553  -21.8286 C.3     1  UNL1        0.0252
     12 C         -64.6285  -54.9728  -22.2560 C.3     1  UNL1        0.0923
     13 C         -67.8439  -56.8391  -21.1191 C.3     1  UNL1        0.2054
     14 O         -68.3799  -56.5038  -19.8378 O.3     1  UNL1       -0.4755
     15 C         -69.5088  -55.7002  -19.6066 C.ar    1  UNL1        0.1388
     16 C         -69.3220  -54.4805  -18.9536 C.ar    1  UNL1        0.0382
     17 C         -70.4041  -53.6390  -18.6971 C.ar    1  UNL1        0.0174
     18 C         -71.7000  -53.9982  -19.0937 C.ar    1  UNL1        0.0480
     19 N         -72.7704  -53.0687  -18.8742 N.pl3   1  UNL1       -0.3568
     20 C         -71.9088  -55.2395  -19.7442 C.ar    1  UNL1        0.0913
     21 C         -70.8062  -56.0727  -20.0056 C.ar    1  UNL1        0.0446
     22 H         -73.6986  -53.1714  -19.3384 H       1  UNL1        0.1424
     23 H         -72.6095  -52.1992  -18.3185 H       1  UNL1        0.1424
     24 C         -73.2597  -55.7140  -20.1212 C.2     1  UNL1        0.3393
     25 O         -73.4348  -56.9099  -20.4750 O.2     1  UNL1       -0.2450
     26 O         -74.3463  -54.8420  -20.1318 O.3     1  UNL1       -0.4771
     27 H         -74.2611  -53.8822  -19.8199 H       1  UNL1        0.2954
     28 C         -63.3884  -48.4627  -25.9807 C.2     1  UNL1        0.2839
     29 O         -64.0017  -49.0799  -26.8920 O.2     1  UNL1       -0.2665
     30 N         -63.1556  -49.0872  -24.7059 N.am    1  UNL1       -0.2766
     31 H         -62.6422  -48.5536  -23.9712 H       1  UNL1        0.1553
     32 C         -63.7290  -46.7699  -28.7198 C.3     1  UNL1        0.0345
     33 C         -63.0622  -46.3612  -27.4413 C.ar    1  UNL1        0.0202
     34 C         -62.8992  -47.1024  -26.2643 C.ar    1  UNL1        0.1946
     35 O         -62.1962  -46.4079  -25.3870 O.2     1  UNL1       -0.4492
     36 C         -61.9164  -45.2457  -25.9244 C.ar    1  UNL1        0.1452
     37 C         -61.1988  -44.2004  -25.3533 C.ar    1  UNL1        0.0375
     38 C         -61.0125  -43.0339  -26.1159 C.ar    1  UNL1        0.0031
     39 C         -61.5426  -42.9303  -27.4308 C.ar    1  UNL1        0.0002
     40 C         -62.2663  -44.0187  -27.9744 C.ar    1  UNL1        0.0028
     41 C         -62.4329  -45.1590  -27.1884 C.ar    1  UNL1        0.0337
     42 C         -61.3396  -41.6934  -28.2270 C.ar    1  UNL1        0.0000
     43 C         -60.1636  -40.9331  -28.0813 C.ar    1  UNL1        0.0000
     44 C         -59.9747  -39.7695  -28.8333 C.ar    1  UNL1        0.0000
     45 C         -60.9546  -39.3516  -29.7364 C.ar    1  UNL1        0.0000
     46 C         -62.1257  -40.0969  -29.8900 C.ar    1  UNL1        0.0000
     47 C         -62.3195  -41.2619  -29.1414 C.ar    1  UNL1        0.0000
@<TRIPOS>BOND
     1    32    33    1
     2    33    34   ar
     3    34    28    1
     4    28    29    2
     5    28    30   am
     6    30     1    1
     7     1     2   ar
     8     2     3   ar
     9     3     4   ar
    10     4     7    1
    11     7     8    1
    12     8     9    1
    13     9    10    1
    14    10    13    1
    15    13    14    1
    16    14    15    1
    17    15    16   ar
    18    16    17   ar
    19    17    18   ar
    20    18    19    1
    21    18    20   ar
    22    20    24    1
    23    24    25    2
    24    24    26    1
    25    20    21   ar
    26    10    11    1
    27    11    12    1
    28     4     5   ar
    29     5     6   ar
    30    34    35   ar
    31    35    36   ar
    32    36    37   ar
    33    37    38   ar
    34    38    39   ar
    35    39    42    1
    36    42    43   ar
    37    43    44   ar
    38    44    45   ar
    39    45    46   ar
    40    46    47   ar
    41    39    40   ar
    42    40    41   ar
    43    41    33   ar
    44     6     1   ar
    45    41    36   ar
    46    12     7    1
    47    47    42   ar
    48    21    15   ar
    49    30    31    1
    50    19    22    1
    51    19    23    1
    52    26    27    1
