@<TRIPOS>MOLECULE
*****
 37 41 0 0 0
SMALL
GASTEIGER

@<TRIPOS>ATOM
      1 C          49.2093   12.6254  -25.3752 C.2     1  UNL1        0.2496
      2 O          48.0702   12.0903  -25.2894 O.2     1  UNL1       -0.2699
      3 N          50.3974   11.8035  -25.3247 N.am    1  UNL1       -0.2613
      4 C          51.5159   12.2745  -24.4907 C.3     1  UNL1        0.1419
      5 C          52.8350   11.5721  -24.7890 C.3     1  UNL1        0.2268
      6 O          53.1330   11.6228  -26.1744 O.3     1  UNL1       -0.4739
      7 C          52.5573   10.7947  -27.1447 C.ar    1  UNL1        0.1369
      8 C          53.3005   10.5920  -28.3123 C.ar    1  UNL1        0.0367
      9 C          52.8382    9.7510  -29.3218 C.ar    1  UNL1        0.0031
     10 C          51.6127    9.0874  -29.1841 C.ar    1  UNL1        0.0000
     11 C          50.8496    9.3020  -28.0255 C.ar    1  UNL1        0.0011
     12 C          51.2850   10.1760  -27.0080 C.ar    1  UNL1        0.0396
     13 C          50.3321   10.4244  -25.8504 C.3     1  UNL1        0.1539
     14 I          50.4766    8.9289  -24.3128 I       1  UNL1       -0.0478
     15 C          51.1163    8.1917  -30.2581 C.ar    1  UNL1        0.0015
     16 C          52.0313    7.5339  -31.1268 C.ar    1  UNL1        0.0016
     17 C          51.5707    6.6783  -32.1451 C.ar    1  UNL1        0.0206
     18 C          50.1970    6.5000  -32.2695 C.ar    1  UNL1        0.0985
     19 N          49.5432    5.7330  -33.1604 N.ar    1  UNL1       -0.2241
     20 C          48.2398    5.9283  -32.8277 C.ar    1  UNL1        0.1750
     21 N          48.0694    6.7730  -31.7823 N.ar    1  UNL1       -0.3349
     22 C          49.3150    7.1248  -31.4434 C.ar    1  UNL1        0.0757
     23 C          49.7261    7.9792  -30.4242 C.ar    1  UNL1        0.0185
     24 H          47.1715    7.0772  -31.3445 H       1  UNL1        0.1675
     25 C          48.8674   14.9529  -24.4117 C.ar    1  UNL1       -0.0165
     26 C          49.0005   16.3450  -24.5648 C.ar    1  UNL1        0.0142
     27 C          49.5299   16.8913  -25.7395 C.ar    1  UNL1        0.1054
     28 C          49.9360   16.0447  -26.7745 C.ar    1  UNL1        0.0185
     29 C          49.8248   14.6615  -26.6345 C.ar    1  UNL1        0.0055
     30 C          49.2858   14.1002  -25.4664 C.ar    1  UNL1        0.0497
     31 S          49.6627   18.6377  -25.9181 S.O2    1  UNL1        0.0104
     32 C          48.1295   19.3975  -25.4349 C.3     1  UNL1        0.1816
     33 O          50.7766   19.1538  -25.0508 O.2     1  UNL1       -0.1686
     34 O          49.9655   18.9851  -27.3488 O.2     1  UNL1       -0.1686
     35 C          48.3613   14.4180  -23.0903 C.3     1  UNL1        0.0265
     36 C          49.6147   13.4891  -21.1069 C.3     1  UNL1        0.0004
     37 C          49.3444   14.7279  -21.9559 C.3     1  UNL1        0.0047
@<TRIPOS>BOND
     1    36    37    1
     2    37    35    1
     3    35    25    1
     4    25    26   ar
     5    26    27   ar
     6    27    31    1
     7    31    32    1
     8    31    33    2
     9    31    34    2
    10    27    28   ar
    11    28    29   ar
    12    29    30   ar
    13    30     1    1
    14     1     2    2
    15     1     3   am
    16     3     4    1
    17     4     5    1
    18     5     6    1
    19     6     7    1
    20     7     8   ar
    21     8     9   ar
    22     9    10   ar
    23    10    15    1
    24    15    16   ar
    25    16    17   ar
    26    17    18   ar
    27    18    19   ar
    28    19    20   ar
    29    20    21   ar
    30    21    22   ar
    31    22    23   ar
    32    10    11   ar
    33    11    12   ar
    34    12    13    1
    35    13    14    1
    36    30    25   ar
    37    13     3    1
    38    12     7   ar
    39    23    15   ar
    40    22    18   ar
    41    21    24    1
@<TRIPOS>MOLECULE
*****
 37 41 0 0 0
SMALL
GASTEIGER

@<TRIPOS>ATOM
      1 C          49.0926   12.5594  -25.4445 C.2     1  UNL1        0.2496
      2 O          47.9743   11.9827  -25.3552 O.2     1  UNL1       -0.2699
      3 N          50.3105   11.7824  -25.3927 N.am    1  UNL1       -0.2613
      4 C          51.4118   12.2976  -24.5620 C.3     1  UNL1        0.1419
      5 C          52.7557   11.6436  -24.8597 C.3     1  UNL1        0.2268
      6 O          53.0498   11.7003  -26.2457 O.3     1  UNL1       -0.4739
      7 C          52.5041   10.8479  -27.2122 C.ar    1  UNL1        0.1369
      8 C          53.2528   10.6687  -28.3802 C.ar    1  UNL1        0.0367
      9 C          52.8206    9.8075  -29.3860 C.ar    1  UNL1        0.0031
     10 C          51.6209    9.0994  -29.2442 C.ar    1  UNL1        0.0000
     11 C          50.8518    9.2896  -28.0853 C.ar    1  UNL1        0.0011
     12 C          51.2558   10.1829  -27.0715 C.ar    1  UNL1        0.0396
     13 C          50.2958   10.4000  -25.9135 C.3     1  UNL1        0.1539
     14 I          50.4977    8.9164  -24.3708 I       1  UNL1       -0.0478
     15 C          51.1566    8.1820  -30.3143 C.ar    1  UNL1        0.0015
     16 C          52.0966    7.5220  -31.1542 C.ar    1  UNL1        0.0016
     17 C          51.6666    6.6459  -32.1685 C.ar    1  UNL1        0.0206
     18 C          50.2978    6.4499  -32.3181 C.ar    1  UNL1        0.0985
     19 N          49.6711    5.6620  -33.2102 N.ar    1  UNL1       -0.2241
     20 C          48.3591    5.8472  -32.9070 C.ar    1  UNL1        0.1750
     21 N          48.1577    6.7054  -31.8783 N.ar    1  UNL1       -0.3349
     22 C          49.3922    7.0766  -31.5196 C.ar    1  UNL1        0.0757
     23 C          49.7726    7.9509  -30.5054 C.ar    1  UNL1        0.0185
     24 H          47.2477    7.0057  -31.4634 H       1  UNL1        0.1675
     25 C          48.1078   14.8532  -24.9638 C.ar    1  UNL1       -0.0165
     26 C          48.2165   16.2515  -25.0742 C.ar    1  UNL1        0.0142
     27 C          49.2941   16.8373  -25.7481 C.ar    1  UNL1        0.1054
     28 C          50.2788   16.0250  -26.3167 C.ar    1  UNL1        0.0185
     29 C          50.1949   14.6373  -26.2046 C.ar    1  UNL1        0.0055
     30 C          49.1143   14.0357  -25.5410 C.ar    1  UNL1        0.0497
     31 S          49.3950   18.5888  -25.8954 S.O2    1  UNL1        0.0104
     32 C          47.9097   19.3209  -25.2480 C.3     1  UNL1        0.1816
     33 O          50.5833   19.0956  -25.1271 O.2     1  UNL1       -0.1686
     34 O          49.5553   18.9734  -27.3397 O.2     1  UNL1       -0.1686
     35 C          46.9631   14.2805  -24.1575 C.3     1  UNL1        0.0265
     36 C          44.8183   13.0947  -24.7586 C.3     1  UNL1        0.0004
     37 C          45.6438   14.3660  -24.9332 C.3     1  UNL1        0.0047
@<TRIPOS>BOND
     1    36    37    1
     2    37    35    1
     3    35    25    1
     4    25    26   ar
     5    26    27   ar
     6    27    31    1
     7    31    32    1
     8    31    33    2
     9    31    34    2
    10    27    28   ar
    11    28    29   ar
    12    29    30   ar
    13    30     1    1
    14     1     2    2
    15     1     3   am
    16     3     4    1
    17     4     5    1
    18     5     6    1
    19     6     7    1
    20     7     8   ar
    21     8     9   ar
    22     9    10   ar
    23    10    15    1
    24    15    16   ar
    25    16    17   ar
    26    17    18   ar
    27    18    19   ar
    28    19    20   ar
    29    20    21   ar
    30    21    22   ar
    31    22    23   ar
    32    10    11   ar
    33    11    12   ar
    34    12    13    1
    35    13    14    1
    36    30    25   ar
    37    13     3    1
    38    12     7   ar
    39    23    15   ar
    40    22    18   ar
    41    21    24    1
@<TRIPOS>MOLECULE
*****
 37 41 0 0 0
SMALL
GASTEIGER

@<TRIPOS>ATOM
      1 C          50.0702   13.9883  -22.3983 C.2     1  UNL1        0.2496
      2 O          51.1142   13.5820  -22.9781 O.2     1  UNL1       -0.2699
      3 N          49.2639   15.0224  -23.0067 N.am    1  UNL1       -0.2613
      4 C          48.7754   16.1050  -22.1363 C.3     1  UNL1        0.1419
      5 C          47.6453   16.9195  -22.7544 C.3     1  UNL1        0.2268
      6 O          46.6005   16.0737  -23.2057 O.3     1  UNL1       -0.4739
      7 C          46.6261   15.3415  -24.3981 C.ar    1  UNL1        0.1369
      8 C          45.3856   15.0067  -24.9513 C.ar    1  UNL1        0.0367
      9 C          45.2995   14.3172  -26.1584 C.ar    1  UNL1        0.0031
     10 C          46.4616   13.9453  -26.8455 C.ar    1  UNL1        0.0000
     11 C          47.7112   14.2575  -26.2870 C.ar    1  UNL1        0.0011
     12 C          47.8188   14.9250  -25.0494 C.ar    1  UNL1        0.0396
     13 C          49.2155   15.1131  -24.4804 C.3     1  UNL1        0.1539
     14 I          50.2034   16.8605  -25.2499 I       1  UNL1       -0.0478
     15 C          46.3737   13.2094  -28.1312 C.ar    1  UNL1        0.0015
     16 C          46.6464   11.8138  -28.1817 C.ar    1  UNL1        0.0016
     17 C          46.5607   11.1057  -29.3951 C.ar    1  UNL1        0.0206
     18 C          46.2012   11.8159  -30.5356 C.ar    1  UNL1        0.0985
     19 N          46.0564   11.3455  -31.7875 N.ar    1  UNL1       -0.2241
     20 C          45.6971   12.4542  -32.4869 C.ar    1  UNL1        0.1750
     21 N          45.6164   13.5715  -31.7249 N.ar    1  UNL1       -0.3349
     22 C          45.9387   13.1501  -30.4966 C.ar    1  UNL1        0.0757
     23 C          46.0118   13.8895  -29.3194 C.ar    1  UNL1        0.0185
     24 H          45.3611   14.5372  -32.0293 H       1  UNL1        0.1675
     25 C          48.4820   12.8322  -20.7848 C.ar    1  UNL1       -0.0165
     26 C          48.2568   12.2903  -19.5062 C.ar    1  UNL1        0.0142
     27 C          49.2505   12.3349  -18.5217 C.ar    1  UNL1        0.1054
     28 C          50.4853   12.9218  -18.8111 C.ar    1  UNL1        0.0185
     29 C          50.7312   13.4513  -20.0778 C.ar    1  UNL1        0.0055
     30 C          49.7402   13.4231  -21.0713 C.ar    1  UNL1        0.0497
     31 S          48.9362   11.6730  -16.9208 S.O2    1  UNL1        0.0104
     32 C          48.9401   12.9911  -15.7275 C.3     1  UNL1        0.1816
     33 O          47.5996   10.9857  -16.9088 O.2     1  UNL1       -0.1686
     34 O          49.9972   10.6700  -16.5636 O.2     1  UNL1       -0.1686
     35 C          47.3993   12.6852  -21.8310 C.3     1  UNL1        0.0265
     36 C          47.8227   11.3337  -23.9195 C.3     1  UNL1        0.0004
     37 C          47.4156   11.2830  -22.4498 C.3     1  UNL1        0.0047
@<TRIPOS>BOND
     1    36    37    1
     2    37    35    1
     3    35    25    1
     4    25    26   ar
     5    26    27   ar
     6    27    31    1
     7    31    32    1
     8    31    33    2
     9    31    34    2
    10    27    28   ar
    11    28    29   ar
    12    29    30   ar
    13    30     1    1
    14     1     2    2
    15     1     3   am
    16     3     4    1
    17     4     5    1
    18     5     6    1
    19     6     7    1
    20     7     8   ar
    21     8     9   ar
    22     9    10   ar
    23    10    15    1
    24    15    16   ar
    25    16    17   ar
    26    17    18   ar
    27    18    19   ar
    28    19    20   ar
    29    20    21   ar
    30    21    22   ar
    31    22    23   ar
    32    10    11   ar
    33    11    12   ar
    34    12    13    1
    35    13    14    1
    36    30    25   ar
    37    13     3    1
    38    12     7   ar
    39    23    15   ar
    40    22    18   ar
    41    21    24    1
@<TRIPOS>MOLECULE
*****
 37 41 0 0 0
SMALL
GASTEIGER

@<TRIPOS>ATOM
      1 C          50.1314   13.2796  -22.4769 C.2     1  UNL1        0.2496
      2 O          51.2977   13.0563  -22.9024 O.2     1  UNL1       -0.2699
      3 N          49.1791   13.9732  -23.3145 N.am    1  UNL1       -0.2613
      4 C          48.3620   15.0261  -22.6883 C.3     1  UNL1        0.1419
      5 C          47.1485   15.4285  -23.5177 C.3     1  UNL1        0.2268
      6 O          46.3828   14.2909  -23.8785 O.3     1  UNL1       -0.4739
      7 C          46.7063   13.4080  -24.9150 C.ar    1  UNL1        0.1369
      8 C          45.6444   12.6946  -25.4811 C.ar    1  UNL1        0.0367
      9 C          45.8517   11.8226  -26.5473 C.ar    1  UNL1        0.0031
     10 C          47.1359   11.6442  -27.0763 C.ar    1  UNL1        0.0000
     11 C          48.2112   12.3391  -26.5004 C.ar    1  UNL1        0.0011
     12 C          48.0265   13.2001  -25.3988 C.ar    1  UNL1        0.0396
     13 C          49.2716   13.8142  -24.7803 C.3     1  UNL1        0.1539
     14 I          49.9068   15.6062  -25.7838 I       1  UNL1       -0.0478
     15 C          47.3607   10.7150  -28.2113 C.ar    1  UNL1        0.0015
     16 C          46.5357   10.7799  -29.3688 C.ar    1  UNL1        0.0016
     17 C          46.7441    9.9067  -30.4527 C.ar    1  UNL1        0.0206
     18 C          47.7801    8.9842  -30.3517 C.ar    1  UNL1        0.0985
     19 N          48.1569    8.0658  -31.2594 N.ar    1  UNL1       -0.2241
     20 C          49.2053    7.4516  -30.6501 C.ar    1  UNL1        0.1750
     21 N          49.4838    7.9495  -29.4213 N.ar    1  UNL1       -0.3349
     22 C          48.5738    8.9152  -29.2490 C.ar    1  UNL1        0.0757
     23 C          48.4032    9.7582  -28.1545 C.ar    1  UNL1        0.0185
     24 H          50.2359    7.6470  -28.7631 H       1  UNL1        0.1675
     25 C          48.7509   11.9572  -20.8012 C.ar    1  UNL1       -0.0165
     26 C          48.5168   11.5937  -19.4624 C.ar    1  UNL1        0.0142
     27 C          49.2958   12.1233  -18.4275 C.ar    1  UNL1        0.1054
     28 C          50.3231   13.0227  -18.7252 C.ar    1  UNL1        0.0185
     29 C          50.5788   13.3834  -20.0481 C.ar    1  UNL1        0.0055
     30 C          49.7987   12.8684  -21.0951 C.ar    1  UNL1        0.0497
     31 S          48.9673   11.6732  -16.7574 S.O2    1  UNL1        0.0104
     32 C          48.8881   13.1406  -15.7566 C.3     1  UNL1        0.1816
     33 O          47.6591   10.9372  -16.6777 O.2     1  UNL1       -0.1686
     34 O          50.0578   10.7747  -16.2446 O.2     1  UNL1       -0.1686
     35 C          47.9281   11.2931  -21.8830 C.3     1  UNL1        0.0265
     36 C          49.3860    9.4517  -22.8057 C.3     1  UNL1        0.0004
     37 C          48.1854    9.7826  -21.9240 C.3     1  UNL1        0.0047
@<TRIPOS>BOND
     1    36    37    1
     2    37    35    1
     3    35    25    1
     4    25    26   ar
     5    26    27   ar
     6    27    31    1
     7    31    32    1
     8    31    33    2
     9    31    34    2
    10    27    28   ar
    11    28    29   ar
    12    29    30   ar
    13    30     1    1
    14     1     2    2
    15     1     3   am
    16     3     4    1
    17     4     5    1
    18     5     6    1
    19     6     7    1
    20     7     8   ar
    21     8     9   ar
    22     9    10   ar
    23    10    15    1
    24    15    16   ar
    25    16    17   ar
    26    17    18   ar
    27    18    19   ar
    28    19    20   ar
    29    20    21   ar
    30    21    22   ar
    31    22    23   ar
    32    10    11   ar
    33    11    12   ar
    34    12    13    1
    35    13    14    1
    36    30    25   ar
    37    13     3    1
    38    12     7   ar
    39    23    15   ar
    40    22    18   ar
    41    21    24    1
@<TRIPOS>MOLECULE
*****
 37 41 0 0 0
SMALL
GASTEIGER

@<TRIPOS>ATOM
      1 C          48.0473   12.4170  -24.5123 C.2     1  UNL1        0.2496
      2 O          47.0832   11.6043  -24.5484 O.2     1  UNL1       -0.2699
      3 N          49.3977   11.9266  -24.3527 N.am    1  UNL1       -0.2613
      4 C          50.2721   12.6370  -23.4045 C.3     1  UNL1        0.1419
      5 C          51.7503   12.3091  -23.5772 C.3     1  UNL1        0.2268
      6 O          52.1539   12.4875  -24.9248 O.3     1  UNL1       -0.4739
      7 C          51.9067   11.5769  -25.9584 C.ar    1  UNL1        0.1369
      8 C          52.7834   11.6167  -27.0477 C.ar    1  UNL1        0.0367
      9 C          52.6521   10.7243  -28.1091 C.ar    1  UNL1        0.0031
     10 C          51.6335    9.7635  -28.1038 C.ar    1  UNL1        0.0000
     11 C          50.7353    9.7303  -27.0254 C.ar    1  UNL1        0.0011
     12 C          50.8314   10.6473  -25.9583 C.ar    1  UNL1        0.0396
     13 C          49.7422   10.5982  -24.8996 C.3     1  UNL1        0.1539
     14 I          50.1245    9.1325  -23.3742 I       1  UNL1       -0.0478
     15 C          51.4897    8.8119  -29.2335 C.ar    1  UNL1        0.0015
     16 C          50.2091    8.3014  -29.5858 C.ar    1  UNL1        0.0016
     17 C          50.0614    7.4026  -30.6589 C.ar    1  UNL1        0.0206
     18 C          51.2060    7.0348  -31.3582 C.ar    1  UNL1        0.0985
     19 N          51.2967    6.2002  -32.4092 N.ar    1  UNL1       -0.2241
     20 C          52.6269    6.2097  -32.6882 C.ar    1  UNL1        0.1750
     21 N          53.3470    7.0061  -31.8620 N.ar    1  UNL1       -0.3349
     22 C          52.4342    7.5179  -31.0283 C.ar    1  UNL1        0.0757
     23 C          52.6263    8.4076  -29.9751 C.ar    1  UNL1        0.0185
     24 H          54.3768    7.1785  -31.8754 H       1  UNL1        0.1675
     25 C          47.6184   14.5633  -25.8054 C.ar    1  UNL1       -0.0165
     26 C          47.3019   15.9338  -25.7821 C.ar    1  UNL1        0.0142
     27 C          47.1215   16.6090  -24.5697 C.ar    1  UNL1        0.1054
     28 C          47.2533   15.9142  -23.3644 C.ar    1  UNL1        0.0185
     29 C          47.5527   14.5519  -23.3687 C.ar    1  UNL1        0.0055
     30 C          47.7468   13.8644  -24.5768 C.ar    1  UNL1        0.0497
     31 S          46.7512   18.3302  -24.5654 S.O2    1  UNL1        0.0104
     32 C          48.0810   19.2207  -25.3399 C.3     1  UNL1        0.1816
     33 O          45.4736   18.5768  -25.3178 O.2     1  UNL1       -0.1686
     34 O          46.5795   18.8141  -23.1526 O.2     1  UNL1       -0.1686
     35 C          47.7247   13.8706  -27.1461 C.3     1  UNL1        0.0265
     36 C          46.3210   11.9683  -28.0284 C.3     1  UNL1        0.0004
     37 C          46.3439   13.4491  -27.6612 C.3     1  UNL1        0.0047
@<TRIPOS>BOND
     1    36    37    1
     2    37    35    1
     3    35    25    1
     4    25    26   ar
     5    26    27   ar
     6    27    31    1
     7    31    32    1
     8    31    33    2
     9    31    34    2
    10    27    28   ar
    11    28    29   ar
    12    29    30   ar
    13    30     1    1
    14     1     2    2
    15     1     3   am
    16     3     4    1
    17     4     5    1
    18     5     6    1
    19     6     7    1
    20     7     8   ar
    21     8     9   ar
    22     9    10   ar
    23    10    15    1
    24    15    16   ar
    25    16    17   ar
    26    17    18   ar
    27    18    19   ar
    28    19    20   ar
    29    20    21   ar
    30    21    22   ar
    31    22    23   ar
    32    10    11   ar
    33    11    12   ar
    34    12    13    1
    35    13    14    1
    36    30    25   ar
    37    13     3    1
    38    12     7   ar
    39    23    15   ar
    40    22    18   ar
    41    21    24    1
@<TRIPOS>MOLECULE
*****
 37 41 0 0 0
SMALL
GASTEIGER

@<TRIPOS>ATOM
      1 C          45.9824   14.7543  -25.8554 C.2     1  UNL1        0.2496
      2 O          44.9819   14.5429  -25.1169 O.2     1  UNL1       -0.2699
      3 N          47.0088   15.6795  -25.4311 N.am    1  UNL1       -0.2613
      4 C          47.5238   16.6302  -26.4308 C.3     1  UNL1        0.1419
      5 C          48.8364   17.2890  -26.0242 C.3     1  UNL1        0.2268
      6 O          49.7988   16.3147  -25.6566 O.3     1  UNL1       -0.4739
      7 C          49.8337   15.6539  -24.4235 C.ar    1  UNL1        0.1369
      8 C          51.0769   15.1585  -24.0161 C.ar    1  UNL1        0.0367
      9 C          51.2295   14.5232  -22.7860 C.ar    1  UNL1        0.0031
     10 C          50.1334   14.3692  -21.9283 C.ar    1  UNL1        0.0000
     11 C          48.8772   14.8435  -22.3381 C.ar    1  UNL1        0.0011
     12 C          48.6960   15.4589  -23.5940 C.ar    1  UNL1        0.0396
     13 C          47.2762   15.8328  -23.9863 C.3     1  UNL1        0.1539
     14 I          46.6728   17.7472  -23.2164 I       1  UNL1       -0.0478
     15 C          50.2919   13.6917  -20.6175 C.ar    1  UNL1        0.0015
     16 C          51.5892   13.4089  -20.1058 C.ar    1  UNL1        0.0016
     17 C          51.7502   12.7715  -18.8613 C.ar    1  UNL1        0.0206
     18 C          50.6019   12.4310  -18.1543 C.ar    1  UNL1        0.0985
     19 N          50.5216   11.8253  -16.9560 N.ar    1  UNL1       -0.2241
     20 C          49.1808   11.7450  -16.7477 C.ar    1  UNL1        0.1750
     21 N          48.4445   12.2703  -17.7564 N.ar    1  UNL1       -0.3349
     22 C          49.3579   12.6976  -18.6358 C.ar    1  UNL1        0.0757
     23 C          49.1521   13.3254  -19.8611 C.ar    1  UNL1        0.0185
     24 H          47.4043   12.3270  -17.8278 H       1  UNL1        0.1675
     25 C          46.4614   12.7356  -27.3245 C.ar    1  UNL1       -0.0165
     26 C          46.4561   12.1586  -28.6075 C.ar    1  UNL1        0.0142
     27 C          46.0465   12.8950  -29.7248 C.ar    1  UNL1        0.1054
     28 C          45.6332   14.2204  -29.5664 C.ar    1  UNL1        0.0185
     29 C          45.6183   14.8045  -28.2998 C.ar    1  UNL1        0.0055
     30 C          46.0366   14.0813  -27.1720 C.ar    1  UNL1        0.0497
     31 S          46.0730   12.1592  -31.3241 S.O2    1  UNL1        0.0104
     32 C          44.4917   12.3885  -32.1041 C.3     1  UNL1        0.1816
     33 O          47.1454   12.7995  -32.1602 O.2     1  UNL1       -0.1686
     34 O          46.3661   10.6895  -31.2073 O.2     1  UNL1       -0.1686
     35 C          46.8400   11.8674  -26.1449 C.3     1  UNL1        0.0265
     36 C          48.5761   11.6721  -24.3242 C.3     1  UNL1        0.0004
     37 C          48.3187   12.0429  -25.7817 C.3     1  UNL1        0.0047
@<TRIPOS>BOND
     1    36    37    1
     2    37    35    1
     3    35    25    1
     4    25    26   ar
     5    26    27   ar
     6    27    31    1
     7    31    32    1
     8    31    33    2
     9    31    34    2
    10    27    28   ar
    11    28    29   ar
    12    29    30   ar
    13    30     1    1
    14     1     2    2
    15     1     3   am
    16     3     4    1
    17     4     5    1
    18     5     6    1
    19     6     7    1
    20     7     8   ar
    21     8     9   ar
    22     9    10   ar
    23    10    15    1
    24    15    16   ar
    25    16    17   ar
    26    17    18   ar
    27    18    19   ar
    28    19    20   ar
    29    20    21   ar
    30    21    22   ar
    31    22    23   ar
    32    10    11   ar
    33    11    12   ar
    34    12    13    1
    35    13    14    1
    36    30    25   ar
    37    13     3    1
    38    12     7   ar
    39    23    15   ar
    40    22    18   ar
    41    21    24    1
@<TRIPOS>MOLECULE
*****
 37 41 0 0 0
SMALL
GASTEIGER

@<TRIPOS>ATOM
      1 C          48.3155   12.0465  -24.5662 C.2     1  UNL1        0.2496
      2 O          47.3667   11.2170  -24.5101 O.2     1  UNL1       -0.2699
      3 N          49.6832   11.5788  -24.5576 N.am    1  UNL1       -0.2613
      4 C          50.6418   12.2941  -23.6985 C.3     1  UNL1        0.1419
      5 C          52.0984   11.9948  -24.0318 C.3     1  UNL1        0.2268
      6 O          52.3529   12.1958  -25.4122 O.3     1  UNL1       -0.4739
      7 C          52.0122   11.2927  -26.4256 C.ar    1  UNL1        0.1369
      8 C          52.7671   11.3606  -27.6014 C.ar    1  UNL1        0.0367
      9 C          52.5383   10.4781  -28.6544 C.ar    1  UNL1        0.0031
     10 C          51.5423    9.4990  -28.5535 C.ar    1  UNL1        0.0000
     11 C          50.7649    9.4374  -27.3861 C.ar    1  UNL1        0.0011
     12 C          50.9589   10.3439  -26.3233 C.ar    1  UNL1        0.0396
     13 C          49.9897   10.2631  -25.1555 C.3     1  UNL1        0.1539
     14 I          50.5569    8.7873  -23.6988 I       1  UNL1       -0.0478
     15 C          51.2948    8.5578  -29.6739 C.ar    1  UNL1        0.0015
     16 C          52.3842    8.0073  -30.4053 C.ar    1  UNL1        0.0016
     17 C          52.1603    7.1098  -31.4661 C.ar    1  UNL1        0.0206
     18 C          50.8433    6.7824  -31.7707 C.ar    1  UNL1        0.0985
     19 N          50.4023    5.9513  -32.7321 N.ar    1  UNL1       -0.2241
     20 C          49.0527    6.0013  -32.5786 C.ar    1  UNL1        0.1750
     21 N          48.6526    6.8187  -31.5749 N.ar    1  UNL1       -0.3349
     22 C          49.7958    7.3038  -31.0768 C.ar    1  UNL1        0.0757
     23 C          49.9710    8.1947  -30.0216 C.ar    1  UNL1        0.0185
     24 H          47.6764    7.0210  -31.2642 H       1  UNL1        0.1675
     25 C          47.7115   14.1983  -25.7775 C.ar    1  UNL1       -0.0165
     26 C          47.3766   15.5626  -25.7025 C.ar    1  UNL1        0.0142
     27 C          47.3191   16.2216  -24.4693 C.ar    1  UNL1        0.1054
     28 C          47.5940   15.5164  -23.2945 C.ar    1  UNL1        0.0185
     29 C          47.9138   14.1599  -23.3486 C.ar    1  UNL1        0.0055
     30 C          47.9856   13.4888  -24.5792 C.ar    1  UNL1        0.0497
     31 S          46.9229   17.9357  -24.4029 S.O2    1  UNL1        0.0104
     32 C          46.2932   18.3325  -22.7881 C.3     1  UNL1        0.1816
     33 O          48.1540   18.7527  -24.6789 O.2     1  UNL1       -0.1686
     34 O          45.8851   18.2624  -25.4400 O.2     1  UNL1       -0.1686
     35 C          47.6816   13.5219  -27.1303 C.3     1  UNL1        0.0265
     36 C          45.7976   14.2996  -28.6180 C.3     1  UNL1        0.0004
     37 C          46.2414   13.2651  -27.5879 C.3     1  UNL1        0.0047
@<TRIPOS>BOND
     1    36    37    1
     2    37    35    1
     3    35    25    1
     4    25    26   ar
     5    26    27   ar
     6    27    31    1
     7    31    32    1
     8    31    33    2
     9    31    34    2
    10    27    28   ar
    11    28    29   ar
    12    29    30   ar
    13    30     1    1
    14     1     2    2
    15     1     3   am
    16     3     4    1
    17     4     5    1
    18     5     6    1
    19     6     7    1
    20     7     8   ar
    21     8     9   ar
    22     9    10   ar
    23    10    15    1
    24    15    16   ar
    25    16    17   ar
    26    17    18   ar
    27    18    19   ar
    28    19    20   ar
    29    20    21   ar
    30    21    22   ar
    31    22    23   ar
    32    10    11   ar
    33    11    12   ar
    34    12    13    1
    35    13    14    1
    36    30    25   ar
    37    13     3    1
    38    12     7   ar
    39    23    15   ar
    40    22    18   ar
    41    21    24    1
@<TRIPOS>MOLECULE
*****
 37 41 0 0 0
SMALL
GASTEIGER

@<TRIPOS>ATOM
      1 C          45.9472   14.8750  -25.7669 C.2     1  UNL1        0.2496
      2 O          44.8397   14.9397  -25.1665 O.2     1  UNL1       -0.2699
      3 N          47.1041   15.5469  -25.2195 N.am    1  UNL1       -0.2613
      4 C          47.9562   16.3038  -26.1520 C.3     1  UNL1        0.1419
      5 C          49.3264   16.6484  -25.5808 C.3     1  UNL1        0.2268
      6 O          49.9702   15.4899  -25.0770 O.3     1  UNL1       -0.4739
      7 C          49.6875   14.8935  -23.8429 C.ar    1  UNL1        0.1369
      8 C          50.7121   14.1346  -23.2674 C.ar    1  UNL1        0.0367
      9 C          50.5491   13.5349  -22.0209 C.ar    1  UNL1        0.0031
     10 C          49.3484   13.6831  -21.3158 C.ar    1  UNL1        0.0000
     11 C          48.3065   14.4245  -21.8952 C.ar    1  UNL1        0.0011
     12 C          48.4405   15.0106  -23.1709 C.ar    1  UNL1        0.0396
     13 C          47.2147   15.6943  -23.7537 C.3     1  UNL1        0.1539
     14 I          46.9986   17.7286  -23.0929 I       1  UNL1       -0.0478
     15 C          49.1706   13.0444  -19.9881 C.ar    1  UNL1        0.0015
     16 C          47.9084   12.5061  -19.6117 C.ar    1  UNL1        0.0016
     17 C          47.7310   11.8936  -18.3569 C.ar    1  UNL1        0.0206
     18 C          48.8281   11.8338  -17.5041 C.ar    1  UNL1        0.0985
     19 N          48.8857   11.2965  -16.2723 N.ar    1  UNL1       -0.2241
     20 C          50.1782   11.5104  -15.9099 C.ar    1  UNL1        0.1750
     21 N          50.9068   12.1487  -16.8571 N.ar    1  UNL1       -0.3349
     22 C          50.0384   12.3458  -17.8558 C.ar    1  UNL1        0.0757
     23 C          50.2585   12.9602  -19.0854 C.ar    1  UNL1        0.0185
     24 H          51.9137   12.4221  -16.8144 H       1  UNL1        0.1675
     25 C          46.3341   12.7748  -27.1461 C.ar    1  UNL1       -0.0165
     26 C          46.3375   12.1533  -28.4082 C.ar    1  UNL1        0.0142
     27 C          46.0286   12.8763  -29.5659 C.ar    1  UNL1        0.1054
     28 C          45.7084   14.2331  -29.4695 C.ar    1  UNL1        0.0185
     29 C          45.6860   14.8624  -28.2250 C.ar    1  UNL1        0.0055
     30 C          46.0041   14.1523  -27.0568 C.ar    1  UNL1        0.0497
     31 S          46.0646   12.0828  -31.1371 S.O2    1  UNL1        0.0104
     32 C          46.7549   10.4540  -30.9586 C.3     1  UNL1        0.1816
     33 O          44.6695   11.9818  -31.6873 O.2     1  UNL1       -0.1686
     34 O          46.9039   12.8808  -32.0953 O.2     1  UNL1       -0.1686
     35 C          46.5998   11.9249  -25.9231 C.3     1  UNL1        0.0265
     36 C          48.3260   11.3260  -24.1827 C.3     1  UNL1        0.0004
     37 C          48.0914   11.9152  -25.5705 C.3     1  UNL1        0.0047
@<TRIPOS>BOND
     1    36    37    1
     2    37    35    1
     3    35    25    1
     4    25    26   ar
     5    26    27   ar
     6    27    31    1
     7    31    32    1
     8    31    33    2
     9    31    34    2
    10    27    28   ar
    11    28    29   ar
    12    29    30   ar
    13    30     1    1
    14     1     2    2
    15     1     3   am
    16     3     4    1
    17     4     5    1
    18     5     6    1
    19     6     7    1
    20     7     8   ar
    21     8     9   ar
    22     9    10   ar
    23    10    15    1
    24    15    16   ar
    25    16    17   ar
    26    17    18   ar
    27    18    19   ar
    28    19    20   ar
    29    20    21   ar
    30    21    22   ar
    31    22    23   ar
    32    10    11   ar
    33    11    12   ar
    34    12    13    1
    35    13    14    1
    36    30    25   ar
    37    13     3    1
    38    12     7   ar
    39    23    15   ar
    40    22    18   ar
    41    21    24    1
@<TRIPOS>MOLECULE
*****
 37 41 0 0 0
SMALL
GASTEIGER

@<TRIPOS>ATOM
      1 C          50.1382   14.1104  -22.6529 C.2     1  UNL1        0.2496
      2 O          51.1831   13.7717  -23.2731 O.2     1  UNL1       -0.2699
      3 N          49.2604   15.1129  -23.2134 N.am    1  UNL1       -0.2613
      4 C          48.7440   16.1503  -22.3048 C.3     1  UNL1        0.1419
      5 C          47.5541   16.9166  -22.8700 C.3     1  UNL1        0.2268
      6 O          46.5411   16.0264  -23.3079 O.3     1  UNL1       -0.4739
      7 C          46.5670   15.3212  -24.5165 C.ar    1  UNL1        0.1369
      8 C          45.3288   14.9330  -25.0390 C.ar    1  UNL1        0.0367
      9 C          45.2406   14.2648  -26.2580 C.ar    1  UNL1        0.0031
     10 C          46.3983   13.9689  -26.9881 C.ar    1  UNL1        0.0000
     11 C          47.6469   14.3349  -26.4611 C.ar    1  UNL1        0.0011
     12 C          47.7587   14.9815  -25.2129 C.ar    1  UNL1        0.0396
     13 C          49.1609   15.2311  -24.6826 C.3     1  UNL1        0.1539
     14 I          50.0319   17.0436  -25.4429 I       1  UNL1       -0.0478
     15 C          46.3082   13.2559  -28.2865 C.ar    1  UNL1        0.0015
     16 C          46.6002   11.8655  -28.3658 C.ar    1  UNL1        0.0016
     17 C          46.5126   11.1791  -29.5914 C.ar    1  UNL1        0.0206
     18 C          46.1319   11.9052  -30.7150 C.ar    1  UNL1        0.0985
     19 N          45.9816   11.4562  -31.9740 N.ar    1  UNL1       -0.2241
     20 C          45.5998   12.5725  -32.6490 C.ar    1  UNL1        0.1750
     21 N          45.5107   13.6741  -31.8655 N.ar    1  UNL1       -0.3349
     22 C          45.8509   13.2345  -30.6484 C.ar    1  UNL1        0.0757
     23 C          45.9251   13.9528  -29.4583 C.ar    1  UNL1        0.0185
     24 H          45.2388   14.6416  -32.1491 H       1  UNL1        0.1675
     25 C          50.7744   13.6435  -20.2364 C.ar    1  UNL1       -0.0165
     26 C          50.4419   13.0583  -19.0010 C.ar    1  UNL1        0.0142
     27 C          49.2522   12.3383  -18.8440 C.ar    1  UNL1        0.1054
     28 C          48.3790   12.2003  -19.9262 C.ar    1  UNL1        0.0185
     29 C          48.6854   12.7858  -21.1545 C.ar    1  UNL1        0.0055
     30 C          49.8801   13.5015  -21.3293 C.ar    1  UNL1        0.0497
     31 S          48.8701   11.5932  -17.2952 S.O2    1  UNL1        0.0104
     32 C          48.9592   12.8216  -16.0128 C.3     1  UNL1        0.1816
     33 O          47.4854   11.0103  -17.3398 O.2     1  UNL1       -0.1686
     34 O          49.8482   10.4902  -17.0019 O.2     1  UNL1       -0.1686
     35 C          52.0351   14.4748  -20.3244 C.3     1  UNL1        0.0265
     36 C          53.8954   13.5022  -21.7246 C.3     1  UNL1        0.0004
     37 C          53.2839   13.5860  -20.3292 C.3     1  UNL1        0.0047
@<TRIPOS>BOND
     1    36    37    1
     2    37    35    1
     3    35    25    1
     4    25    26   ar
     5    26    27   ar
     6    27    31    1
     7    31    32    1
     8    31    33    2
     9    31    34    2
    10    27    28   ar
    11    28    29   ar
    12    29    30   ar
    13    30     1    1
    14     1     2    2
    15     1     3   am
    16     3     4    1
    17     4     5    1
    18     5     6    1
    19     6     7    1
    20     7     8   ar
    21     8     9   ar
    22     9    10   ar
    23    10    15    1
    24    15    16   ar
    25    16    17   ar
    26    17    18   ar
    27    18    19   ar
    28    19    20   ar
    29    20    21   ar
    30    21    22   ar
    31    22    23   ar
    32    10    11   ar
    33    11    12   ar
    34    12    13    1
    35    13    14    1
    36    30    25   ar
    37    13     3    1
    38    12     7   ar
    39    23    15   ar
    40    22    18   ar
    41    21    24    1
