@<TRIPOS>MOLECULE
*****
 49 54 0 0 0
SMALL
GASTEIGER

@<TRIPOS>ATOM
      1 O         -60.0590  -45.8839  -24.4550 O.2     1  UNL1       -0.2701
      2 C         -61.0792  -45.1665  -24.6424 C.2     1  UNL1        0.2483
      3 N         -61.6584  -45.0720  -25.9551 N.am    1  UNL1       -0.2945
      4 H         -62.5518  -44.5449  -26.0693 H       1  UNL1        0.1501
      5 C         -61.6046  -44.3552  -23.5239 C.ar    1  UNL1        0.0808
      6 C         -61.8963  -42.9992  -23.7427 C.ar    1  UNL1        0.0080
      7 C         -62.4898  -42.2300  -22.7399 C.ar    1  UNL1        0.0148
      8 C         -62.7867  -42.7974  -21.4923 C.ar    1  UNL1        0.0502
      9 C         -62.4624  -44.1432  -21.2584 C.ar    1  UNL1        0.0443
     10 C         -61.8703  -44.9172  -22.2610 C.ar    1  UNL1        0.1457
     11 F         -61.5340  -46.2016  -21.9811 F       1  UNL1       -0.2040
     12 N         -63.4528  -42.0204  -20.4799 N.pl3   1  UNL1       -0.3040
     13 C         -62.6614  -41.4311  -19.3874 C.3     1  UNL1        0.1122
     14 C         -63.4839  -40.4139  -18.5893 C.3     1  UNL1        0.1122
     15 N         -64.2582  -39.5716  -19.5120 N.pl3   1  UNL1       -0.3041
     16 C         -65.1038  -40.2033  -20.5386 C.3     1  UNL1        0.1122
     17 C         -64.8878  -41.7205  -20.5843 C.3     1  UNL1        0.1122
     18 C         -64.1283  -38.1374  -19.4840 C.ar    1  UNL1        0.0479
     19 C         -65.1031  -37.3478  -18.8527 C.ar    1  UNL1        0.0145
     20 C         -64.9759  -35.9580  -18.8258 C.ar    1  UNL1        0.0012
     21 C         -63.8703  -35.3419  -19.4157 C.ar    1  UNL1        0.0039
     22 C         -62.8658  -36.1150  -20.0225 C.ar    1  UNL1        0.0726
     23 C         -63.0138  -37.5129  -20.0697 C.ar    1  UNL1        0.0184
     24 C         -61.6951  -35.4499  -20.7021 C.3     1  UNL1        0.4186
     25 F         -62.1643  -34.5802  -21.6688 F       1  UNL1       -0.1659
     26 F         -60.8794  -36.3938  -21.3021 F       1  UNL1       -0.1659
     27 F         -60.9352  -34.7406  -19.7881 F       1  UNL1       -0.1659
     28 C         -60.8751  -45.3262  -27.1692 C.3     1  UNL1        0.1535
     29 C         -61.5117  -46.4325  -27.9694 C.2     1  UNL1        0.2443
     30 O         -60.8393  -47.4690  -28.2226 O.2     1  UNL1       -0.2730
     31 N         -62.8420  -46.2859  -28.4961 N.am    1  UNL1       -0.2825
     32 H         -63.2450  -45.3240  -28.5578 H       1  UNL1        0.1549
     33 C         -63.6142  -47.3694  -29.0413 C.ar    1  UNL1        0.0535
     34 C         -64.4228  -47.1428  -30.1635 C.ar    1  UNL1        0.0353
     35 C         -65.1936  -48.1857  -30.6828 C.ar    1  UNL1        0.1002
     36 N         -65.1716  -49.4094  -30.0918 N.ar    1  UNL1       -0.2422
     37 C         -64.4131  -49.6547  -28.9909 C.ar    1  UNL1        0.1002
     38 C         -63.6264  -48.6397  -28.4402 C.ar    1  UNL1        0.0353
     39 C         -60.7608  -44.0435  -28.0140 C.3     1  UNL1        0.0569
     40 C         -60.1833  -44.3318  -29.3713 C.ar    1  UNL1       -0.0017
     41 C         -58.9230  -44.8592  -29.6354 C.ar    1  UNL1        0.0681
     42 N         -58.6818  -44.8642  -30.9662 N.ar    1  UNL1       -0.3523
     43 C         -59.7723  -44.3318  -31.5444 C.ar    1  UNL1        0.0563
     44 C         -59.9719  -44.0843  -32.9021 C.ar    1  UNL1        0.0170
     45 C         -61.1758  -43.4681  -33.2888 C.ar    1  UNL1        0.0015
     46 C         -62.1402  -43.1116  -32.3207 C.ar    1  UNL1        0.0001
     47 C         -61.9124  -43.3740  -30.9574 C.ar    1  UNL1        0.0012
     48 C         -60.7110  -43.9914  -30.6039 C.ar    1  UNL1        0.0131
     49 H         -57.8107  -45.1886  -31.4419 H       1  UNL1        0.1660
@<TRIPOS>BOND
     1     1     2    2
     2     2     3   am
     3     3    28    1
     4    28    39    1
     5    39    40    1
     6    40    41   ar
     7    41    42   ar
     8    42    43   ar
     9    43    44   ar
    10    44    45   ar
    11    45    46   ar
    12    46    47   ar
    13    47    48   ar
    14    28    29    1
    15    29    30    2
    16    29    31   am
    17    31    33    1
    18    33    34   ar
    19    34    35   ar
    20    35    36   ar
    21    36    37   ar
    22    37    38   ar
    23     2     5    1
    24     5     6   ar
    25     6     7   ar
    26     7     8   ar
    27     8    12    1
    28    12    13    1
    29    13    14    1
    30    14    15    1
    31    15    18    1
    32    18    19   ar
    33    19    20   ar
    34    20    21   ar
    35    21    22   ar
    36    22    24    1
    37    24    25    1
    38    24    26    1
    39    24    27    1
    40    22    23   ar
    41    15    16    1
    42    16    17    1
    43     8     9   ar
    44     9    10   ar
    45    10    11    1
    46    48    40   ar
    47    38    33   ar
    48    10     5   ar
    49    48    43   ar
    50    17    12    1
    51    23    18   ar
    52     3     4    1
    53    42    49    1
    54    31    32    1
@<TRIPOS>MOLECULE
*****
 49 54 0 0 0
SMALL
GASTEIGER

@<TRIPOS>ATOM
      1 O         -65.2888  -40.6274  -29.2291 O.2     1  UNL1       -0.2701
      2 C         -64.5978  -41.4443  -28.5613 C.2     1  UNL1        0.2483
      3 N         -64.0025  -42.5799  -29.2119 N.am    1  UNL1       -0.2945
      4 H         -63.3634  -43.1929  -28.6596 H       1  UNL1        0.1501
      5 C         -64.4937  -41.2712  -27.0970 C.ar    1  UNL1        0.0808
      6 C         -65.5299  -40.6165  -26.4119 C.ar    1  UNL1        0.0080
      7 C         -65.5140  -40.5267  -25.0187 C.ar    1  UNL1        0.0148
      8 C         -64.4522  -41.0743  -24.2843 C.ar    1  UNL1        0.0502
      9 C         -63.3965  -41.6972  -24.9690 C.ar    1  UNL1        0.0443
     10 C         -63.4103  -41.7910  -26.3640 C.ar    1  UNL1        0.1457
     11 F         -62.3510  -42.3630  -26.9902 F       1  UNL1       -0.2040
     12 N         -64.4659  -41.0341  -22.8454 N.pl3   1  UNL1       -0.3040
     13 C         -63.1948  -40.8917  -22.1166 C.3     1  UNL1        0.1122
     14 C         -63.4334  -40.5762  -20.6362 C.3     1  UNL1        0.1122
     15 N         -64.5023  -39.5751  -20.5104 N.pl3   1  UNL1       -0.3041
     16 C         -65.7903  -39.7965  -21.1885 C.3     1  UNL1        0.1122
     17 C         -65.7356  -41.0244  -22.1051 C.3     1  UNL1        0.1122
     18 C         -64.2733  -38.3382  -19.8087 C.ar    1  UNL1        0.0479
     19 C         -65.0262  -38.0191  -18.6671 C.ar    1  UNL1        0.0145
     20 C         -64.8031  -36.8203  -17.9876 C.ar    1  UNL1        0.0012
     21 C         -63.8192  -35.9339  -18.4307 C.ar    1  UNL1        0.0039
     22 C         -63.0309  -36.2493  -19.5505 C.ar    1  UNL1        0.0726
     23 C         -63.2793  -37.4462  -20.2462 C.ar    1  UNL1        0.0184
     24 C         -62.0006  -35.2726  -20.0596 C.3     1  UNL1        0.4186
     25 F         -61.4312  -34.6119  -18.9871 F       1  UNL1       -0.1659
     26 F         -62.5848  -34.3435  -20.9033 F       1  UNL1       -0.1659
     27 F         -61.0065  -35.9301  -20.7633 F       1  UNL1       -0.1659
     28 C         -64.5455  -43.1341  -30.4571 C.3     1  UNL1        0.1535
     29 C         -63.4257  -43.6571  -31.3184 C.2     1  UNL1        0.2443
     30 O         -63.6727  -43.9823  -32.5116 O.2     1  UNL1       -0.2730
     31 N         -62.1083  -43.8480  -30.7739 N.am    1  UNL1       -0.2825
     32 H         -62.0047  -43.8873  -29.7350 H       1  UNL1        0.1549
     33 C         -60.9371  -44.0930  -31.5712 C.ar    1  UNL1        0.0535
     34 C         -59.8367  -44.7443  -30.9971 C.ar    1  UNL1        0.0353
     35 C         -58.6873  -44.9636  -31.7601 C.ar    1  UNL1        0.1002
     36 N         -58.6311  -44.5322  -33.0478 N.ar    1  UNL1       -0.2422
     37 C         -59.6742  -43.8804  -33.6262 C.ar    1  UNL1        0.1002
     38 C         -60.8430  -43.6416  -32.8988 C.ar    1  UNL1        0.0353
     39 C         -65.5604  -44.2514  -30.1509 C.3     1  UNL1        0.0569
     40 C         -64.8724  -45.5676  -29.9202 C.ar    1  UNL1       -0.0017
     41 C         -64.9843  -46.7058  -30.7128 C.ar    1  UNL1        0.0681
     42 N         -64.3353  -47.7458  -30.1412 N.ar    1  UNL1       -0.3523
     43 C         -63.8264  -47.2788  -28.9880 C.ar    1  UNL1        0.0563
     44 C         -63.1149  -47.9968  -28.0275 C.ar    1  UNL1        0.0170
     45 C         -62.7162  -47.3195  -26.8610 C.ar    1  UNL1        0.0015
     46 C         -63.0384  -45.9565  -26.6795 C.ar    1  UNL1        0.0001
     47 C         -63.7570  -45.2566  -27.6659 C.ar    1  UNL1        0.0012
     48 C         -64.1348  -45.9534  -28.8153 C.ar    1  UNL1        0.0131
     49 H         -64.2712  -48.7207  -30.5098 H       1  UNL1        0.1660
@<TRIPOS>BOND
     1     1     2    2
     2     2     3   am
     3     3    28    1
     4    28    39    1
     5    39    40    1
     6    40    41   ar
     7    41    42   ar
     8    42    43   ar
     9    43    44   ar
    10    44    45   ar
    11    45    46   ar
    12    46    47   ar
    13    47    48   ar
    14    28    29    1
    15    29    30    2
    16    29    31   am
    17    31    33    1
    18    33    34   ar
    19    34    35   ar
    20    35    36   ar
    21    36    37   ar
    22    37    38   ar
    23     2     5    1
    24     5     6   ar
    25     6     7   ar
    26     7     8   ar
    27     8    12    1
    28    12    13    1
    29    13    14    1
    30    14    15    1
    31    15    18    1
    32    18    19   ar
    33    19    20   ar
    34    20    21   ar
    35    21    22   ar
    36    22    24    1
    37    24    25    1
    38    24    26    1
    39    24    27    1
    40    22    23   ar
    41    15    16    1
    42    16    17    1
    43     8     9   ar
    44     9    10   ar
    45    10    11    1
    46    48    40   ar
    47    38    33   ar
    48    10     5   ar
    49    48    43   ar
    50    17    12    1
    51    23    18   ar
    52     3     4    1
    53    42    49    1
    54    31    32    1
@<TRIPOS>MOLECULE
*****
 49 54 0 0 0
SMALL
GASTEIGER

@<TRIPOS>ATOM
      1 O         -60.4500  -45.4144  -25.2912 O.2     1  UNL1       -0.2701
      2 C         -61.6427  -45.0257  -25.1604 C.2     1  UNL1        0.2483
      3 N         -62.5877  -45.2406  -26.2226 N.am    1  UNL1       -0.2945
      4 H         -63.5877  -44.9913  -26.0587 H       1  UNL1        0.1501
      5 C         -62.0242  -44.2659  -23.9512 C.ar    1  UNL1        0.0808
      6 C         -62.3041  -42.8948  -24.0669 C.ar    1  UNL1        0.0080
      7 C         -62.7668  -42.1694  -22.9673 C.ar    1  UNL1        0.0148
      8 C         -62.9414  -42.7973  -21.7256 C.ar    1  UNL1        0.0502
      9 C         -62.6272  -44.1596  -21.5977 C.ar    1  UNL1        0.0443
     10 C         -62.1660  -44.8897  -22.6973 C.ar    1  UNL1        0.1457
     11 F         -61.8333  -46.1935  -22.5221 F       1  UNL1       -0.2040
     12 N         -63.4750  -42.0633  -20.6080 N.pl3   1  UNL1       -0.3040
     13 C         -62.5499  -41.4602  -19.6345 C.3     1  UNL1        0.1122
     14 C         -63.2791  -40.4891  -18.7001 C.3     1  UNL1        0.1122
     15 N         -64.2145  -39.6637  -19.4776 N.pl3   1  UNL1       -0.3041
     16 C         -65.1816  -40.3123  -20.3786 C.3     1  UNL1        0.1122
     17 C         -64.9194  -41.8189  -20.4890 C.3     1  UNL1        0.1122
     18 C         -64.1347  -38.2261  -19.4387 C.ar    1  UNL1        0.0479
     19 C         -65.1413  -37.4754  -18.8099 C.ar    1  UNL1        0.0145
     20 C         -65.0628  -36.0823  -18.7724 C.ar    1  UNL1        0.0012
     21 C         -63.9746  -35.4240  -19.3490 C.ar    1  UNL1        0.0039
     22 C         -62.9391  -36.1573  -19.9530 C.ar    1  UNL1        0.0726
     23 C         -63.0380  -37.5592  -20.0109 C.ar    1  UNL1        0.0184
     24 C         -61.7869  -35.4472  -20.6184 C.3     1  UNL1        0.4186
     25 F         -61.0348  -34.7996  -19.6561 F       1  UNL1       -0.1659
     26 F         -62.2504  -34.5155  -21.5312 F       1  UNL1       -0.1659
     27 F         -60.9790  -36.3469  -21.2920 F       1  UNL1       -0.1659
     28 C         -62.1632  -45.4089  -27.6169 C.3     1  UNL1        0.1535
     29 C         -63.3700  -45.5202  -28.5117 C.2     1  UNL1        0.2443
     30 O         -64.3874  -44.8201  -28.2561 O.2     1  UNL1       -0.2730
     31 N         -63.3917  -46.4579  -29.6020 N.am    1  UNL1       -0.2825
     32 H         -62.6953  -47.2367  -29.5968 H       1  UNL1        0.1549
     33 C         -64.3796  -46.4527  -30.6467 C.ar    1  UNL1        0.0535
     34 C         -64.9860  -47.6576  -31.0276 C.ar    1  UNL1        0.0353
     35 C         -65.9289  -47.6620  -32.0582 C.ar    1  UNL1        0.1002
     36 N         -66.2437  -46.5056  -32.6993 N.ar    1  UNL1       -0.2422
     37 C         -65.6583  -45.3250  -32.3662 C.ar    1  UNL1        0.1002
     38 C         -64.7110  -45.2761  -31.3402 C.ar    1  UNL1        0.0353
     39 C         -61.2719  -44.2314  -28.0537 C.3     1  UNL1        0.0569
     40 C         -60.4821  -44.5707  -29.2866 C.ar    1  UNL1       -0.0017
     41 C         -59.2543  -45.2244  -29.3245 C.ar    1  UNL1        0.0681
     42 N         -58.7696  -45.2474  -30.5870 N.ar    1  UNL1       -0.3523
     43 C         -59.6730  -44.6019  -31.3447 C.ar    1  UNL1        0.0563
     44 C         -59.5885  -44.3279  -32.7093 C.ar    1  UNL1        0.0170
     45 C         -60.6302  -43.5883  -33.2979 C.ar    1  UNL1        0.0015
     46 C         -61.7182  -43.1389  -32.5176 C.ar    1  UNL1        0.0001
     47 C         -61.7777  -43.4307  -31.1426 C.ar    1  UNL1        0.0012
     48 C         -60.7322  -44.1710  -30.5871 C.ar    1  UNL1        0.0131
     49 H         -57.8619  -45.6577  -30.9002 H       1  UNL1        0.1660
@<TRIPOS>BOND
     1     1     2    2
     2     2     3   am
     3     3    28    1
     4    28    39    1
     5    39    40    1
     6    40    41   ar
     7    41    42   ar
     8    42    43   ar
     9    43    44   ar
    10    44    45   ar
    11    45    46   ar
    12    46    47   ar
    13    47    48   ar
    14    28    29    1
    15    29    30    2
    16    29    31   am
    17    31    33    1
    18    33    34   ar
    19    34    35   ar
    20    35    36   ar
    21    36    37   ar
    22    37    38   ar
    23     2     5    1
    24     5     6   ar
    25     6     7   ar
    26     7     8   ar
    27     8    12    1
    28    12    13    1
    29    13    14    1
    30    14    15    1
    31    15    18    1
    32    18    19   ar
    33    19    20   ar
    34    20    21   ar
    35    21    22   ar
    36    22    24    1
    37    24    25    1
    38    24    26    1
    39    24    27    1
    40    22    23   ar
    41    15    16    1
    42    16    17    1
    43     8     9   ar
    44     9    10   ar
    45    10    11    1
    46    48    40   ar
    47    38    33   ar
    48    10     5   ar
    49    48    43   ar
    50    17    12    1
    51    23    18   ar
    52     3     4    1
    53    42    49    1
    54    31    32    1
@<TRIPOS>MOLECULE
*****
 49 54 0 0 0
SMALL
GASTEIGER

@<TRIPOS>ATOM
      1 O         -61.2783  -43.0573  -20.1866 O.2     1  UNL1       -0.2701
      2 C         -61.7146  -42.6205  -21.2864 C.2     1  UNL1        0.2483
      3 N         -62.4977  -41.4150  -21.3196 N.am    1  UNL1       -0.2945
      4 H         -62.7731  -41.0244  -22.2473 H       1  UNL1        0.1501
      5 C         -61.4941  -43.4129  -22.5146 C.ar    1  UNL1        0.0808
      6 C         -61.8826  -44.7622  -22.5351 C.ar    1  UNL1        0.0080
      7 C         -61.7845  -45.5114  -23.7091 C.ar    1  UNL1        0.0148
      8 C         -61.2788  -44.9309  -24.8812 C.ar    1  UNL1        0.0502
      9 C         -60.8552  -43.5927  -24.8541 C.ar    1  UNL1        0.0443
     10 C         -60.9542  -42.8386  -23.6808 C.ar    1  UNL1        0.1457
     11 F         -60.4949  -41.5618  -23.6848 F       1  UNL1       -0.2040
     12 N         -61.2338  -45.6860  -26.1060 N.pl3   1  UNL1       -0.3040
     13 C         -62.3717  -45.6164  -27.0374 C.3     1  UNL1        0.1122
     14 C         -62.0213  -46.2387  -28.3931 C.3     1  UNL1        0.1122
     15 N         -60.6745  -45.8121  -28.7993 N.pl3   1  UNL1       -0.3041
     16 C         -59.5469  -45.9765  -27.8670 C.3     1  UNL1        0.1122
     17 C         -60.0268  -46.4343  -26.4846 C.3     1  UNL1        0.1122
     18 C         -60.4612  -45.1513  -30.0612 C.ar    1  UNL1        0.0479
     19 C         -59.1877  -45.1438  -30.6530 C.ar    1  UNL1        0.0145
     20 C         -58.9823  -44.5035  -31.8762 C.ar    1  UNL1        0.0012
     21 C         -60.0457  -43.8758  -32.5282 C.ar    1  UNL1        0.0039
     22 C         -61.3355  -43.9010  -31.9708 C.ar    1  UNL1        0.0726
     23 C         -61.5297  -44.5247  -30.7251 C.ar    1  UNL1        0.0184
     24 C         -62.4755  -43.1832  -32.6489 C.3     1  UNL1        0.4186
     25 F         -62.1475  -42.9570  -33.9726 F       1  UNL1       -0.1659
     26 F         -62.7229  -41.9691  -32.0316 F       1  UNL1       -0.1659
     27 F         -63.6335  -43.9394  -32.5942 F       1  UNL1       -0.1659
     28 C         -63.2469  -40.9436  -20.1496 C.3     1  UNL1        0.1535
     29 C         -63.1419  -39.4447  -20.0417 C.2     1  UNL1        0.2443
     30 O         -62.4221  -38.8211  -20.8685 O.2     1  UNL1       -0.2730
     31 N         -63.7962  -38.7378  -18.9737 N.am    1  UNL1       -0.2825
     32 H         -64.1025  -39.2825  -18.1364 H       1  UNL1        0.1549
     33 C         -63.9625  -37.3100  -18.9387 C.ar    1  UNL1        0.0535
     34 C         -65.1808  -36.7481  -19.3444 C.ar    1  UNL1        0.0353
     35 C         -65.3396  -35.3602  -19.3351 C.ar    1  UNL1        0.1002
     36 N         -64.3115  -34.5589  -18.9503 N.ar    1  UNL1       -0.2422
     37 C         -63.1119  -35.0730  -18.5705 C.ar    1  UNL1        0.1002
     38 C         -62.9113  -36.4557  -18.5641 C.ar    1  UNL1        0.0353
     39 C         -64.7215  -41.3778  -20.2444 C.3     1  UNL1        0.0569
     40 C         -65.4513  -40.6082  -21.3094 C.ar    1  UNL1       -0.0017
     41 C         -66.6051  -39.8504  -21.1338 C.ar    1  UNL1        0.0681
     42 N         -67.0633  -39.4037  -22.3254 N.ar    1  UNL1       -0.3523
     43 C         -66.2176  -39.8839  -23.2534 C.ar    1  UNL1        0.0563
     44 C         -66.3063  -39.7297  -24.6365 C.ar    1  UNL1        0.0170
     45 C         -65.3357  -40.3638  -25.4330 C.ar    1  UNL1        0.0015
     46 C         -64.3129  -41.1339  -24.8371 C.ar    1  UNL1        0.0001
     47 C         -64.2474  -41.2717  -23.4385 C.ar    1  UNL1        0.0012
     48 C         -65.2211  -40.6268  -22.6733 C.ar    1  UNL1        0.0131
     49 H         -67.9188  -38.8279  -22.4896 H       1  UNL1        0.1660
@<TRIPOS>BOND
     1     1     2    2
     2     2     3   am
     3     3    28    1
     4    28    39    1
     5    39    40    1
     6    40    41   ar
     7    41    42   ar
     8    42    43   ar
     9    43    44   ar
    10    44    45   ar
    11    45    46   ar
    12    46    47   ar
    13    47    48   ar
    14    28    29    1
    15    29    30    2
    16    29    31   am
    17    31    33    1
    18    33    34   ar
    19    34    35   ar
    20    35    36   ar
    21    36    37   ar
    22    37    38   ar
    23     2     5    1
    24     5     6   ar
    25     6     7   ar
    26     7     8   ar
    27     8    12    1
    28    12    13    1
    29    13    14    1
    30    14    15    1
    31    15    18    1
    32    18    19   ar
    33    19    20   ar
    34    20    21   ar
    35    21    22   ar
    36    22    24    1
    37    24    25    1
    38    24    26    1
    39    24    27    1
    40    22    23   ar
    41    15    16    1
    42    16    17    1
    43     8     9   ar
    44     9    10   ar
    45    10    11    1
    46    48    40   ar
    47    38    33   ar
    48    10     5   ar
    49    48    43   ar
    50    17    12    1
    51    23    18   ar
    52     3     4    1
    53    42    49    1
    54    31    32    1
@<TRIPOS>MOLECULE
*****
 49 54 0 0 0
SMALL
GASTEIGER

@<TRIPOS>ATOM
      1 O         -63.8281  -38.9833  -22.9759 O.2     1  UNL1       -0.2701
      2 C         -63.8827  -40.2357  -23.1151 C.2     1  UNL1        0.2483
      3 N         -63.6582  -41.0937  -21.9834 N.am    1  UNL1       -0.2945
      4 H         -63.7951  -42.1215  -22.1017 H       1  UNL1        0.1501
      5 C         -64.0809  -40.8022  -24.4660 C.ar    1  UNL1        0.0808
      6 C         -65.1739  -40.3692  -25.2339 C.ar    1  UNL1        0.0080
      7 C         -65.3333  -40.8049  -26.5508 C.ar    1  UNL1        0.0148
      8 C         -64.4123  -41.6964  -27.1197 C.ar    1  UNL1        0.0502
      9 C         -63.3390  -42.1597  -26.3423 C.ar    1  UNL1        0.0443
     10 C         -63.1749  -41.7237  -25.0240 C.ar    1  UNL1        0.1457
     11 F         -62.1489  -42.2275  -24.2928 F       1  UNL1       -0.2040
     12 N         -64.5438  -42.0983  -28.4958 N.pl3   1  UNL1       -0.3040
     13 C         -64.1895  -41.1461  -29.5612 C.3     1  UNL1        0.1122
     14 C         -64.1135  -41.8393  -30.9256 C.3     1  UNL1        0.1122
     15 N         -63.4162  -43.1259  -30.7881 N.pl3   1  UNL1       -0.3041
     16 C         -63.8566  -44.0866  -29.7628 C.3     1  UNL1        0.1122
     17 C         -64.9215  -43.4751  -28.8448 C.3     1  UNL1        0.1122
     18 C         -62.2503  -43.4196  -31.5813 C.ar    1  UNL1        0.0479
     19 C         -62.2454  -43.1585  -32.9611 C.ar    1  UNL1        0.0145
     20 C         -61.1148  -43.4430  -33.7287 C.ar    1  UNL1        0.0012
     21 C         -59.9736  -43.9780  -33.1275 C.ar    1  UNL1        0.0039
     22 C         -59.9447  -44.2147  -31.7426 C.ar    1  UNL1        0.0726
     23 C         -61.0966  -43.9509  -30.9797 C.ar    1  UNL1        0.0184
     24 C         -58.7310  -44.8368  -31.0986 C.3     1  UNL1        0.4186
     25 F         -58.6886  -44.4760  -29.7648 F       1  UNL1       -0.1659
     26 F         -57.5730  -44.4027  -31.7205 F       1  UNL1       -0.1659
     27 F         -58.7795  -46.2170  -31.1910 F       1  UNL1       -0.1659
     28 C         -62.8813  -40.6550  -20.8188 C.3     1  UNL1        0.1535
     29 C         -63.6167  -39.5580  -20.0939 C.2     1  UNL1        0.2443
     30 O         -64.4829  -39.8688  -19.2316 O.2     1  UNL1       -0.2730
     31 N         -63.3867  -38.1773  -20.4241 N.am    1  UNL1       -0.2825
     32 H         -62.9282  -37.9580  -21.3370 H       1  UNL1        0.1549
     33 C         -63.8424  -37.0731  -19.6238 C.ar    1  UNL1        0.0535
     34 C         -65.2058  -36.7482  -19.6105 C.ar    1  UNL1        0.0353
     35 C         -65.6507  -35.6617  -18.8537 C.ar    1  UNL1        0.1002
     36 N         -64.7627  -34.9136  -18.1473 N.ar    1  UNL1       -0.2422
     37 C         -63.4322  -35.1914  -18.1560 C.ar    1  UNL1        0.1002
     38 C         -62.9454  -36.2701  -18.8988 C.ar    1  UNL1        0.0353
     39 C         -62.6109  -41.8414  -19.8746 C.3     1  UNL1        0.0569
     40 C         -62.3119  -43.0968  -20.6450 C.ar    1  UNL1       -0.0017
     41 C         -63.0782  -44.2583  -20.6569 C.ar    1  UNL1        0.0681
     42 N         -62.4481  -45.2333  -21.3510 N.ar    1  UNL1       -0.3523
     43 C         -61.2847  -44.7030  -21.7657 C.ar    1  UNL1        0.0563
     44 C         -60.2719  -45.3435  -22.4789 C.ar    1  UNL1        0.0170
     45 C         -59.1061  -44.6113  -22.7678 C.ar    1  UNL1        0.0015
     46 C         -58.9771  -43.2724  -22.3376 C.ar    1  UNL1        0.0001
     47 C         -60.0155  -42.6511  -21.6200 C.ar    1  UNL1        0.0012
     48 C         -61.1627  -43.4007  -21.3526 C.ar    1  UNL1        0.0131
     49 H         -62.7868  -46.2090  -21.5049 H       1  UNL1        0.1660
@<TRIPOS>BOND
     1     1     2    2
     2     2     3   am
     3     3    28    1
     4    28    39    1
     5    39    40    1
     6    40    41   ar
     7    41    42   ar
     8    42    43   ar
     9    43    44   ar
    10    44    45   ar
    11    45    46   ar
    12    46    47   ar
    13    47    48   ar
    14    28    29    1
    15    29    30    2
    16    29    31   am
    17    31    33    1
    18    33    34   ar
    19    34    35   ar
    20    35    36   ar
    21    36    37   ar
    22    37    38   ar
    23     2     5    1
    24     5     6   ar
    25     6     7   ar
    26     7     8   ar
    27     8    12    1
    28    12    13    1
    29    13    14    1
    30    14    15    1
    31    15    18    1
    32    18    19   ar
    33    19    20   ar
    34    20    21   ar
    35    21    22   ar
    36    22    24    1
    37    24    25    1
    38    24    26    1
    39    24    27    1
    40    22    23   ar
    41    15    16    1
    42    16    17    1
    43     8     9   ar
    44     9    10   ar
    45    10    11    1
    46    48    40   ar
    47    38    33   ar
    48    10     5   ar
    49    48    43   ar
    50    17    12    1
    51    23    18   ar
    52     3     4    1
    53    42    49    1
    54    31    32    1
@<TRIPOS>MOLECULE
*****
 49 54 0 0 0
SMALL
GASTEIGER

@<TRIPOS>ATOM
      1 O         -61.0018  -44.5677  -27.3236 O.2     1  UNL1       -0.2701
      2 C         -62.1784  -44.5296  -26.8709 C.2     1  UNL1        0.2483
      3 N         -63.2799  -44.9354  -27.7012 N.am    1  UNL1       -0.2945
      4 H         -64.2331  -44.9799  -27.2787 H       1  UNL1        0.1501
      5 C         -62.4134  -43.9732  -25.5217 C.ar    1  UNL1        0.0808
      6 C         -62.0511  -44.7330  -24.3977 C.ar    1  UNL1        0.0080
      7 C         -62.1629  -44.1977  -23.1130 C.ar    1  UNL1        0.0148
      8 C         -62.6562  -42.8984  -22.9261 C.ar    1  UNL1        0.0502
      9 C         -63.0537  -42.1500  -24.0454 C.ar    1  UNL1        0.0443
     10 C         -62.9410  -42.6819  -25.3335 C.ar    1  UNL1        0.1457
     11 F         -63.3754  -41.9427  -26.3853 F       1  UNL1       -0.2040
     12 N         -62.7150  -42.3256  -21.6067 N.pl3   1  UNL1       -0.3040
     13 C         -61.6109  -41.4689  -21.1435 C.3     1  UNL1        0.1122
     14 C         -61.9835  -40.7271  -19.8556 C.3     1  UNL1        0.1122
     15 N         -63.3566  -40.2131  -19.9610 N.pl3   1  UNL1       -0.3041
     16 C         -64.4471  -41.1240  -20.3469 C.3     1  UNL1        0.1122
     17 C         -63.9072  -42.4969  -20.7644 C.3     1  UNL1        0.1122
     18 C         -63.6333  -38.8110  -19.7816 C.ar    1  UNL1        0.0479
     19 C         -64.8323  -38.3946  -19.1807 C.ar    1  UNL1        0.0145
     20 C         -65.0992  -37.0356  -19.0069 C.ar    1  UNL1        0.0012
     21 C         -64.1690  -36.0785  -19.4178 C.ar    1  UNL1        0.0039
     22 C         -62.9479  -36.4742  -19.9898 C.ar    1  UNL1        0.0726
     23 C         -62.6972  -37.8441  -20.1865 C.ar    1  UNL1        0.0184
     24 C         -61.9625  -35.4420  -20.4780 C.3     1  UNL1        0.4186
     25 F         -61.4840  -34.7235  -19.3983 F       1  UNL1       -0.1659
     26 F         -62.5692  -34.5710  -21.3665 F       1  UNL1       -0.1659
     27 F         -60.8983  -36.0467  -21.1244 F       1  UNL1       -0.1659
     28 C         -63.2015  -44.9018  -29.1658 C.3     1  UNL1        0.1535
     29 C         -64.3831  -45.6227  -29.7605 C.2     1  UNL1        0.2443
     30 O         -65.5117  -45.0599  -29.7493 O.2     1  UNL1       -0.2730
     31 N         -64.2455  -46.9592  -30.2736 N.am    1  UNL1       -0.2825
     32 H         -63.4104  -47.5158  -29.9830 H       1  UNL1        0.1549
     33 C         -65.2386  -47.6168  -31.0790 C.ar    1  UNL1        0.0535
     34 C         -65.8989  -48.7452  -30.5737 C.ar    1  UNL1        0.0353
     35 C         -66.8473  -49.4022  -31.3612 C.ar    1  UNL1        0.1002
     36 N         -67.1157  -48.9585  -32.6176 N.ar    1  UNL1       -0.2422
     37 C         -66.4778  -47.8793  -33.1427 C.ar    1  UNL1        0.1002
     38 C         -65.5231  -47.1926  -32.3883 C.ar    1  UNL1        0.0353
     39 C         -63.1457  -43.4470  -29.6683 C.3     1  UNL1        0.0569
     40 C         -62.4347  -43.3509  -30.9889 C.ar    1  UNL1       -0.0017
     41 C         -62.9940  -42.9505  -32.1985 C.ar    1  UNL1        0.0681
     42 N         -62.1048  -43.1074  -33.2056 N.ar    1  UNL1       -0.3523
     43 C         -60.9938  -43.6164  -32.6456 C.ar    1  UNL1        0.0563
     44 C         -59.8186  -43.9937  -33.2944 C.ar    1  UNL1        0.0170
     45 C         -58.7897  -44.5567  -32.5178 C.ar    1  UNL1        0.0015
     46 C         -58.9582  -44.7336  -31.1269 C.ar    1  UNL1        0.0001
     47 C         -60.1548  -44.3431  -30.4985 C.ar    1  UNL1        0.0012
     48 C         -61.1561  -43.7824  -31.2937 C.ar    1  UNL1        0.0131
     49 H         -62.2639  -42.9021  -34.2170 H       1  UNL1        0.1660
@<TRIPOS>BOND
     1     1     2    2
     2     2     3   am
     3     3    28    1
     4    28    39    1
     5    39    40    1
     6    40    41   ar
     7    41    42   ar
     8    42    43   ar
     9    43    44   ar
    10    44    45   ar
    11    45    46   ar
    12    46    47   ar
    13    47    48   ar
    14    28    29    1
    15    29    30    2
    16    29    31   am
    17    31    33    1
    18    33    34   ar
    19    34    35   ar
    20    35    36   ar
    21    36    37   ar
    22    37    38   ar
    23     2     5    1
    24     5     6   ar
    25     6     7   ar
    26     7     8   ar
    27     8    12    1
    28    12    13    1
    29    13    14    1
    30    14    15    1
    31    15    18    1
    32    18    19   ar
    33    19    20   ar
    34    20    21   ar
    35    21    22   ar
    36    22    24    1
    37    24    25    1
    38    24    26    1
    39    24    27    1
    40    22    23   ar
    41    15    16    1
    42    16    17    1
    43     8     9   ar
    44     9    10   ar
    45    10    11    1
    46    48    40   ar
    47    38    33   ar
    48    10     5   ar
    49    48    43   ar
    50    17    12    1
    51    23    18   ar
    52     3     4    1
    53    42    49    1
    54    31    32    1
@<TRIPOS>MOLECULE
*****
 49 54 0 0 0
SMALL
GASTEIGER

@<TRIPOS>ATOM
      1 O         -60.7604  -43.2550  -20.4264 O.2     1  UNL1       -0.2701
      2 C         -61.2593  -42.7047  -21.4457 C.2     1  UNL1        0.2483
      3 N         -61.9440  -41.4467  -21.3189 N.am    1  UNL1       -0.2945
      4 H         -62.2712  -40.9672  -22.1863 H       1  UNL1        0.1501
      5 C         -61.2154  -43.4145  -22.7416 C.ar    1  UNL1        0.0808
      6 C         -61.6708  -44.7411  -22.8087 C.ar    1  UNL1        0.0080
      7 C         -61.7404  -45.4066  -24.0341 C.ar    1  UNL1        0.0148
      8 C         -61.3386  -44.7644  -25.2143 C.ar    1  UNL1        0.0502
      9 C         -60.8481  -43.4507  -25.1452 C.ar    1  UNL1        0.0443
     10 C         -60.7794  -42.7803  -23.9202 C.ar    1  UNL1        0.1457
     11 F         -60.2600  -41.5271  -23.8902 F       1  UNL1       -0.2040
     12 N         -61.4667  -45.4299  -26.4844 N.pl3   1  UNL1       -0.3040
     13 C         -62.7884  -45.5047  -27.1283 C.3     1  UNL1        0.1122
     14 C         -62.6748  -45.9795  -28.5808 C.3     1  UNL1        0.1122
     15 N         -61.5439  -45.3050  -29.2341 N.pl3   1  UNL1       -0.3041
     16 C         -60.2171  -45.3252  -28.5960 C.3     1  UNL1        0.1122
     17 C         -60.2818  -45.9364  -27.1913 C.3     1  UNL1        0.1122
     18 C         -61.7381  -44.5469  -30.4433 C.ar    1  UNL1        0.0479
     19 C         -62.9327  -43.8396  -30.6544 C.ar    1  UNL1        0.0145
     20 C         -63.1196  -43.1049  -31.8264 C.ar    1  UNL1        0.0012
     21 C         -62.1135  -43.0567  -32.7936 C.ar    1  UNL1        0.0039
     22 C         -60.8967  -43.7287  -32.5873 C.ar    1  UNL1        0.0726
     23 C         -60.7257  -44.4890  -31.4164 C.ar    1  UNL1        0.0184
     24 C         -59.8275  -43.7177  -33.6509 C.3     1  UNL1        0.4186
     25 F         -60.4256  -43.7124  -34.8971 F       1  UNL1       -0.1659
     26 F         -59.0207  -44.8373  -33.5424 F       1  UNL1       -0.1659
     27 F         -59.0268  -42.5951  -33.5303 F       1  UNL1       -0.1659
     28 C         -62.5435  -41.0135  -20.0519 C.3     1  UNL1        0.1535
     29 C         -62.8012  -39.5296  -20.0861 C.2     1  UNL1        0.2443
     30 O         -62.3573  -38.8540  -21.0541 O.2     1  UNL1       -0.2730
     31 N         -63.4838  -38.8778  -19.0010 N.am    1  UNL1       -0.2825
     32 H         -63.5483  -39.3789  -18.0865 H       1  UNL1        0.1549
     33 C         -63.9932  -37.5346  -19.0634 C.ar    1  UNL1        0.0535
     34 C         -63.1903  -36.4722  -18.6260 C.ar    1  UNL1        0.0353
     35 C         -63.6890  -35.1678  -18.6620 C.ar    1  UNL1        0.1002
     36 N         -64.9529  -34.9330  -19.1035 N.ar    1  UNL1       -0.2422
     37 C         -65.7623  -35.9442  -19.5154 C.ar    1  UNL1        0.1002
     38 C         -65.3023  -37.2634  -19.4967 C.ar    1  UNL1        0.0353
     39 C         -63.8497  -41.7840  -19.7836 C.3     1  UNL1        0.0569
     40 C         -64.9897  -41.2255  -20.5883 C.ar    1  UNL1       -0.0017
     41 C         -66.2667  -40.9363  -20.1172 C.ar    1  UNL1        0.0681
     42 N         -67.0763  -40.5732  -21.1380 N.ar    1  UNL1       -0.3523
     43 C         -66.3265  -40.6439  -22.2514 C.ar    1  UNL1        0.0563
     44 C         -66.7383  -40.4080  -23.5626 C.ar    1  UNL1        0.0170
     45 C         -65.7963  -40.5904  -24.5912 C.ar    1  UNL1        0.0015
     46 C         -64.4803  -41.0055  -24.2908 C.ar    1  UNL1        0.0001
     47 C         -64.0921  -41.2356  -22.9583 C.ar    1  UNL1        0.0012
     48 C         -65.0468  -41.0413  -21.9581 C.ar    1  UNL1        0.0131
     49 H         -68.0872  -40.3196  -21.0737 H       1  UNL1        0.1660
@<TRIPOS>BOND
     1     1     2    2
     2     2     3   am
     3     3    28    1
     4    28    39    1
     5    39    40    1
     6    40    41   ar
     7    41    42   ar
     8    42    43   ar
     9    43    44   ar
    10    44    45   ar
    11    45    46   ar
    12    46    47   ar
    13    47    48   ar
    14    28    29    1
    15    29    30    2
    16    29    31   am
    17    31    33    1
    18    33    34   ar
    19    34    35   ar
    20    35    36   ar
    21    36    37   ar
    22    37    38   ar
    23     2     5    1
    24     5     6   ar
    25     6     7   ar
    26     7     8   ar
    27     8    12    1
    28    12    13    1
    29    13    14    1
    30    14    15    1
    31    15    18    1
    32    18    19   ar
    33    19    20   ar
    34    20    21   ar
    35    21    22   ar
    36    22    24    1
    37    24    25    1
    38    24    26    1
    39    24    27    1
    40    22    23   ar
    41    15    16    1
    42    16    17    1
    43     8     9   ar
    44     9    10   ar
    45    10    11    1
    46    48    40   ar
    47    38    33   ar
    48    10     5   ar
    49    48    43   ar
    50    17    12    1
    51    23    18   ar
    52     3     4    1
    53    42    49    1
    54    31    32    1
@<TRIPOS>MOLECULE
*****
 49 54 0 0 0
SMALL
GASTEIGER

@<TRIPOS>ATOM
      1 O         -63.9577  -40.2187  -22.4734 O.2     1  UNL1       -0.2701
      2 C         -63.3097  -41.1477  -23.0282 C.2     1  UNL1        0.2483
      3 N         -62.2625  -41.8208  -22.3087 N.am    1  UNL1       -0.2945
      4 H         -61.8000  -42.6433  -22.7545 H       1  UNL1        0.1501
      5 C         -63.5749  -41.4625  -24.4480 C.ar    1  UNL1        0.0808
      6 C         -64.5166  -40.6954  -25.1526 C.ar    1  UNL1        0.0080
      7 C         -64.7166  -40.8973  -26.5196 C.ar    1  UNL1        0.0148
      8 C         -63.9916  -41.8828  -27.2050 C.ar    1  UNL1        0.0502
      9 C         -63.0760  -42.6761  -26.4954 C.ar    1  UNL1        0.0443
     10 C         -62.8714  -42.4751  -25.1270 C.ar    1  UNL1        0.1457
     11 F         -62.0090  -43.2906  -24.4693 F       1  UNL1       -0.2040
     12 N         -64.1547  -42.0499  -28.6255 N.pl3   1  UNL1       -0.3040
     13 C         -63.6062  -41.0333  -29.5381 C.3     1  UNL1        0.1122
     14 C         -63.6179  -41.5232  -30.9900 C.3     1  UNL1        0.1122
     15 N         -63.1663  -42.9209  -31.0435 N.pl3   1  UNL1       -0.3041
     16 C         -63.7998  -43.9244  -30.1720 C.3     1  UNL1        0.1122
     17 C         -64.7630  -43.2700  -29.1746 C.3     1  UNL1        0.1122
     18 C         -62.0503  -43.3026  -31.8703 C.ar    1  UNL1        0.0479
     19 C         -62.1128  -43.1464  -33.2645 C.ar    1  UNL1        0.0145
     20 C         -61.0305  -43.5162  -34.0647 C.ar    1  UNL1        0.0012
     21 C         -59.8707  -44.0328  -33.4833 C.ar    1  UNL1        0.0039
     22 C         -59.7738  -44.1652  -32.0876 C.ar    1  UNL1        0.0726
     23 C         -60.8780  -43.8160  -31.2895 C.ar    1  UNL1        0.0184
     24 C         -58.5413  -44.7673  -31.4607 C.3     1  UNL1        0.4186
     25 F         -58.5296  -44.4758  -30.1094 F       1  UNL1       -0.1659
     26 F         -57.3965  -44.2513  -32.0434 F       1  UNL1       -0.1659
     27 F         -58.5281  -46.1415  -31.6255 F       1  UNL1       -0.1659
     28 C         -61.5577  -41.1860  -21.1895 C.3     1  UNL1        0.1535
     29 C         -62.4784  -41.0680  -20.0029 C.2     1  UNL1        0.2443
     30 O         -62.4350  -40.0240  -19.2967 O.2     1  UNL1       -0.2730
     31 N         -63.3474  -42.1540  -19.6370 N.am    1  UNL1       -0.2825
     32 H         -63.1386  -43.1035  -20.0196 H       1  UNL1        0.1549
     33 C         -64.4260  -42.0370  -18.6934 C.ar    1  UNL1        0.0535
     34 C         -65.2078  -43.1621  -18.3975 C.ar    1  UNL1        0.0353
     35 C         -66.2719  -43.0484  -17.4997 C.ar    1  UNL1        0.1002
     36 N         -66.5573  -41.8483  -16.9291 N.ar    1  UNL1       -0.2422
     37 C         -65.8301  -40.7352  -17.2110 C.ar    1  UNL1        0.1002
     38 C         -64.7566  -40.8053  -18.1026 C.ar    1  UNL1        0.0353
     39 C         -60.2986  -41.9923  -20.8200 C.3     1  UNL1        0.0569
     40 C         -60.3362  -43.3706  -21.4182 C.ar    1  UNL1       -0.0017
     41 C         -61.4130  -44.2516  -21.3906 C.ar    1  UNL1        0.0681
     42 N         -61.0569  -45.4498  -21.9073 N.ar    1  UNL1       -0.3523
     43 C         -59.7614  -45.3384  -22.2481 C.ar    1  UNL1        0.0563
     44 C         -58.9395  -46.3326  -22.7776 C.ar    1  UNL1        0.0170
     45 C         -57.5902  -46.0139  -23.0148 C.ar    1  UNL1        0.0015
     46 C         -57.0961  -44.7252  -22.7157 C.ar    1  UNL1        0.0001
     47 C         -57.9485  -43.7411  -22.1826 C.ar    1  UNL1        0.0012
     48 C         -59.2839  -44.0845  -21.9628 C.ar    1  UNL1        0.0131
     49 H         -61.6611  -46.2971  -21.9938 H       1  UNL1        0.1660
@<TRIPOS>BOND
     1     1     2    2
     2     2     3   am
     3     3    28    1
     4    28    39    1
     5    39    40    1
     6    40    41   ar
     7    41    42   ar
     8    42    43   ar
     9    43    44   ar
    10    44    45   ar
    11    45    46   ar
    12    46    47   ar
    13    47    48   ar
    14    28    29    1
    15    29    30    2
    16    29    31   am
    17    31    33    1
    18    33    34   ar
    19    34    35   ar
    20    35    36   ar
    21    36    37   ar
    22    37    38   ar
    23     2     5    1
    24     5     6   ar
    25     6     7   ar
    26     7     8   ar
    27     8    12    1
    28    12    13    1
    29    13    14    1
    30    14    15    1
    31    15    18    1
    32    18    19   ar
    33    19    20   ar
    34    20    21   ar
    35    21    22   ar
    36    22    24    1
    37    24    25    1
    38    24    26    1
    39    24    27    1
    40    22    23   ar
    41    15    16    1
    42    16    17    1
    43     8     9   ar
    44     9    10   ar
    45    10    11    1
    46    48    40   ar
    47    38    33   ar
    48    10     5   ar
    49    48    43   ar
    50    17    12    1
    51    23    18   ar
    52     3     4    1
    53    42    49    1
    54    31    32    1
@<TRIPOS>MOLECULE
*****
 49 54 0 0 0
SMALL
GASTEIGER

@<TRIPOS>ATOM
      1 O         -64.2179  -40.0866  -22.3705 O.2     1  UNL1       -0.2701
      2 C         -63.5940  -41.0188  -22.9472 C.2     1  UNL1        0.2483
      3 N         -62.7003  -41.8568  -22.1945 N.am    1  UNL1       -0.2945
      4 H         -62.2632  -42.6754  -22.6720 H       1  UNL1        0.1501
      5 C         -63.7195  -41.1710  -24.4122 C.ar    1  UNL1        0.0808
      6 C         -62.8385  -42.0316  -25.0867 C.ar    1  UNL1        0.0080
      7 C         -62.9937  -42.2786  -26.4521 C.ar    1  UNL1        0.0148
      8 C         -64.0222  -41.6555  -27.1735 C.ar    1  UNL1        0.0502
      9 C         -64.8819  -40.7661  -26.5094 C.ar    1  UNL1        0.0443
     10 C         -64.7309  -40.5182  -25.1417 C.ar    1  UNL1        0.1457
     11 F         -65.5555  -39.6201  -24.5462 F       1  UNL1       -0.2040
     12 N         -64.2185  -41.9566  -28.5675 N.pl3   1  UNL1       -0.3040
     13 C         -63.7840  -40.9831  -29.5828 C.3     1  UNL1        0.1122
     14 C         -63.8045  -41.5957  -30.9872 C.3     1  UNL1        0.1122
     15 N         -63.2442  -42.9539  -30.9421 N.pl3   1  UNL1       -0.3041
     16 C         -63.7659  -43.9244  -29.9654 C.3     1  UNL1        0.1122
     17 C         -64.7449  -43.2627  -28.9883 C.3     1  UNL1        0.1122
     18 C         -62.1293  -43.3182  -31.7781 C.ar    1  UNL1        0.0479
     19 C         -62.2003  -43.1497  -33.1704 C.ar    1  UNL1        0.0145
     20 C         -61.1191  -43.5027  -33.9795 C.ar    1  UNL1        0.0012
     21 C         -59.9519  -44.0144  -33.4089 C.ar    1  UNL1        0.0039
     22 C         -59.8466  -44.1589  -32.0150 C.ar    1  UNL1        0.0726
     23 C         -60.9496  -43.8266  -31.2080 C.ar    1  UNL1        0.0184
     24 C         -58.6056  -44.7559  -31.3999 C.3     1  UNL1        0.4186
     25 F         -58.5729  -44.4490  -30.0525 F       1  UNL1       -0.1659
     26 F         -57.4690  -44.2487  -32.0059 F       1  UNL1       -0.1659
     27 F         -58.5972  -46.1320  -31.5492 F       1  UNL1       -0.1659
     28 C         -62.0770  -41.4029  -20.9464 C.3     1  UNL1        0.1535
     29 C         -62.8789  -41.8859  -19.7660 C.2     1  UNL1        0.2443
     30 O         -62.6753  -41.3667  -18.6349 O.2     1  UNL1       -0.2730
     31 N         -63.8152  -42.9683  -19.9080 N.am    1  UNL1       -0.2825
     32 H         -63.7322  -43.5857  -20.7467 H       1  UNL1        0.1549
     33 C         -64.7941  -43.3192  -18.9150 C.ar    1  UNL1        0.0535
     34 C         -65.2053  -44.6537  -18.7942 C.ar    1  UNL1        0.0353
     35 C         -66.1736  -44.9963  -17.8475 C.ar    1  UNL1        0.1002
     36 N         -66.7260  -44.0367  -17.0593 N.ar    1  UNL1       -0.2422
     37 C         -66.3626  -42.7314  -17.1663 C.ar    1  UNL1        0.1002
     38 C         -65.3966  -42.3460  -18.0995 C.ar    1  UNL1        0.0353
     39 C         -60.6242  -41.9062  -20.8566 C.3     1  UNL1        0.0569
     40 C         -60.2517  -42.7210  -22.0634 C.ar    1  UNL1       -0.0017
     41 C         -59.7606  -42.2301  -23.2693 C.ar    1  UNL1        0.0681
     42 N         -59.6575  -43.2262  -24.1784 N.ar    1  UNL1       -0.3523
     43 C         -60.0922  -44.3391  -23.5625 C.ar    1  UNL1        0.0563
     44 C         -60.2189  -45.6139  -24.1133 C.ar    1  UNL1        0.0170
     45 C         -60.7477  -46.6327  -23.3003 C.ar    1  UNL1        0.0015
     46 C         -61.1392  -46.3570  -21.9717 C.ar    1  UNL1        0.0001
     47 C         -60.9995  -45.0613  -21.4418 C.ar    1  UNL1        0.0012
     48 C         -60.4667  -44.0718  -22.2703 C.ar    1  UNL1        0.0131
     49 H         -59.3341  -43.1383  -25.1674 H       1  UNL1        0.1660
@<TRIPOS>BOND
     1     1     2    2
     2     2     3   am
     3     3    28    1
     4    28    39    1
     5    39    40    1
     6    40    41   ar
     7    41    42   ar
     8    42    43   ar
     9    43    44   ar
    10    44    45   ar
    11    45    46   ar
    12    46    47   ar
    13    47    48   ar
    14    28    29    1
    15    29    30    2
    16    29    31   am
    17    31    33    1
    18    33    34   ar
    19    34    35   ar
    20    35    36   ar
    21    36    37   ar
    22    37    38   ar
    23     2     5    1
    24     5     6   ar
    25     6     7   ar
    26     7     8   ar
    27     8    12    1
    28    12    13    1
    29    13    14    1
    30    14    15    1
    31    15    18    1
    32    18    19   ar
    33    19    20   ar
    34    20    21   ar
    35    21    22   ar
    36    22    24    1
    37    24    25    1
    38    24    26    1
    39    24    27    1
    40    22    23   ar
    41    15    16    1
    42    16    17    1
    43     8     9   ar
    44     9    10   ar
    45    10    11    1
    46    48    40   ar
    47    38    33   ar
    48    10     5   ar
    49    48    43   ar
    50    17    12    1
    51    23    18   ar
    52     3     4    1
    53    42    49    1
    54    31    32    1
