@<TRIPOS>MOLECULE
*****
 53 59 0 0 0
SMALL
GASTEIGER

@<TRIPOS>ATOM
      1 C          60.8716   87.4883   12.0291 C.ar    1  UNL1        0.0487
      2 C          59.8943   87.0749   12.9471 C.ar    1  UNL1        0.0176
      3 C          60.2481   86.3266   14.0737 C.ar    1  UNL1        0.0382
      4 C          61.5943   85.9726   14.2988 C.ar    1  UNL1        0.1388
      5 C          62.5647   86.3838   13.3775 C.ar    1  UNL1        0.0382
      6 C          62.2105   87.1318   12.2519 C.ar    1  UNL1        0.0176
      7 N          60.5145   89.3030    8.3002 N.pl3   1  UNL1       -0.3034
      8 C          60.0883   87.9092    8.4727 C.3     1  UNL1        0.1123
      9 C          59.5488   87.7059    9.8866 C.3     1  UNL1        0.1129
     10 N          60.4992   88.2521   10.8655 N.pl3   1  UNL1       -0.2968
     11 C          60.9596   89.6389   10.6993 C.3     1  UNL1        0.1503
     12 BR         59.5121   90.8781   11.0940 Br      1  UNL1       -0.0577
     13 C          61.4699   89.8538    9.2694 C.3     1  UNL1        0.1225
     14 C          59.6456   91.3753    4.6793 C.ar    1  UNL1        0.0699
     15 C          58.6049   90.9235    5.5086 C.ar    1  UNL1        0.0190
     16 C          58.8879   90.2424    6.6956 C.ar    1  UNL1        0.0160
     17 C          60.2172   90.0081    7.0807 C.ar    1  UNL1        0.0481
     18 C          61.2579   90.4638    6.2579 C.ar    1  UNL1        0.0160
     19 C          60.9758   91.1430    5.0694 C.ar    1  UNL1        0.0190
     20 N          59.5095   93.2643    1.5820 N.ar    1  UNL1       -0.2024
     21 N          58.2335   92.9358    1.7182 N.ar    1  UNL1       -0.1442
     22 C          58.1432   92.2152    2.8572 C.ar    1  UNL1        0.2073
     23 N          59.3470   92.0798    3.4584 N.ar    1  UNL1       -0.2398
     24 C          60.1779   92.7425    2.6296 C.ar    1  UNL1        0.3522
     25 O          61.4247   92.8321    2.7919 O.2     1  UNL1       -0.2444
     26 C          60.0360   94.0390    0.4521 C.3     1  UNL1        0.1099
     27 C          60.7490   93.1100   -0.5398 C.3     1  UNL1        0.0265
     28 C          58.3956   94.2122   -1.5017 C.3     1  UNL1        0.0021
     29 C          58.9035   94.8518   -0.2096 C.3     1  UNL1        0.0245
     30 O          62.0248   85.2258   15.4098 O.3     1  UNL1       -0.4727
     31 C          62.9376   84.1253   15.4025 C.3     1  UNL1        0.2374
     32 C          62.2229   82.8144   15.0385 C.3     1  UNL1        0.1909
     33 C          63.1424   81.7398   14.5332 C.3     1  UNL1        0.1783
     34 O          63.0992   81.8322   13.1481 O.3     1  UNL1       -0.3267
     35 C          61.8554   82.4344   12.8432 C.3     1  UNL1        0.2296
     36 O          61.3276   83.0587   13.9981 O.3     1  UNL1       -0.3255
     37 C          60.8959   81.3629   12.3088 C.ar    1  UNL1        0.0409
     38 C          59.7247   81.0900   13.0502 C.ar    1  UNL1        0.0022
     39 C          58.8316   80.0956   12.6507 C.ar    1  UNL1        0.0113
     40 C          59.0889   79.3425   11.5078 C.ar    1  UNL1        0.0585
     41 CL         57.9703   78.0847   11.0147 Cl      1  UNL1       -0.0822
     42 C          60.2452   79.5793   10.7654 C.ar    1  UNL1        0.0226
     43 C          61.1569   80.5693   11.1547 C.ar    1  UNL1        0.0591
     44 CL         62.6052   80.7239   10.1625 Cl      1  UNL1       -0.0824
     45 C          62.1135   83.5053   11.7610 C.3     1  UNL1        0.1679
     46 N          60.9048   83.8207   10.9917 N.ar    1  UNL1       -0.3084
     47 C          59.6652   83.9312   11.5002 C.ar    1  UNL1        0.0979
     48 C          58.8092   84.2718   10.4795 C.ar    1  UNL1        0.1188
     49 N          59.5014   84.3846    9.3290 N.ar    1  UNL1       -0.2293
     50 C          60.7764   84.0902    9.6696 C.ar    1  UNL1        0.1201
     51 C          61.9224   84.1816    8.6889 C.3     1  UNL1        0.0569
     52 C          62.7662   85.4230    8.9863 C.3     1  UNL1        0.0079
     53 C          61.4117   84.2047    7.2436 C.3     1  UNL1        0.0079
@<TRIPOS>BOND
     1    28    29    1
     2    29    26    1
     3    26    27    1
     4    26    20    1
     5    20    21   ar
     6    21    22   ar
     7    22    23   ar
     8    23    14    1
     9    14    15   ar
    10    15    16   ar
    11    16    17   ar
    12    17     7    1
    13     7     8    1
    14     8     9    1
    15     9    10    1
    16    10     1    1
    17     1     2   ar
    18     2     3   ar
    19     3     4   ar
    20     4    30    1
    21    30    31    1
    22    31    32    1
    23    32    33    1
    24    33    34    1
    25    34    35    1
    26    35    45    1
    27    45    46    1
    28    46    47   ar
    29    47    48   ar
    30    48    49   ar
    31    49    50   ar
    32    50    51    1
    33    51    52    1
    34    51    53    1
    35    35    37    1
    36    37    38   ar
    37    38    39   ar
    38    39    40   ar
    39    40    41    1
    40    40    42   ar
    41    42    43   ar
    42    43    44    1
    43    35    36    1
    44     4     5   ar
    45     5     6   ar
    46    10    11    1
    47    11    12    1
    48    11    13    1
    49    17    18   ar
    50    18    19   ar
    51    23    24   ar
    52    24    25    2
    53    24    20   ar
    54    19    14   ar
    55    13     7    1
    56     6     1   ar
    57    36    32    1
    58    50    46   ar
    59    43    37   ar
@<TRIPOS>MOLECULE
*****
 53 59 0 0 0
SMALL
GASTEIGER

@<TRIPOS>ATOM
      1 C          59.3636   86.1762   10.5447 C.ar    1  UNL1        0.0487
      2 C          58.3258   85.4966   11.2004 C.ar    1  UNL1        0.0176
      3 C          57.5339   84.5731   10.5117 C.ar    1  UNL1        0.0382
      4 C          57.7656   84.3168    9.1446 C.ar    1  UNL1        0.1388
      5 C          58.7994   85.0008    8.4942 C.ar    1  UNL1        0.0382
      6 C          59.5906   85.9235    9.1831 C.ar    1  UNL1        0.0176
      7 N          62.3724   88.4026   12.3655 N.pl3   1  UNL1       -0.3034
      8 C          62.1849   88.4879   10.9124 C.3     1  UNL1        0.1123
      9 C          60.7061   88.3173   10.5721 C.3     1  UNL1        0.1129
     10 N          60.1708   87.1330   11.2583 N.pl3   1  UNL1       -0.2968
     11 C          60.3680   87.0135   12.7107 C.3     1  UNL1        0.1503
     12 BR         59.2671   88.3171   13.6465 Br      1  UNL1       -0.0577
     13 C          61.8474   87.2188   13.0573 C.3     1  UNL1        0.1225
     14 C          65.0389   91.0679   14.3522 C.ar    1  UNL1        0.0699
     15 C          64.4309   91.4402   13.1412 C.ar    1  UNL1        0.0190
     16 C          63.5573   90.5670   12.4875 C.ar    1  UNL1        0.0160
     17 C          63.2680   89.3081   13.0369 C.ar    1  UNL1        0.0481
     18 C          63.8686   88.9366   14.2490 C.ar    1  UNL1        0.0160
     19 C          64.7442   89.8084   14.9022 C.ar    1  UNL1        0.0190
     20 N          67.6953   93.2198   15.5738 N.ar    1  UNL1       -0.2024
     21 N          66.7661   93.4423   16.4913 N.ar    1  UNL1       -0.1442
     22 C          65.7010   92.6853   16.1488 C.ar    1  UNL1        0.2073
     23 N          65.9361   91.9743   15.0228 N.ar    1  UNL1       -0.2398
     24 C          67.1896   92.3388   14.6881 C.ar    1  UNL1        0.3522
     25 O          67.7984   91.9374   13.6599 O.2     1  UNL1       -0.2444
     26 C          69.0104   93.8715   15.5704 C.3     1  UNL1        0.1099
     27 C          69.0978   94.8924   16.7130 C.3     1  UNL1        0.0265
     28 C          69.9307   91.8158   16.7811 C.3     1  UNL1        0.0021
     29 C          70.1297   92.8116   15.6384 C.3     1  UNL1        0.0245
     30 O          57.0132   83.4004    8.3886 O.3     1  UNL1       -0.4727
     31 C          57.5043   82.5084    7.3849 C.3     1  UNL1        0.2374
     32 C          58.0759   81.2275    8.0129 C.3     1  UNL1        0.1909
     33 C          57.7115   81.0431    9.4582 C.3     1  UNL1        0.1783
     34 O          58.7824   81.5524   10.1812 O.3     1  UNL1       -0.3267
     35 C          59.9019   81.4653    9.3199 C.3     1  UNL1        0.2296
     36 O          59.4684   81.2898    7.9844 O.3     1  UNL1       -0.3255
     37 C          60.7914   80.2983    9.7683 C.ar    1  UNL1        0.0409
     38 C          61.9789   80.0511    9.0441 C.ar    1  UNL1        0.0022
     39 C          62.8110   78.9783    9.3646 C.ar    1  UNL1        0.0113
     40 C          62.4748   78.1200   10.4086 C.ar    1  UNL1        0.0585
     41 CL         63.5167   76.7649   10.8015 Cl      1  UNL1       -0.0822
     42 C          61.3006   78.3306   11.1305 C.ar    1  UNL1        0.0226
     43 C          60.4493   79.3989   10.8190 C.ar    1  UNL1        0.0591
     44 CL         58.9699   79.5149   11.7696 Cl      1  UNL1       -0.0824
     45 C          60.6751   82.7974    9.4310 C.3     1  UNL1        0.1679
     46 N          61.0515   83.1078   10.8145 N.ar    1  UNL1       -0.3084
     47 C          60.2859   82.8880   11.8976 C.ar    1  UNL1        0.0979
     48 C          60.9941   83.2729   13.0115 C.ar    1  UNL1        0.1188
     49 N          62.2066   83.7283   12.6401 N.ar    1  UNL1       -0.2293
     50 C          62.2084   83.6284   11.2917 C.ar    1  UNL1        0.1201
     51 C          63.4232   83.9527   10.4534 C.3     1  UNL1        0.0569
     52 C          62.9875   84.4447    9.0714 C.3     1  UNL1        0.0079
     53 C          64.3496   82.7374   10.3307 C.3     1  UNL1        0.0079
@<TRIPOS>BOND
     1    28    29    1
     2    29    26    1
     3    26    27    1
     4    26    20    1
     5    20    21   ar
     6    21    22   ar
     7    22    23   ar
     8    23    14    1
     9    14    15   ar
    10    15    16   ar
    11    16    17   ar
    12    17     7    1
    13     7     8    1
    14     8     9    1
    15     9    10    1
    16    10     1    1
    17     1     2   ar
    18     2     3   ar
    19     3     4   ar
    20     4    30    1
    21    30    31    1
    22    31    32    1
    23    32    33    1
    24    33    34    1
    25    34    35    1
    26    35    45    1
    27    45    46    1
    28    46    47   ar
    29    47    48   ar
    30    48    49   ar
    31    49    50   ar
    32    50    51    1
    33    51    52    1
    34    51    53    1
    35    35    37    1
    36    37    38   ar
    37    38    39   ar
    38    39    40   ar
    39    40    41    1
    40    40    42   ar
    41    42    43   ar
    42    43    44    1
    43    35    36    1
    44     4     5   ar
    45     5     6   ar
    46    10    11    1
    47    11    12    1
    48    11    13    1
    49    17    18   ar
    50    18    19   ar
    51    23    24   ar
    52    24    25    2
    53    24    20   ar
    54    19    14   ar
    55    13     7    1
    56     6     1   ar
    57    36    32    1
    58    50    46   ar
    59    43    37   ar
@<TRIPOS>MOLECULE
*****
 53 59 0 0 0
SMALL
GASTEIGER

@<TRIPOS>ATOM
      1 C          59.9188   86.8980   10.1555 C.ar    1  UNL1        0.0487
      2 C          58.7924   87.0423   10.9797 C.ar    1  UNL1        0.0176
      3 C          58.6620   86.2814   12.1452 C.ar    1  UNL1        0.0382
      4 C          59.6609   85.3534   12.5047 C.ar    1  UNL1        0.1388
      5 C          60.7804   85.2103   11.6766 C.ar    1  UNL1        0.0382
      6 C          60.9103   85.9711   10.5120 C.ar    1  UNL1        0.0176
      7 N          59.6295   89.6516    7.0475 N.pl3   1  UNL1       -0.3034
      8 C          60.3414   90.0179    8.2775 C.3     1  UNL1        0.1123
      9 C          61.0117   88.7819    8.8733 C.3     1  UNL1        0.1129
     10 N          60.0432   87.6792    8.9511 N.pl3   1  UNL1       -0.2968
     11 C          59.2996   87.3102    7.7372 C.3     1  UNL1        0.1503
     12 BR         60.4896   86.4578    6.4549 Br      1  UNL1       -0.0577
     13 C          58.6545   88.5562    7.1188 C.3     1  UNL1        0.1225
     14 C          59.7968   92.2021    3.6376 C.ar    1  UNL1        0.0699
     15 C          60.9461   91.5223    4.0755 C.ar    1  UNL1        0.0190
     16 C          60.8935   90.6866    5.1944 C.ar    1  UNL1        0.0160
     17 C          59.6884   90.5076    5.8915 C.ar    1  UNL1        0.0481
     18 C          58.5382   91.1801    5.4525 C.ar    1  UNL1        0.0160
     19 C          58.5904   92.0178    4.3350 C.ar    1  UNL1        0.0190
     20 N          59.9239   93.8298    0.3951 N.ar    1  UNL1       -0.2024
     21 N          59.9414   94.8862    1.1940 N.ar    1  UNL1       -0.1442
     22 C          59.8979   94.4112    2.4578 C.ar    1  UNL1        0.2073
     23 N          59.8571   93.0597    2.4813 N.ar    1  UNL1       -0.2398
     24 C          59.8679   92.7315    1.1742 C.ar    1  UNL1        0.3522
     25 O          59.7973   91.5522    0.7346 O.2     1  UNL1       -0.2444
     26 C          59.9388   93.9150   -1.0701 C.3     1  UNL1        0.1099
     27 C          61.2788   93.4031   -1.6161 C.3     1  UNL1        0.0265
     28 C          57.3919   93.7335   -1.2051 C.3     1  UNL1        0.0021
     29 C          58.7320   93.1555   -1.6598 C.3     1  UNL1        0.0245
     30 O          59.5998   84.5571   13.6621 O.3     1  UNL1       -0.4727
     31 C          60.5475   84.5245   14.7322 C.3     1  UNL1        0.2374
     32 C          60.7187   85.9150   15.3641 C.3     1  UNL1        0.1909
     33 C          60.0348   87.0164   14.6060 C.3     1  UNL1        0.1783
     34 O          61.0109   87.5668   13.7854 O.3     1  UNL1       -0.3267
     35 C          62.2458   87.2805   14.4142 C.3     1  UNL1        0.2296
     36 O          62.0723   86.2491   15.3673 O.3     1  UNL1       -0.3255
     37 C          62.7811   88.5574   15.0756 C.ar    1  UNL1        0.0409
     38 C          63.1110   89.6494   14.2424 C.ar    1  UNL1        0.0022
     39 C          63.6481   90.8242   14.7693 C.ar    1  UNL1        0.0113
     40 C          63.8785   90.9354   16.1382 C.ar    1  UNL1        0.0585
     41 CL         64.5652   92.4091   16.7963 Cl      1  UNL1       -0.0822
     42 C          63.5771   89.8675   16.9826 C.ar    1  UNL1        0.0226
     43 C          63.0431   88.6776   16.4709 C.ar    1  UNL1        0.0591
     44 CL         62.7648   87.3868   17.6381 Cl      1  UNL1       -0.0824
     45 C          63.2217   86.7992   13.3185 C.3     1  UNL1        0.1679
     46 N          64.2438   85.8884   13.8455 N.ar    1  UNL1       -0.3084
     47 C          65.1471   86.1962   14.7925 C.ar    1  UNL1        0.0979
     48 C          65.9050   85.0772   15.0454 C.ar    1  UNL1        0.1188
     49 N          65.4817   84.0607   14.2690 N.ar    1  UNL1       -0.2293
     50 C          64.4752   84.5891   13.5368 C.ar    1  UNL1        0.1201
     51 C          63.6436   83.7642   12.5820 C.3     1  UNL1        0.0569
     52 C          63.2287   82.4520   13.2509 C.3     1  UNL1        0.0079
     53 C          64.4048   83.4934   11.2791 C.3     1  UNL1        0.0079
@<TRIPOS>BOND
     1    28    29    1
     2    29    26    1
     3    26    27    1
     4    26    20    1
     5    20    21   ar
     6    21    22   ar
     7    22    23   ar
     8    23    14    1
     9    14    15   ar
    10    15    16   ar
    11    16    17   ar
    12    17     7    1
    13     7     8    1
    14     8     9    1
    15     9    10    1
    16    10     1    1
    17     1     2   ar
    18     2     3   ar
    19     3     4   ar
    20     4    30    1
    21    30    31    1
    22    31    32    1
    23    32    33    1
    24    33    34    1
    25    34    35    1
    26    35    45    1
    27    45    46    1
    28    46    47   ar
    29    47    48   ar
    30    48    49   ar
    31    49    50   ar
    32    50    51    1
    33    51    52    1
    34    51    53    1
    35    35    37    1
    36    37    38   ar
    37    38    39   ar
    38    39    40   ar
    39    40    41    1
    40    40    42   ar
    41    42    43   ar
    42    43    44    1
    43    35    36    1
    44     4     5   ar
    45     5     6   ar
    46    10    11    1
    47    11    12    1
    48    11    13    1
    49    17    18   ar
    50    18    19   ar
    51    23    24   ar
    52    24    25    2
    53    24    20   ar
    54    19    14   ar
    55    13     7    1
    56     6     1   ar
    57    36    32    1
    58    50    46   ar
    59    43    37   ar
@<TRIPOS>MOLECULE
*****
 53 59 0 0 0
SMALL
GASTEIGER

@<TRIPOS>ATOM
      1 C          61.7847   86.7225   12.8752 C.ar    1  UNL1        0.0487
      2 C          60.8298   86.2443   13.7854 C.ar    1  UNL1        0.0176
      3 C          61.2094   85.4126   14.8430 C.ar    1  UNL1        0.0382
      4 C          62.5593   85.0388   15.0051 C.ar    1  UNL1        0.1388
      5 C          63.5071   85.5151   14.0918 C.ar    1  UNL1        0.0382
      6 C          63.1272   86.3465   13.0351 C.ar    1  UNL1        0.0176
      7 N          60.6891   88.4228    9.2374 N.pl3   1  UNL1       -0.3034
      8 C          59.7098   87.6334    9.9936 C.3     1  UNL1        0.1123
      9 C          59.9624   87.7950   11.4909 C.3     1  UNL1        0.1129
     10 N          61.3856   87.5726   11.7824 N.pl3   1  UNL1       -0.2968
     11 C          62.3863   88.3343   11.0201 C.3     1  UNL1        0.1503
     12 BR         62.3508   90.2064   11.5501 Br      1  UNL1       -0.0577
     13 C          62.1131   88.2008    9.5172 C.3     1  UNL1        0.1225
     14 C          59.4883   90.6620    5.8162 C.ar    1  UNL1        0.0699
     15 C          58.7140   89.5791    6.2662 C.ar    1  UNL1        0.0190
     16 C          59.1070   88.8426    7.3870 C.ar    1  UNL1        0.0160
     17 C          60.2770   89.1808    8.0849 C.ar    1  UNL1        0.0481
     18 C          61.0482   90.2655    7.6415 C.ar    1  UNL1        0.0160
     19 C          60.6572   91.0011    6.5193 C.ar    1  UNL1        0.0190
     20 N          59.0617   92.6064    2.7802 N.ar    1  UNL1       -0.2024
     21 N          57.7969   92.4374    3.1359 N.ar    1  UNL1       -0.1442
     22 C          57.8134   91.7141    4.2766 C.ar    1  UNL1        0.2073
     23 N          59.0758   91.4192    4.6618 N.ar    1  UNL1       -0.2398
     24 C          59.8288   91.9872    3.6992 C.ar    1  UNL1        0.3522
     25 O          61.0862   91.9177    3.6437 O.2     1  UNL1       -0.2444
     26 C          59.4797   93.3287    1.5730 C.3     1  UNL1        0.1099
     27 C          60.6243   94.2959    1.9049 C.3     1  UNL1        0.0265
     28 C          61.1125   92.7442   -0.3061 C.3     1  UNL1        0.0021
     29 C          59.8551   92.3300    0.4583 C.3     1  UNL1        0.0245
     30 O          63.0151   84.2095   16.0453 O.3     1  UNL1       -0.4727
     31 C          63.7299   82.9786   15.9107 C.3     1  UNL1        0.2374
     32 C          62.8084   81.8537   15.4132 C.3     1  UNL1        0.1909
     33 C          63.5389   80.7010   14.7861 C.3     1  UNL1        0.1783
     34 O          63.5248   80.9490   13.4196 O.3     1  UNL1       -0.3267
     35 C          62.4028   81.7811   13.1930 C.3     1  UNL1        0.2296
     36 O          61.9766   82.3564   14.4136 O.3     1  UNL1       -0.3255
     37 C          61.2819   80.9505   12.5544 C.ar    1  UNL1        0.0409
     38 C          60.0935   80.7578   13.2936 C.ar    1  UNL1        0.0022
     39 C          59.0521   79.9741   12.7964 C.ar    1  UNL1        0.0113
     40 C          59.1736   79.3555   11.5546 C.ar    1  UNL1        0.0585
     41 CL         57.8674   78.3609   10.9374 Cl      1  UNL1       -0.0822
     42 C          60.3416   79.5153   10.8101 C.ar    1  UNL1        0.0226
     43 C          61.4007   80.2933   11.2958 C.ar    1  UNL1        0.0591
     44 CL         62.8409   80.3629   10.2826 Cl      1  UNL1       -0.0824
     45 C          62.8474   82.9043   12.2310 C.3     1  UNL1        0.1679
     46 N          61.7263   83.4502   11.4581 N.ar    1  UNL1       -0.3084
     47 C          60.4330   83.4013   11.8219 C.ar    1  UNL1        0.0979
     48 C          59.6904   84.0483   10.8625 C.ar    1  UNL1        0.1188
     49 N          60.5074   84.5128    9.8970 N.ar    1  UNL1       -0.2293
     50 C          61.7434   84.1209   10.2805 C.ar    1  UNL1        0.1201
     51 C          62.9918   84.5099    9.5231 C.3     1  UNL1        0.0569
     52 C          62.6645   84.7022    8.0408 C.3     1  UNL1        0.0079
     53 C          64.0965   83.4625    9.7046 C.3     1  UNL1        0.0079
@<TRIPOS>BOND
     1    28    29    1
     2    29    26    1
     3    26    27    1
     4    26    20    1
     5    20    21   ar
     6    21    22   ar
     7    22    23   ar
     8    23    14    1
     9    14    15   ar
    10    15    16   ar
    11    16    17   ar
    12    17     7    1
    13     7     8    1
    14     8     9    1
    15     9    10    1
    16    10     1    1
    17     1     2   ar
    18     2     3   ar
    19     3     4   ar
    20     4    30    1
    21    30    31    1
    22    31    32    1
    23    32    33    1
    24    33    34    1
    25    34    35    1
    26    35    45    1
    27    45    46    1
    28    46    47   ar
    29    47    48   ar
    30    48    49   ar
    31    49    50   ar
    32    50    51    1
    33    51    52    1
    34    51    53    1
    35    35    37    1
    36    37    38   ar
    37    38    39   ar
    38    39    40   ar
    39    40    41    1
    40    40    42   ar
    41    42    43   ar
    42    43    44    1
    43    35    36    1
    44     4     5   ar
    45     5     6   ar
    46    10    11    1
    47    11    12    1
    48    11    13    1
    49    17    18   ar
    50    18    19   ar
    51    23    24   ar
    52    24    25    2
    53    24    20   ar
    54    19    14   ar
    55    13     7    1
    56     6     1   ar
    57    36    32    1
    58    50    46   ar
    59    43    37   ar
@<TRIPOS>MOLECULE
*****
 53 59 0 0 0
SMALL
GASTEIGER

@<TRIPOS>ATOM
      1 C          60.0952   87.2920   10.2823 C.ar    1  UNL1        0.0487
      2 C          59.0400   86.3941   10.5043 C.ar    1  UNL1        0.0176
      3 C          58.9495   85.6864   11.7064 C.ar    1  UNL1        0.0382
      4 C          59.9231   85.8626   12.7110 C.ar    1  UNL1        0.1388
      5 C          60.9761   86.7562   12.4827 C.ar    1  UNL1        0.0382
      6 C          61.0660   87.4634   11.2811 C.ar    1  UNL1        0.0176
      7 N          59.7037   89.8709    7.0387 N.pl3   1  UNL1       -0.3034
      8 C          60.4176   90.3192    8.2401 C.3     1  UNL1        0.1123
      9 C          61.1258   89.1337    8.8919 C.3     1  UNL1        0.1129
     10 N          60.1874   88.0121    9.0377 N.pl3   1  UNL1       -0.2968
     11 C          59.4421   87.5611    7.8529 C.3     1  UNL1        0.1503
     12 BR         60.6416   86.6737    6.6036 Br      1  UNL1       -0.0577
     13 C          58.7585   88.7561    7.1776 C.3     1  UNL1        0.1225
     14 C          59.7715   92.2434    3.4993 C.ar    1  UNL1        0.0699
     15 C          60.9370   91.5981    3.9465 C.ar    1  UNL1        0.0190
     16 C          60.9171   90.8209    5.1078 C.ar    1  UNL1        0.0160
     17 C          59.7290   90.6666    5.8392 C.ar    1  UNL1        0.0481
     18 C          58.5626   91.3044    5.3912 C.ar    1  UNL1        0.0160
     19 C          58.5821   92.0838    4.2313 C.ar    1  UNL1        0.0190
     20 N          59.7438   93.7086    0.1778 N.ar    1  UNL1       -0.2024
     21 N          59.9127   94.7947    0.9171 N.ar    1  UNL1       -0.1442
     22 C          59.9420   94.3818    2.2029 C.ar    1  UNL1        0.2073
     23 N          59.7980   93.0405    2.2993 N.ar    1  UNL1       -0.2398
     24 C          59.6700   92.6545    1.0144 C.ar    1  UNL1        0.3522
     25 O          59.4699   91.4665    0.6435 O.2     1  UNL1       -0.2444
     26 C          59.6384   93.7267   -1.2859 C.3     1  UNL1        0.1099
     27 C          58.4073   94.5352   -1.7176 C.3     1  UNL1        0.0265
     28 C          62.1786   93.4846   -1.4507 C.3     1  UNL1        0.0021
     29 C          60.9449   94.2635   -1.9070 C.3     1  UNL1        0.0245
     30 O          59.8955   85.1887   13.9449 O.3     1  UNL1       -0.4727
     31 C          61.0213   84.8058   14.7389 C.3     1  UNL1        0.2374
     32 C          61.8489   83.7164   14.0387 C.3     1  UNL1        0.1909
     33 C          62.4808   84.1646   12.7521 C.3     1  UNL1        0.1783
     34 O          61.6074   83.7662   11.7484 O.3     1  UNL1       -0.3267
     35 C          60.8803   82.6766   12.2838 C.3     1  UNL1        0.2296
     36 O          61.0084   82.6591   13.6929 O.3     1  UNL1       -0.3255
     37 C          61.4026   81.3723   11.6669 C.ar    1  UNL1        0.0409
     38 C          61.5673   80.2549   12.5154 C.ar    1  UNL1        0.0022
     39 C          62.0831   79.0515   12.0338 C.ar    1  UNL1        0.0113
     40 C          62.4564   78.9356   10.6972 C.ar    1  UNL1        0.0585
     41 CL         63.1159   77.4251   10.0974 Cl      1  UNL1       -0.0822
     42 C          62.3197   80.0272    9.8404 C.ar    1  UNL1        0.0226
     43 C          61.8096   81.2456   10.3074 C.ar    1  UNL1        0.0591
     44 CL         61.7460   82.5604    9.1356 Cl      1  UNL1       -0.0824
     45 C          59.3960   82.8843   11.9121 C.3     1  UNL1        0.1679
     46 N          58.7965   81.6812   11.3244 N.ar    1  UNL1       -0.3084
     47 C          58.5067   80.5505   11.9916 C.ar    1  UNL1        0.0979
     48 C          57.9247   79.6681   11.1122 C.ar    1  UNL1        0.1188
     49 N          57.8377   80.2368    9.8938 N.ar    1  UNL1       -0.2293
     50 C          58.3903   81.4609   10.0503 C.ar    1  UNL1        0.1201
     51 C          58.4228   82.4868    8.9412 C.3     1  UNL1        0.0569
     52 C          57.3571   83.5567    9.1882 C.3     1  UNL1        0.0079
     53 C          58.2231   81.8263    7.5722 C.3     1  UNL1        0.0079
@<TRIPOS>BOND
     1    28    29    1
     2    29    26    1
     3    26    27    1
     4    26    20    1
     5    20    21   ar
     6    21    22   ar
     7    22    23   ar
     8    23    14    1
     9    14    15   ar
    10    15    16   ar
    11    16    17   ar
    12    17     7    1
    13     7     8    1
    14     8     9    1
    15     9    10    1
    16    10     1    1
    17     1     2   ar
    18     2     3   ar
    19     3     4   ar
    20     4    30    1
    21    30    31    1
    22    31    32    1
    23    32    33    1
    24    33    34    1
    25    34    35    1
    26    35    45    1
    27    45    46    1
    28    46    47   ar
    29    47    48   ar
    30    48    49   ar
    31    49    50   ar
    32    50    51    1
    33    51    52    1
    34    51    53    1
    35    35    37    1
    36    37    38   ar
    37    38    39   ar
    38    39    40   ar
    39    40    41    1
    40    40    42   ar
    41    42    43   ar
    42    43    44    1
    43    35    36    1
    44     4     5   ar
    45     5     6   ar
    46    10    11    1
    47    11    12    1
    48    11    13    1
    49    17    18   ar
    50    18    19   ar
    51    23    24   ar
    52    24    25    2
    53    24    20   ar
    54    19    14   ar
    55    13     7    1
    56     6     1   ar
    57    36    32    1
    58    50    46   ar
    59    43    37   ar
@<TRIPOS>MOLECULE
*****
 53 59 0 0 0
SMALL
GASTEIGER

@<TRIPOS>ATOM
      1 C          60.8294   87.5239   12.1932 C.ar    1  UNL1        0.0487
      2 C          59.8394   86.9864   13.0298 C.ar    1  UNL1        0.0176
      3 C          60.1907   86.2588   14.1707 C.ar    1  UNL1        0.0382
      4 C          61.5477   86.0511   14.4923 C.ar    1  UNL1        0.1388
      5 C          62.5313   86.5857   13.6520 C.ar    1  UNL1        0.0382
      6 C          62.1797   87.3129   12.5120 C.ar    1  UNL1        0.0176
      7 N          60.4916   89.2780    8.4337 N.pl3   1  UNL1       -0.3034
      8 C          60.0799   87.8821    8.6227 C.3     1  UNL1        0.1123
      9 C          59.5274   87.6936   10.0338 C.3     1  UNL1        0.1129
     10 N          60.4608   88.2658   11.0143 N.pl3   1  UNL1       -0.2968
     11 C          60.9068   89.6552   10.8320 C.3     1  UNL1        0.1503
     12 BR         59.4407   90.8830   11.1924 Br      1  UNL1       -0.0577
     13 C          61.4300   89.8546    9.4045 C.3     1  UNL1        0.1225
     14 C          59.6145   91.3144    4.7944 C.ar    1  UNL1        0.0699
     15 C          60.9459   91.1309    5.2047 C.ar    1  UNL1        0.0190
     16 C          61.2355   90.4647    6.3986 C.ar    1  UNL1        0.0160
     17 C          60.1994   89.9611    7.2005 C.ar    1  UNL1        0.0481
     18 C          58.8696   90.1373    6.7899 C.ar    1  UNL1        0.0160
     19 C          58.5790   90.8055    5.5973 C.ar    1  UNL1        0.0190
     20 N          59.4995   93.1299    1.6527 N.ar    1  UNL1       -0.2024
     21 N          58.2144   92.8540    1.8168 N.ar    1  UNL1       -0.1442
     22 C          58.1154   92.1659    2.9750 C.ar    1  UNL1        0.2073
     23 N          59.3230   91.9994    3.5607 N.ar    1  UNL1       -0.2398
     24 C          60.1647   92.6090    2.7027 C.ar    1  UNL1        0.3522
     25 O          61.4165   92.6548    2.8434 O.2     1  UNL1       -0.2444
     26 C          60.0365   93.8557    0.4955 C.3     1  UNL1        0.1099
     27 C          60.9432   92.9348   -0.3323 C.3     1  UNL1        0.0265
     28 C          58.5573   93.6217   -1.5770 C.3     1  UNL1        0.0021
     29 C          58.8846   94.4551   -0.3381 C.3     1  UNL1        0.0245
     30 O          61.9759   85.3337   15.6235 O.3     1  UNL1       -0.4727
     31 C          62.8487   84.2014   15.6418 C.3     1  UNL1        0.2374
     32 C          62.1053   82.9214   15.2281 C.3     1  UNL1        0.1909
     33 C          62.9813   81.8946   14.5695 C.3     1  UNL1        0.1783
     34 O          62.8334   82.0985   13.2036 O.3     1  UNL1       -0.3267
     35 C          61.5715   82.7186   13.0434 C.3     1  UNL1        0.2296
     36 O          61.1343   83.2456   14.2817 O.3     1  UNL1       -0.3255
     37 C          60.5717   81.6902   12.4985 C.ar    1  UNL1        0.0409
     38 C          61.0660   80.4272   12.1031 C.ar    1  UNL1        0.0022
     39 C          60.2232   79.4608   11.5538 C.ar    1  UNL1        0.0113
     40 C          58.8690   79.7331   11.3762 C.ar    1  UNL1        0.0585
     41 CL         57.8141   78.5205   10.6741 Cl      1  UNL1       -0.0822
     42 C          58.3565   80.9770   11.7428 C.ar    1  UNL1        0.0226
     43 C          59.1888   81.9623   12.2900 C.ar    1  UNL1        0.0591
     44 CL         58.4256   83.5088   12.6532 Cl      1  UNL1       -0.0824
     45 C          61.7494   83.8744   12.0349 C.3     1  UNL1        0.1679
     46 N          62.8315   83.6162   11.0788 N.ar    1  UNL1       -0.3084
     47 C          64.0296   83.0875   11.3832 C.ar    1  UNL1        0.0979
     48 C          64.7549   82.9657   10.2214 C.ar    1  UNL1        0.1188
     49 N          64.0198   83.4075    9.1823 N.ar    1  UNL1       -0.2293
     50 C          62.8550   83.8113    9.7377 C.ar    1  UNL1        0.1201
     51 C          61.6880   84.3036    8.9135 C.3     1  UNL1        0.0569
     52 C          60.6702   83.1767    8.7245 C.3     1  UNL1        0.0079
     53 C          62.1584   84.8443    7.5583 C.3     1  UNL1        0.0079
@<TRIPOS>BOND
     1    28    29    1
     2    29    26    1
     3    26    27    1
     4    26    20    1
     5    20    21   ar
     6    21    22   ar
     7    22    23   ar
     8    23    14    1
     9    14    15   ar
    10    15    16   ar
    11    16    17   ar
    12    17     7    1
    13     7     8    1
    14     8     9    1
    15     9    10    1
    16    10     1    1
    17     1     2   ar
    18     2     3   ar
    19     3     4   ar
    20     4    30    1
    21    30    31    1
    22    31    32    1
    23    32    33    1
    24    33    34    1
    25    34    35    1
    26    35    45    1
    27    45    46    1
    28    46    47   ar
    29    47    48   ar
    30    48    49   ar
    31    49    50   ar
    32    50    51    1
    33    51    52    1
    34    51    53    1
    35    35    37    1
    36    37    38   ar
    37    38    39   ar
    38    39    40   ar
    39    40    41    1
    40    40    42   ar
    41    42    43   ar
    42    43    44    1
    43    35    36    1
    44     4     5   ar
    45     5     6   ar
    46    10    11    1
    47    11    12    1
    48    11    13    1
    49    17    18   ar
    50    18    19   ar
    51    23    24   ar
    52    24    25    2
    53    24    20   ar
    54    19    14   ar
    55    13     7    1
    56     6     1   ar
    57    36    32    1
    58    50    46   ar
    59    43    37   ar
@<TRIPOS>MOLECULE
*****
 53 59 0 0 0
SMALL
GASTEIGER

@<TRIPOS>ATOM
      1 C          59.1706   86.3470   10.3188 C.ar    1  UNL1        0.0487
      2 C          58.1925   85.5836   10.9742 C.ar    1  UNL1        0.0176
      3 C          57.3922   84.6880   10.2590 C.ar    1  UNL1        0.0382
      4 C          57.5547   84.5446    8.8657 C.ar    1  UNL1        0.1388
      5 C          58.5289   85.3118    8.2162 C.ar    1  UNL1        0.0382
      6 C          59.3286   86.2066    8.9315 C.ar    1  UNL1        0.0176
      7 N          62.1995   88.4884   12.2070 N.pl3   1  UNL1       -0.3034
      8 C          62.0160   88.6166   10.7566 C.3     1  UNL1        0.1123
      9 C          60.5361   88.4718   10.4090 C.3     1  UNL1        0.1129
     10 N          59.9866   87.2745   11.0605 N.pl3   1  UNL1       -0.2968
     11 C          60.1794   87.1120   12.5093 C.3     1  UNL1        0.1503
     12 BR         59.0908   88.4007   13.4795 Br      1  UNL1       -0.0577
     13 C          61.6603   87.2914   12.8642 C.3     1  UNL1        0.1225
     14 C          64.8909   91.0678   14.2719 C.ar    1  UNL1        0.0699
     15 C          64.2486   91.5002   13.0992 C.ar    1  UNL1        0.0190
     16 C          63.3668   90.6552   12.4198 C.ar    1  UNL1        0.0160
     17 C          63.1034   89.3648   12.9053 C.ar    1  UNL1        0.0481
     18 C          63.7383   88.9331   14.0793 C.ar    1  UNL1        0.0160
     19 C          64.6221   89.7766   14.7581 C.ar    1  UNL1        0.0190
     20 N          67.5543   93.1831   15.5413 N.ar    1  UNL1       -0.2024
     21 N          66.6530   93.3316   16.5006 N.ar    1  UNL1       -0.1442
     22 C          65.5884   92.5798   16.1454 C.ar    1  UNL1        0.2073
     23 N          65.7964   91.9452   14.9694 N.ar    1  UNL1       -0.2398
     24 C          67.0325   92.3513   14.6182 C.ar    1  UNL1        0.3522
     25 O          67.6125   92.0258   13.5474 O.2     1  UNL1       -0.2444
     26 C          68.8587   93.8558   15.5367 C.3     1  UNL1        0.1099
     27 C          68.9240   94.8911   16.6678 C.3     1  UNL1        0.0265
     28 C          69.8135   91.8385   16.7845 C.3     1  UNL1        0.0021
     29 C          69.9947   92.8150   15.6225 C.3     1  UNL1        0.0245
     30 O          56.7897   83.6625    8.0821 O.3     1  UNL1       -0.4727
     31 C          57.2633   82.5174    7.3689 C.3     1  UNL1        0.2374
     32 C          58.7862   82.3665    7.5107 C.3     1  UNL1        0.1909
     33 C          59.2568   80.9406    7.5367 C.3     1  UNL1        0.1783
     34 O          59.3707   80.6095    8.8807 O.3     1  UNL1       -0.3267
     35 C          59.5669   81.8344    9.5616 C.3     1  UNL1        0.2296
     36 O          59.1855   82.9134    8.7294 O.3     1  UNL1       -0.3255
     37 C          61.0406   81.9502    9.9731 C.ar    1  UNL1        0.0409
     38 C          61.5928   83.2432   10.1105 C.ar    1  UNL1        0.0022
     39 C          62.9375   83.4242   10.4344 C.ar    1  UNL1        0.0113
     40 C          63.7669   82.3209   10.6197 C.ar    1  UNL1        0.0585
     41 CL         65.4601   82.5517   11.0149 Cl      1  UNL1       -0.0822
     42 C          63.2527   81.0330   10.4748 C.ar    1  UNL1        0.0226
     43 C          61.9064   80.8316   10.1436 C.ar    1  UNL1        0.0591
     44 CL         61.4013   79.1564    9.9324 Cl      1  UNL1       -0.0824
     45 C          58.6642   81.8166   10.8143 C.3     1  UNL1        0.1679
     46 N          58.6162   80.4934   11.4460 N.ar    1  UNL1       -0.3084
     47 C          58.0900   79.3860   10.8942 C.ar    1  UNL1        0.0979
     48 C          58.2655   78.3420   11.7716 C.ar    1  UNL1        0.1188
     49 N          58.9063   78.7809   12.8726 N.ar    1  UNL1       -0.2293
     50 C          59.0955   80.1014   12.6516 C.ar    1  UNL1        0.1201
     51 C          59.8666   80.9838   13.6058 C.3     1  UNL1        0.0569
     52 C          59.6933   82.4528   13.2140 C.3     1  UNL1        0.0079
     53 C          61.3506   80.6004   13.6354 C.3     1  UNL1        0.0079
@<TRIPOS>BOND
     1    28    29    1
     2    29    26    1
     3    26    27    1
     4    26    20    1
     5    20    21   ar
     6    21    22   ar
     7    22    23   ar
     8    23    14    1
     9    14    15   ar
    10    15    16   ar
    11    16    17   ar
    12    17     7    1
    13     7     8    1
    14     8     9    1
    15     9    10    1
    16    10     1    1
    17     1     2   ar
    18     2     3   ar
    19     3     4   ar
    20     4    30    1
    21    30    31    1
    22    31    32    1
    23    32    33    1
    24    33    34    1
    25    34    35    1
    26    35    45    1
    27    45    46    1
    28    46    47   ar
    29    47    48   ar
    30    48    49   ar
    31    49    50   ar
    32    50    51    1
    33    51    52    1
    34    51    53    1
    35    35    37    1
    36    37    38   ar
    37    38    39   ar
    38    39    40   ar
    39    40    41    1
    40    40    42   ar
    41    42    43   ar
    42    43    44    1
    43    35    36    1
    44     4     5   ar
    45     5     6   ar
    46    10    11    1
    47    11    12    1
    48    11    13    1
    49    17    18   ar
    50    18    19   ar
    51    23    24   ar
    52    24    25    2
    53    24    20   ar
    54    19    14   ar
    55    13     7    1
    56     6     1   ar
    57    36    32    1
    58    50    46   ar
    59    43    37   ar
@<TRIPOS>MOLECULE
*****
 53 59 0 0 0
SMALL
GASTEIGER

@<TRIPOS>ATOM
      1 C          60.1378   83.4262   12.9516 C.ar    1  UNL1        0.0487
      2 C          60.7180   82.1504   12.8833 C.ar    1  UNL1        0.0176
      3 C          60.0261   81.0849   12.3000 C.ar    1  UNL1        0.0382
      4 C          58.7311   81.2786   11.7768 C.ar    1  UNL1        0.1388
      5 C          58.1552   82.5523   11.8515 C.ar    1  UNL1        0.0382
      6 C          58.8473   83.6169   12.4344 C.ar    1  UNL1        0.0176
      7 N          62.3329   86.8426   13.8653 N.pl3   1  UNL1       -0.3034
      8 C          60.9221   86.9679   13.4808 C.3     1  UNL1        0.1123
      9 C          60.1459   85.7434   13.9604 C.3     1  UNL1        0.1129
     10 N          60.8529   84.5183   13.5617 N.pl3   1  UNL1       -0.2968
     11 C          62.2739   84.3808   13.9144 C.3     1  UNL1        0.1503
     12 BR         62.4667   84.1225   15.8335 Br      1  UNL1       -0.0577
     13 C          63.0485   85.6251   13.4639 C.3     1  UNL1        0.1225
     14 C          64.4492   90.2263   15.3595 C.ar    1  UNL1        0.0699
     15 C          63.5920   89.4948   16.1991 C.ar    1  UNL1        0.0190
     16 C          62.8959   88.3858   15.7105 C.ar    1  UNL1        0.0160
     17 C          63.0509   87.9815   14.3753 C.ar    1  UNL1        0.0481
     18 C          63.9110   88.7062   13.5369 C.ar    1  UNL1        0.0160
     19 C          64.6057   89.8168   14.0240 C.ar    1  UNL1        0.0190
     20 N          66.7168   92.9130   16.2646 N.ar    1  UNL1       -0.2024
     21 N          65.6661   93.2259   17.0083 N.ar    1  UNL1       -0.1442
     22 C          64.7288   92.2849   16.7618 C.ar    1  UNL1        0.2073
     23 N          65.1664   91.3668   15.8704 N.ar    1  UNL1       -0.2398
     24 C          66.4099   91.7954   15.5768 C.ar    1  UNL1        0.3522
     25 O          67.1747   91.2448   14.7396 O.2     1  UNL1       -0.2444
     26 C          67.9531   93.7030   16.2265 C.3     1  UNL1        0.1099
     27 C          69.1728   92.7843   16.3810 C.3     1  UNL1        0.0265
     28 C          66.8764   94.2074   13.9628 C.3     1  UNL1        0.0021
     29 C          68.0075   94.5444   14.9342 C.3     1  UNL1        0.0245
     30 O          57.9772   80.2564   11.1733 O.3     1  UNL1       -0.4727
     31 C          57.7885   80.0422    9.7723 C.3     1  UNL1        0.2374
     32 C          57.6035   81.3738    9.0277 C.3     1  UNL1        0.1909
     33 C          57.9720   81.3141    7.5730 C.3     1  UNL1        0.1783
     34 O          59.2830   81.7668    7.5010 O.3     1  UNL1       -0.3267
     35 C          59.4679   82.5871    8.6392 C.3     1  UNL1        0.2296
     36 O          58.4503   82.3292    9.5880 O.3     1  UNL1       -0.3255
     37 C          59.4565   84.0588    8.2053 C.ar    1  UNL1        0.0409
     38 C          58.5172   84.9231    8.8105 C.ar    1  UNL1        0.0022
     39 C          58.4171   86.2617    8.4308 C.ar    1  UNL1        0.0113
     40 C          59.2440   86.7690    7.4317 C.ar    1  UNL1        0.0585
     41 CL         59.1075   88.4493    6.9478 Cl      1  UNL1       -0.0822
     42 C          60.1697   85.9348    6.8058 C.ar    1  UNL1        0.0226
     43 C          60.2802   84.5863    7.1693 C.ar    1  UNL1        0.0591
     44 CL         61.4471   83.6302    6.2583 Cl      1  UNL1       -0.0824
     45 C          60.8375   82.2237    9.2531 C.3     1  UNL1        0.1679
     46 N          61.5772   83.4082    9.7022 N.ar    1  UNL1       -0.3084
     47 C          61.0713   84.6497    9.8038 C.ar    1  UNL1        0.0979
     48 C          62.0546   85.4773   10.2924 C.ar    1  UNL1        0.1188
     49 N          63.1779   84.7651   10.5076 N.ar    1  UNL1       -0.2293
     50 C          62.8610   83.5074   10.1254 C.ar    1  UNL1        0.1201
     51 C          63.8138   82.3450   10.2819 C.3     1  UNL1        0.0569
     52 C          63.0309   81.0311   10.3296 C.3     1  UNL1        0.0079
     53 C          64.6811   82.5070   11.5356 C.3     1  UNL1        0.0079
@<TRIPOS>BOND
     1    28    29    1
     2    29    26    1
     3    26    27    1
     4    26    20    1
     5    20    21   ar
     6    21    22   ar
     7    22    23   ar
     8    23    14    1
     9    14    15   ar
    10    15    16   ar
    11    16    17   ar
    12    17     7    1
    13     7     8    1
    14     8     9    1
    15     9    10    1
    16    10     1    1
    17     1     2   ar
    18     2     3   ar
    19     3     4   ar
    20     4    30    1
    21    30    31    1
    22    31    32    1
    23    32    33    1
    24    33    34    1
    25    34    35    1
    26    35    45    1
    27    45    46    1
    28    46    47   ar
    29    47    48   ar
    30    48    49   ar
    31    49    50   ar
    32    50    51    1
    33    51    52    1
    34    51    53    1
    35    35    37    1
    36    37    38   ar
    37    38    39   ar
    38    39    40   ar
    39    40    41    1
    40    40    42   ar
    41    42    43   ar
    42    43    44    1
    43    35    36    1
    44     4     5   ar
    45     5     6   ar
    46    10    11    1
    47    11    12    1
    48    11    13    1
    49    17    18   ar
    50    18    19   ar
    51    23    24   ar
    52    24    25    2
    53    24    20   ar
    54    19    14   ar
    55    13     7    1
    56     6     1   ar
    57    36    32    1
    58    50    46   ar
    59    43    37   ar
@<TRIPOS>MOLECULE
*****
 53 59 0 0 0
SMALL
GASTEIGER

@<TRIPOS>ATOM
      1 C          58.8213   86.7007    9.9770 C.ar    1  UNL1        0.0487
      2 C          58.9898   87.1339   11.3010 C.ar    1  UNL1        0.0176
      3 C          58.5322   86.3549   12.3678 C.ar    1  UNL1        0.0382
      4 C          57.8893   85.1236   12.1253 C.ar    1  UNL1        0.1388
      5 C          57.7200   84.6981   10.8026 C.ar    1  UNL1        0.0382
      6 C          58.1776   85.4770    9.7368 C.ar    1  UNL1        0.0176
      7 N          59.4233   89.5185    6.9733 N.pl3   1  UNL1       -0.3034
      8 C          59.7116   89.8721    8.3682 C.3     1  UNL1        0.1123
      9 C          60.2012   88.6381    9.1227 C.3     1  UNL1        0.1129
     10 N          59.2877   87.5123    8.8816 N.pl3   1  UNL1       -0.2968
     11 C          58.9645   87.1549    7.4922 C.3     1  UNL1        0.1503
     12 BR         60.5152   86.3597    6.6261 Br      1  UNL1       -0.0577
     13 C          58.5055   88.4000    6.7240 C.3     1  UNL1        0.1225
     14 C          60.5632   92.1518    3.8225 C.ar    1  UNL1        0.0699
     15 C          61.4964   91.2599    4.3779 C.ar    1  UNL1        0.0190
     16 C          61.1248   90.3967    5.4123 C.ar    1  UNL1        0.0160
     17 C          59.8104   90.4024    5.9048 C.ar    1  UNL1        0.0481
     18 C          58.8753   91.2872    5.3477 C.ar    1  UNL1        0.0160
     19 C          59.2466   92.1525    4.3149 C.ar    1  UNL1        0.0190
     20 N          62.0169   93.9811    1.0441 N.ar    1  UNL1       -0.2024
     21 N          60.9605   94.7374    1.3019 N.ar    1  UNL1       -0.1442
     22 C          60.3179   94.1569    2.3387 C.ar    1  UNL1        0.2073
     23 N          60.9519   93.0369    2.7541 N.ar    1  UNL1       -0.2398
     24 C          62.0054   92.9549    1.9176 C.ar    1  UNL1        0.3522
     25 O          62.8510   92.0201    1.9256 O.2     1  UNL1       -0.2444
     26 C          62.9741   94.2573   -0.0337 C.3     1  UNL1        0.1099
     27 C          64.4097   94.0498    0.4677 C.3     1  UNL1        0.0265
     28 C          61.2442   93.6466   -1.8150 C.3     1  UNL1        0.0021
     29 C          62.6491   93.3916   -1.2690 C.3     1  UNL1        0.0245
     30 O          57.4067   84.2861   13.1467 O.3     1  UNL1       -0.4727
     31 C          58.1299   83.2563   13.8255 C.3     1  UNL1        0.2374
     32 C          58.5400   82.1358   12.8568 C.3     1  UNL1        0.1909
     33 C          58.6902   80.7916   13.5095 C.3     1  UNL1        0.1783
     34 O          60.0427   80.6664   13.7995 O.3     1  UNL1       -0.3267
     35 C          60.7107   81.5141   12.8843 C.3     1  UNL1        0.2296
     36 O          59.7930   82.4330   12.3224 O.3     1  UNL1       -0.3255
     37 C          61.3696   80.6578   11.7950 C.ar    1  UNL1        0.0409
     38 C          62.3129   79.6848   12.1941 C.ar    1  UNL1        0.0022
     39 C          62.9870   78.9037   11.2552 C.ar    1  UNL1        0.0113
     40 C          62.7445   79.0800    9.8952 C.ar    1  UNL1        0.0585
     41 CL         63.6024   78.1048    8.7165 Cl      1  UNL1       -0.0822
     42 C          61.8303   80.0439    9.4717 C.ar    1  UNL1        0.0226
     43 C          61.1486   80.8422   10.3996 C.ar    1  UNL1        0.0591
     44 CL         60.0674   82.0613    9.7283 Cl      1  UNL1       -0.0824
     45 C          61.7864   82.2908   13.6744 C.3     1  UNL1        0.1679
     46 N          61.9390   83.6696   13.1974 N.ar    1  UNL1       -0.3084
     47 C          61.5049   84.7681   13.8397 C.ar    1  UNL1        0.0979
     48 C          61.8650   85.8703   13.1007 C.ar    1  UNL1        0.1188
     49 N          62.5311   85.4759   11.9978 N.ar    1  UNL1       -0.2293
     50 C          62.5492   84.1262   12.0766 C.ar    1  UNL1        0.1201
     51 C          63.2820   83.2625   11.0763 C.3     1  UNL1        0.0569
     52 C          64.7016   82.9792   11.5723 C.3     1  UNL1        0.0079
     53 C          63.3110   83.9231    9.6932 C.3     1  UNL1        0.0079
@<TRIPOS>BOND
     1    28    29    1
     2    29    26    1
     3    26    27    1
     4    26    20    1
     5    20    21   ar
     6    21    22   ar
     7    22    23   ar
     8    23    14    1
     9    14    15   ar
    10    15    16   ar
    11    16    17   ar
    12    17     7    1
    13     7     8    1
    14     8     9    1
    15     9    10    1
    16    10     1    1
    17     1     2   ar
    18     2     3   ar
    19     3     4   ar
    20     4    30    1
    21    30    31    1
    22    31    32    1
    23    32    33    1
    24    33    34    1
    25    34    35    1
    26    35    45    1
    27    45    46    1
    28    46    47   ar
    29    47    48   ar
    30    48    49   ar
    31    49    50   ar
    32    50    51    1
    33    51    52    1
    34    51    53    1
    35    35    37    1
    36    37    38   ar
    37    38    39   ar
    38    39    40   ar
    39    40    41    1
    40    40    42   ar
    41    42    43   ar
    42    43    44    1
    43    35    36    1
    44     4     5   ar
    45     5     6   ar
    46    10    11    1
    47    11    12    1
    48    11    13    1
    49    17    18   ar
    50    18    19   ar
    51    23    24   ar
    52    24    25    2
    53    24    20   ar
    54    19    14   ar
    55    13     7    1
    56     6     1   ar
    57    36    32    1
    58    50    46   ar
    59    43    37   ar
