@<TRIPOS>MOLECULE
*****
 46 51 0 0 0
SMALL
GASTEIGER

@<TRIPOS>ATOM
      1 C         -26.5889   51.9302   -8.6712 C.ar    1  UNL1        0.1713
      2 C         -27.3523   51.5386   -7.5570 C.ar    1  UNL1        0.0560
      3 C         -26.7433   50.9130   -6.4633 C.ar    1  UNL1        0.0732
      4 C         -25.3674   50.6496   -6.5200 C.ar    1  UNL1        0.1151
      5 N         -24.6461   51.0204   -7.6091 N.ar    1  UNL1       -0.2248
      6 C         -25.2126   51.6404   -8.6800 C.ar    1  UNL1        0.1660
      7 N         -24.3868   52.0165   -9.7935 N.pl3   1  UNL1       -0.2908
      8 C         -23.7084   50.9662  -10.5646 C.3     1  UNL1        0.0924
      9 C         -22.6972   51.5611  -11.5563 C.3     1  UNL1        0.0252
     10 C         -21.9482   52.7394  -10.9042 C.3     1  UNL1        0.0472
     11 C         -22.9229   53.8818  -10.5140 C.3     1  UNL1        0.0252
     12 C         -24.3665   53.4023  -10.2781 C.3     1  UNL1        0.0924
     13 C         -20.8298   53.2667  -11.8238 C.3     1  UNL1        0.2054
     14 O         -19.5396   53.0296  -11.2577 O.3     1  UNL1       -0.4755
     15 C         -19.1918   53.2152   -9.9095 C.ar    1  UNL1        0.1388
     16 C         -18.6217   52.1964   -9.1224 C.ar    1  UNL1        0.0369
     17 C         -18.2949   52.4405   -7.7872 C.ar    1  UNL1        0.0033
     18 C         -18.5338   53.6944   -7.2212 C.ar    1  UNL1        0.0066
     19 C         -19.1070   54.7221   -7.9885 C.ar    1  UNL1        0.0785
     20 C         -19.4336   54.4688   -9.3336 C.ar    1  UNL1        0.0433
     21 C         -19.3611   56.0498   -7.3867 C.2     1  UNL1        0.3381
     22 O         -18.9110   56.3294   -6.2426 O.2     1  UNL1       -0.2451
     23 O         -20.1011   57.0045   -8.0796 O.3     1  UNL1       -0.4771
     24 H         -20.2809   57.9164   -7.6768 H       1  UNL1        0.2954
     25 N         -27.5467   50.5061   -5.3433 N.am    1  UNL1       -0.2766
     26 C         -27.5836   49.1657   -4.8225 C.2     1  UNL1        0.2839
     27 O         -26.9584   48.2378   -5.4016 O.2     1  UNL1       -0.2665
     28 H         -28.0856   51.2513   -4.8508 H       1  UNL1        0.1553
     29 C         -28.3668   48.8369   -3.6189 C.ar    1  UNL1        0.1946
     30 O         -29.6708   48.6267   -3.6607 O.2     1  UNL1       -0.4492
     31 C         -30.0756   48.3645   -2.4420 C.ar    1  UNL1        0.1452
     32 C         -31.3720   48.0867   -2.0226 C.ar    1  UNL1        0.0375
     33 C         -31.5827   47.8289   -0.6567 C.ar    1  UNL1        0.0031
     34 C         -30.5006   47.8519    0.2648 C.ar    1  UNL1        0.0002
     35 C         -29.1962   48.1383   -0.2045 C.ar    1  UNL1        0.0028
     36 C         -29.0252   48.3910   -1.5657 C.ar    1  UNL1        0.0337
     37 C         -27.8980   48.6782   -2.3088 C.ar    1  UNL1        0.0202
     38 C         -26.4893   48.7563   -1.8033 C.3     1  UNL1        0.0345
     39 C         -30.7349   47.5781    1.7054 C.ar    1  UNL1        0.0000
     40 C         -31.3530   46.3813    2.1152 C.ar    1  UNL1        0.0000
     41 C         -31.5725   46.1261    3.4724 C.ar    1  UNL1        0.0000
     42 C         -31.1801   47.0599    4.4337 C.ar    1  UNL1        0.0000
     43 C         -30.5667   48.2513    4.0400 C.ar    1  UNL1        0.0000
     44 C         -30.3439   48.5113    2.6843 C.ar    1  UNL1        0.0000
     45 C         -28.0912   52.0582  -10.6692 C.3     1  UNL1        0.2526
     46 O         -27.1518   52.6180   -9.7581 O.3     1  UNL1       -0.4686
@<TRIPOS>BOND
     1    45    46    1
     2    46     1    1
     3     1     2   ar
     4     2     3   ar
     5     3    25    1
     6    25    26   am
     7    26    27    2
     8    26    29    1
     9    29    30   ar
    10    30    31   ar
    11    31    32   ar
    12    32    33   ar
    13    33    34   ar
    14    34    39    1
    15    39    40   ar
    16    40    41   ar
    17    41    42   ar
    18    42    43   ar
    19    43    44   ar
    20    34    35   ar
    21    35    36   ar
    22    36    37   ar
    23    37    38    1
    24     3     4   ar
    25     4     5   ar
    26     5     6   ar
    27     6     7    1
    28     7     8    1
    29     8     9    1
    30     9    10    1
    31    10    13    1
    32    13    14    1
    33    14    15    1
    34    15    16   ar
    35    16    17   ar
    36    17    18   ar
    37    18    19   ar
    38    19    21    1
    39    21    22    2
    40    21    23    1
    41    19    20   ar
    42    10    11    1
    43    11    12    1
    44     6     1   ar
    45    12     7    1
    46    37    29   ar
    47    20    15   ar
    48    36    31   ar
    49    44    39   ar
    50    25    28    1
    51    23    24    1
@<TRIPOS>MOLECULE
*****
 46 51 0 0 0
SMALL
GASTEIGER

@<TRIPOS>ATOM
      1 C         -27.9244   50.1176  -11.0135 C.ar    1  UNL1        0.1713
      2 C         -26.8777   50.9365  -10.5537 C.ar    1  UNL1        0.0560
      3 C         -25.8789   50.4139   -9.7245 C.ar    1  UNL1        0.0732
      4 C         -25.9666   49.0711   -9.3308 C.ar    1  UNL1        0.1151
      5 N         -26.9915   48.2966   -9.7709 N.ar    1  UNL1       -0.2248
      6 C         -27.9683   48.7780  -10.5871 C.ar    1  UNL1        0.1660
      7 N         -29.0163   47.8986  -11.0251 N.pl3   1  UNL1       -0.2908
      8 C         -28.7105   46.4785  -11.2431 C.3     1  UNL1        0.0924
      9 C         -29.8781   45.7503  -11.9258 C.3     1  UNL1        0.0252
     10 C         -30.5003   46.6505  -13.0108 C.3     1  UNL1        0.0472
     11 C         -31.0773   47.9548  -12.3999 C.3     1  UNL1        0.0252
     12 C         -30.4100   48.3579  -11.0726 C.3     1  UNL1        0.0924
     13 C         -31.5818   45.8965  -13.8083 C.3     1  UNL1        0.2054
     14 O         -31.0176   45.2184  -14.9323 O.3     1  UNL1       -0.4755
     15 C         -30.5059   45.8345  -16.0862 C.ar    1  UNL1        0.1388
     16 C         -30.2090   45.1209  -17.2631 C.ar    1  UNL1        0.0369
     17 C         -29.7036   45.7884  -18.3804 C.ar    1  UNL1        0.0033
     18 C         -29.4853   47.1670  -18.3384 C.ar    1  UNL1        0.0066
     19 C         -29.7699   47.8957  -17.1717 C.ar    1  UNL1        0.0785
     20 C         -30.2792   47.2162  -16.0496 C.ar    1  UNL1        0.0433
     21 C         -29.5364   49.3562  -17.1283 C.2     1  UNL1        0.3381
     22 O         -28.8780   49.9253  -18.0408 O.2     1  UNL1       -0.2451
     23 O         -30.0424   50.1171  -16.0775 O.3     1  UNL1       -0.4771
     24 H         -29.8883   51.1175  -16.0381 H       1  UNL1        0.2954
     25 N         -24.8287   51.2742   -9.2530 N.am    1  UNL1       -0.2766
     26 C         -23.6125   51.5325   -9.9764 C.2     1  UNL1        0.2839
     27 O         -23.3676   50.9243  -11.0523 O.2     1  UNL1       -0.2665
     28 H         -24.9981   51.7823   -8.3578 H       1  UNL1        0.1553
     29 C         -22.6144   52.4912   -9.4718 C.ar    1  UNL1        0.1946
     30 O         -21.5576   52.1097   -8.7760 O.2     1  UNL1       -0.4492
     31 C         -20.8695   53.1820   -8.4686 C.ar    1  UNL1        0.1452
     32 C         -19.6874   53.2483   -7.7391 C.ar    1  UNL1        0.0375
     33 C         -19.1124   54.5137   -7.5280 C.ar    1  UNL1        0.0031
     34 C         -19.7234   55.6877   -8.0466 C.ar    1  UNL1        0.0002
     35 C         -20.9262   55.5753   -8.7845 C.ar    1  UNL1        0.0028
     36 C         -21.4688   54.3040   -8.9725 C.ar    1  UNL1        0.0337
     37 C         -22.5970   53.8807   -9.6456 C.ar    1  UNL1        0.0202
     38 C         -23.5525   54.7390  -10.4181 C.3     1  UNL1        0.0345
     39 C         -19.1071   57.0192   -7.8173 C.ar    1  UNL1        0.0000
     40 C         -18.2859   57.2443   -6.6961 C.ar    1  UNL1        0.0000
     41 C         -17.7069   58.4991   -6.4826 C.ar    1  UNL1        0.0000
     42 C         -17.9408   59.5412   -7.3822 C.ar    1  UNL1        0.0000
     43 C         -18.7542   59.3309   -8.4979 C.ar    1  UNL1        0.0000
     44 C         -19.3350   58.0780   -8.7169 C.ar    1  UNL1        0.0000
     45 C         -29.4011   51.9232  -11.9216 C.3     1  UNL1        0.2526
     46 O         -28.9078   50.5883  -11.8983 O.3     1  UNL1       -0.4686
@<TRIPOS>BOND
     1    45    46    1
     2    46     1    1
     3     1     2   ar
     4     2     3   ar
     5     3    25    1
     6    25    26   am
     7    26    27    2
     8    26    29    1
     9    29    30   ar
    10    30    31   ar
    11    31    32   ar
    12    32    33   ar
    13    33    34   ar
    14    34    39    1
    15    39    40   ar
    16    40    41   ar
    17    41    42   ar
    18    42    43   ar
    19    43    44   ar
    20    34    35   ar
    21    35    36   ar
    22    36    37   ar
    23    37    38    1
    24     3     4   ar
    25     4     5   ar
    26     5     6   ar
    27     6     7    1
    28     7     8    1
    29     8     9    1
    30     9    10    1
    31    10    13    1
    32    13    14    1
    33    14    15    1
    34    15    16   ar
    35    16    17   ar
    36    17    18   ar
    37    18    19   ar
    38    19    21    1
    39    21    22    2
    40    21    23    1
    41    19    20   ar
    42    10    11    1
    43    11    12    1
    44     6     1   ar
    45    12     7    1
    46    37    29   ar
    47    20    15   ar
    48    36    31   ar
    49    44    39   ar
    50    25    28    1
    51    23    24    1
