@<TRIPOS>MOLECULE
*****
 43 47 0 0 0
SMALL
GASTEIGER

@<TRIPOS>ATOM
      1 C         -25.7246   51.3257  -12.0891 C.3     1  UNL1        0.1332
      2 N         -25.1461   51.2480  -10.7482 N.ar    1  UNL1       -0.2977
      3 C         -23.8718   51.5356  -10.3645 C.ar    1  UNL1        0.2018
      4 N         -23.6363   51.3200   -9.0424 N.ar    1  UNL1       -0.2135
      5 C         -24.8218   50.8726   -8.5937 C.ar    1  UNL1        0.0999
      6 C         -25.1358   50.4644   -7.2908 C.ar    1  UNL1        0.0282
      7 C         -26.4445   49.9833   -7.0316 C.ar    1  UNL1        0.0888
      8 C         -27.3540   49.9129   -8.1151 C.ar    1  UNL1        0.1401
      9 C         -27.0208   50.3318   -9.3824 C.ar    1  UNL1        0.0327
     10 C         -25.7322   50.8189   -9.6152 C.ar    1  UNL1        0.0789
     11 C         -28.1641   50.1136  -10.3103 C.3     1  UNL1        0.0709
     12 C         -29.2359   49.4522   -9.3825 C.3     1  UNL1        0.1375
     13 C         -30.5129   50.2996   -9.3072 C.3     1  UNL1        0.0439
     14 C         -29.5666   48.0257   -9.8416 C.3     1  UNL1        0.0439
     15 O         -28.6336   49.3983   -8.0879 O.3     1  UNL1       -0.4824
     16 C         -26.8142   49.5362   -5.6727 C.2     1  UNL1        0.2525
     17 O         -26.4611   50.2313   -4.6811 O.2     1  UNL1       -0.2697
     18 N         -27.5796   48.3360   -5.4718 N.am    1  UNL1       -0.2801
     19 H         -27.8501   47.7510   -6.2926 H       1  UNL1        0.1552
     20 C         -27.8699   47.8154   -4.1671 C.ar    1  UNL1        0.0567
     21 C         -28.8943   48.4177   -3.4232 C.ar    1  UNL1        0.0187
     22 C         -29.2636   47.9159   -2.1652 C.ar    1  UNL1        0.0727
     23 C         -28.6195   46.7704   -1.6743 C.ar    1  UNL1        0.0041
     24 C         -27.5794   46.1793   -2.3941 C.ar    1  UNL1        0.0076
     25 C         -27.1715   46.7070   -3.6301 C.ar    1  UNL1        0.0889
     26 C         -30.4108   48.5329   -1.4051 C.3     1  UNL1        0.4186
     27 F         -31.4463   47.6254   -1.2631 F       1  UNL1       -0.1659
     28 F         -29.9723   48.9159   -0.1514 F       1  UNL1       -0.1659
     29 F         -30.8985   49.6440   -2.0713 F       1  UNL1       -0.1659
     30 C         -26.0075   46.0986   -4.3158 C.2     1  UNL1        0.3392
     31 O         -26.0238   45.9563   -5.5673 O.2     1  UNL1       -0.2450
     32 O         -24.9010   45.6425   -3.6021 O.3     1  UNL1       -0.4771
     33 H         -24.8865   45.6262   -2.5900 H       1  UNL1        0.2954
     34 N         -22.8442   51.9648  -11.2706 N.pl3   1  UNL1       -0.2814
     35 H         -22.8813   51.6387  -12.2614 H       1  UNL1        0.1551
     36 C         -21.6243   52.5626  -10.8086 C.ar    1  UNL1        0.0889
     37 C         -20.4518   51.7899  -10.7689 C.ar    1  UNL1        0.1543
     38 F         -20.4780   50.4868  -11.1462 F       1  UNL1       -0.2028
     39 C         -19.2526   52.3501  -10.3194 C.ar    1  UNL1        0.0310
     40 C         -19.2101   53.6872   -9.9200 C.ar    1  UNL1        0.0033
     41 C         -20.3641   54.4717   -9.9791 C.ar    1  UNL1        0.0128
     42 C         -21.5710   53.9211  -10.4273 C.ar    1  UNL1        0.0733
     43 CL        -22.9714   54.9771  -10.5715 Cl      1  UNL1       -0.0809
@<TRIPOS>BOND
     1     1     2    1
     2     2     3   ar
     3     3    34    1
     4    34    36    1
     5    36    37   ar
     6    37    38    1
     7    37    39   ar
     8    39    40   ar
     9    40    41   ar
    10    41    42   ar
    11    42    43    1
    12     3     4   ar
    13     4     5   ar
    14     5     6   ar
    15     6     7   ar
    16     7    16    1
    17    16    17    2
    18    16    18   am
    19    18    20    1
    20    20    21   ar
    21    21    22   ar
    22    22    26    1
    23    26    27    1
    24    26    28    1
    25    26    29    1
    26    22    23   ar
    27    23    24   ar
    28    24    25   ar
    29    25    30    1
    30    30    31    2
    31    30    32    1
    32     7     8   ar
    33     8     9   ar
    34     9    10   ar
    35     9    11    1
    36    11    12    1
    37    12    13    1
    38    12    14    1
    39    12    15    1
    40    10     2   ar
    41    42    36   ar
    42    10     5   ar
    43    25    20   ar
    44    15     8    1
    45    34    35    1
    46    18    19    1
    47    32    33    1
@<TRIPOS>MOLECULE
*****
 43 47 0 0 0
SMALL
GASTEIGER

@<TRIPOS>ATOM
      1 C         -25.5368   51.3099  -12.4257 C.3     1  UNL1        0.1332
      2 N         -25.1656   51.3536  -11.0118 N.ar    1  UNL1       -0.2977
      3 C         -23.9312   51.5520  -10.4724 C.ar    1  UNL1        0.2018
      4 N         -23.9119   51.4941   -9.1137 N.ar    1  UNL1       -0.2135
      5 C         -25.1953   51.2421   -8.8039 C.ar    1  UNL1        0.0999
      6 C         -25.7371   51.0511   -7.5262 C.ar    1  UNL1        0.0282
      7 C         -27.1195   50.7533   -7.4173 C.ar    1  UNL1        0.0888
      8 C         -27.8704   50.6343   -8.6123 C.ar    1  UNL1        0.1401
      9 C         -27.3133   50.8386   -9.8535 C.ar    1  UNL1        0.0327
     10 C         -25.9537   51.1481   -9.9403 C.ar    1  UNL1        0.0789
     11 C         -28.3342   50.6204  -10.9145 C.3     1  UNL1        0.0709
     12 C         -29.6000   50.2106  -10.0919 C.3     1  UNL1        0.1375
     13 C         -30.7574   51.1928  -10.3160 C.3     1  UNL1        0.0439
     14 C         -30.0412   48.7788  -10.4241 C.3     1  UNL1        0.0439
     15 O         -29.1960   50.2688   -8.7225 O.3     1  UNL1       -0.4824
     16 C         -27.7288   50.5376   -6.0887 C.2     1  UNL1        0.2525
     17 O         -27.0840   50.8705   -5.0569 O.2     1  UNL1       -0.2697
     18 N         -29.0444   49.9719   -5.9614 N.am    1  UNL1       -0.2801
     19 H         -29.5655   49.6761   -6.8158 H       1  UNL1        0.1552
     20 C         -29.6274   49.6530   -4.6902 C.ar    1  UNL1        0.0567
     21 C         -29.1851   48.5005   -4.0257 C.ar    1  UNL1        0.0187
     22 C         -29.6754   48.1682   -2.7529 C.ar    1  UNL1        0.0727
     23 C         -30.5893   49.0309   -2.1299 C.ar    1  UNL1        0.0041
     24 C         -31.0573   50.1664   -2.7938 C.ar    1  UNL1        0.0076
     25 C         -30.6085   50.4772   -4.0879 C.ar    1  UNL1        0.0889
     26 C         -29.1427   46.9614   -2.0219 C.3     1  UNL1        0.4186
     27 F         -29.5707   46.9601   -0.7055 F       1  UNL1       -0.1659
     28 F         -29.5978   45.8144   -2.6448 F       1  UNL1       -0.1659
     29 F         -27.7584   46.9579   -2.0259 F       1  UNL1       -0.1659
     30 C         -31.1977   51.6437   -4.7859 C.2     1  UNL1        0.3392
     31 O         -31.3262   51.6227   -6.0389 O.2     1  UNL1       -0.2450
     32 O         -31.5830   52.7879   -4.0902 O.3     1  UNL1       -0.4771
     33 H         -31.3947   52.9023   -3.1021 H       1  UNL1        0.2954
     34 N         -22.7414   51.7409  -11.2531 N.pl3   1  UNL1       -0.2814
     35 H         -22.6273   51.1927  -12.1340 H       1  UNL1        0.1551
     36 C         -21.5860   52.4107  -10.7282 C.ar    1  UNL1        0.0889
     37 C         -20.3766   51.7057  -10.6106 C.ar    1  UNL1        0.1543
     38 F         -20.3079   50.3998  -10.9725 F       1  UNL1       -0.2028
     39 C         -19.2391   52.3367  -10.0988 C.ar    1  UNL1        0.0310
     40 C         -19.2948   53.6777   -9.7143 C.ar    1  UNL1        0.0033
     41 C         -20.4853   54.3953   -9.8504 C.ar    1  UNL1        0.0128
     42 C         -21.6311   53.7735  -10.3614 C.ar    1  UNL1        0.0733
     43 CL        -23.0772   54.7475  -10.6003 Cl      1  UNL1       -0.0809
@<TRIPOS>BOND
     1     1     2    1
     2     2     3   ar
     3     3    34    1
     4    34    36    1
     5    36    37   ar
     6    37    38    1
     7    37    39   ar
     8    39    40   ar
     9    40    41   ar
    10    41    42   ar
    11    42    43    1
    12     3     4   ar
    13     4     5   ar
    14     5     6   ar
    15     6     7   ar
    16     7    16    1
    17    16    17    2
    18    16    18   am
    19    18    20    1
    20    20    21   ar
    21    21    22   ar
    22    22    26    1
    23    26    27    1
    24    26    28    1
    25    26    29    1
    26    22    23   ar
    27    23    24   ar
    28    24    25   ar
    29    25    30    1
    30    30    31    2
    31    30    32    1
    32     7     8   ar
    33     8     9   ar
    34     9    10   ar
    35     9    11    1
    36    11    12    1
    37    12    13    1
    38    12    14    1
    39    12    15    1
    40    10     2   ar
    41    42    36   ar
    42    10     5   ar
    43    25    20   ar
    44    15     8    1
    45    34    35    1
    46    18    19    1
    47    32    33    1
@<TRIPOS>MOLECULE
*****
 43 47 0 0 0
SMALL
GASTEIGER

@<TRIPOS>ATOM
      1 C         -31.3598   47.4715   -5.8070 C.3     1  UNL1        0.1332
      2 N         -30.0761   48.0783   -5.4565 N.ar    1  UNL1       -0.2977
      3 C         -29.4759   48.1292   -4.2354 C.ar    1  UNL1        0.2018
      4 N         -28.2966   48.8068   -4.2330 N.ar    1  UNL1       -0.2135
      5 C         -28.1694   49.1960   -5.5133 C.ar    1  UNL1        0.0999
      6 C         -27.1372   49.9643   -6.0671 C.ar    1  UNL1        0.0282
      7 C         -27.2117   50.3031   -7.4423 C.ar    1  UNL1        0.0888
      8 C         -28.3452   49.8708   -8.1733 C.ar    1  UNL1        0.1401
      9 C         -29.3385   49.1073   -7.6050 C.ar    1  UNL1        0.0327
     10 C         -29.2395   48.7687   -6.2532 C.ar    1  UNL1        0.0789
     11 C         -30.4055   48.8295   -8.6051 C.3     1  UNL1        0.0709
     12 C         -29.8956   49.5949   -9.8705 C.3     1  UNL1        0.1375
     13 C         -29.6703   48.6407  -11.0508 C.3     1  UNL1        0.0439
     14 C         -30.8608   50.7197  -10.2683 C.3     1  UNL1        0.0439
     15 O         -28.6439   50.1676   -9.4869 O.3     1  UNL1       -0.4824
     16 C         -26.1473   51.1180   -8.0636 C.2     1  UNL1        0.2525
     17 O         -26.2770   52.3723   -8.0990 O.2     1  UNL1       -0.2697
     18 N         -24.9681   50.5028   -8.6092 N.am    1  UNL1       -0.2801
     19 H         -24.8747   49.4634   -8.5993 H       1  UNL1        0.1552
     20 C         -23.9628   51.2483   -9.3101 C.ar    1  UNL1        0.0567
     21 C         -22.8036   51.6193   -8.6144 C.ar    1  UNL1        0.0187
     22 C         -21.7593   52.2982   -9.2620 C.ar    1  UNL1        0.0727
     23 C         -21.8712   52.5671  -10.6343 C.ar    1  UNL1        0.0041
     24 C         -23.0326   52.2268  -11.3304 C.ar    1  UNL1        0.0076
     25 C         -24.1015   51.5925  -10.6764 C.ar    1  UNL1        0.0889
     26 C         -20.4908   52.6331   -8.5182 C.3     1  UNL1        0.4186
     27 F         -19.5312   51.6574   -8.7261 F       1  UNL1       -0.1659
     28 F         -20.0053   53.8460   -8.9696 F       1  UNL1       -0.1659
     29 F         -20.7297   52.7211   -7.1575 F       1  UNL1       -0.1659
     30 C         -25.3463   51.3291  -11.4354 C.2     1  UNL1        0.3392
     31 O         -25.2845   51.0703  -12.6667 O.2     1  UNL1       -0.2450
     32 O         -26.5972   51.3968  -10.8252 O.3     1  UNL1       -0.4771
     33 H         -26.7105   51.7136   -9.8704 H       1  UNL1        0.2954
     34 N         -30.0522   47.5805   -3.0405 N.pl3   1  UNL1       -0.2814
     35 H         -30.3496   46.5800   -3.0410 H       1  UNL1        0.1551
     36 C         -30.5093   48.4133   -1.9650 C.ar    1  UNL1        0.0889
     37 C         -31.1336   49.6367   -2.2601 C.ar    1  UNL1        0.1543
     38 F         -31.2855   50.0341   -3.5486 F       1  UNL1       -0.2028
     39 C         -31.5838   50.4658   -1.2287 C.ar    1  UNL1        0.0310
     40 C         -31.4282   50.0755    0.1027 C.ar    1  UNL1        0.0033
     41 C         -30.8316   48.8499    0.4070 C.ar    1  UNL1        0.0128
     42 C         -30.3764   48.0114   -0.6180 C.ar    1  UNL1        0.0733
     43 CL        -29.7188   46.4379   -0.1835 Cl      1  UNL1       -0.0809
@<TRIPOS>BOND
     1     1     2    1
     2     2     3   ar
     3     3    34    1
     4    34    36    1
     5    36    37   ar
     6    37    38    1
     7    37    39   ar
     8    39    40   ar
     9    40    41   ar
    10    41    42   ar
    11    42    43    1
    12     3     4   ar
    13     4     5   ar
    14     5     6   ar
    15     6     7   ar
    16     7    16    1
    17    16    17    2
    18    16    18   am
    19    18    20    1
    20    20    21   ar
    21    21    22   ar
    22    22    26    1
    23    26    27    1
    24    26    28    1
    25    26    29    1
    26    22    23   ar
    27    23    24   ar
    28    24    25   ar
    29    25    30    1
    30    30    31    2
    31    30    32    1
    32     7     8   ar
    33     8     9   ar
    34     9    10   ar
    35     9    11    1
    36    11    12    1
    37    12    13    1
    38    12    14    1
    39    12    15    1
    40    10     2   ar
    41    42    36   ar
    42    10     5   ar
    43    25    20   ar
    44    15     8    1
    45    34    35    1
    46    18    19    1
    47    32    33    1
@<TRIPOS>MOLECULE
*****
 43 47 0 0 0
SMALL
GASTEIGER

@<TRIPOS>ATOM
      1 C         -21.4915   51.9890   -7.9998 C.3     1  UNL1        0.1332
      2 N         -21.9892   52.2250   -9.3545 N.ar    1  UNL1       -0.2977
      3 C         -21.3917   52.9218  -10.3602 C.ar    1  UNL1        0.2018
      4 N         -22.1379   52.9935  -11.4951 N.ar    1  UNL1       -0.2135
      5 C         -23.2500   52.3129  -11.1686 C.ar    1  UNL1        0.0999
      6 C         -24.3800   52.1013  -11.9692 C.ar    1  UNL1        0.0282
      7 C         -25.4728   51.3849  -11.4178 C.ar    1  UNL1        0.0888
      8 C         -25.3725   50.9496  -10.0737 C.ar    1  UNL1        0.1401
      9 C         -24.2450   51.1623   -9.3148 C.ar    1  UNL1        0.0327
     10 C         -23.1715   51.8548   -9.8805 C.ar    1  UNL1        0.0789
     11 C         -24.4416   50.6185   -7.9432 C.3     1  UNL1        0.0709
     12 C         -25.9063   50.0720   -7.9988 C.3     1  UNL1        0.1375
     13 C         -25.9530   48.5629   -7.7252 C.3     1  UNL1        0.0439
     14 C         -26.8187   50.8221   -7.0192 C.3     1  UNL1        0.0439
     15 O         -26.3513   50.3190   -9.3340 O.3     1  UNL1       -0.4824
     16 C         -26.6863   51.1464  -12.2263 C.2     1  UNL1        0.2525
     17 O         -26.6045   51.1946  -13.4841 O.2     1  UNL1       -0.2697
     18 N         -27.9451   50.8464  -11.6000 N.am    1  UNL1       -0.2801
     19 H         -28.0144   50.8304  -10.5588 H       1  UNL1        0.1552
     20 C         -29.1639   50.7101  -12.3439 C.ar    1  UNL1        0.0567
     21 C         -29.3836   49.5180  -13.0483 C.ar    1  UNL1        0.0187
     22 C         -30.5825   49.3025  -13.7462 C.ar    1  UNL1        0.0727
     23 C         -31.5838   50.2837  -13.6966 C.ar    1  UNL1        0.0041
     24 C         -31.3648   51.4859  -13.0214 C.ar    1  UNL1        0.0076
     25 C         -30.1478   51.7280  -12.3634 C.ar    1  UNL1        0.0889
     26 C         -30.8325   47.9896  -14.4450 C.3     1  UNL1        0.4186
     27 F         -31.5830   47.1459  -13.6444 F       1  UNL1       -0.1659
     28 F         -31.5196   48.2237  -15.6213 F       1  UNL1       -0.1659
     29 F         -29.6373   47.3560  -14.7391 F       1  UNL1       -0.1659
     30 C         -29.9284   53.0514  -11.7344 C.2     1  UNL1        0.3392
     31 O         -29.1464   53.1545  -10.7523 O.2     1  UNL1       -0.2450
     32 O         -30.5987   54.1882  -12.1816 O.3     1  UNL1       -0.4771
     33 H         -31.3224   54.1398  -12.8879 H       1  UNL1        0.2954
     34 N         -20.1225   53.5799  -10.2292 N.pl3   1  UNL1       -0.2814
     35 H         -19.9885   54.5070  -10.6895 H       1  UNL1        0.1551
     36 C         -18.9542   52.8918   -9.7591 C.ar    1  UNL1        0.0889
     37 C         -18.2780   52.0150  -10.6237 C.ar    1  UNL1        0.1543
     38 F         -18.7365   51.8078  -11.8838 F       1  UNL1       -0.2028
     39 C         -17.1399   51.3314  -10.1864 C.ar    1  UNL1        0.0310
     40 C         -16.6595   51.5273   -8.8903 C.ar    1  UNL1        0.0033
     41 C         -17.3093   52.4157   -8.0305 C.ar    1  UNL1        0.0128
     42 C         -18.4505   53.1056   -8.4575 C.ar    1  UNL1        0.0733
     43 CL        -19.1747   54.2827   -7.3680 Cl      1  UNL1       -0.0809
@<TRIPOS>BOND
     1     1     2    1
     2     2     3   ar
     3     3    34    1
     4    34    36    1
     5    36    37   ar
     6    37    38    1
     7    37    39   ar
     8    39    40   ar
     9    40    41   ar
    10    41    42   ar
    11    42    43    1
    12     3     4   ar
    13     4     5   ar
    14     5     6   ar
    15     6     7   ar
    16     7    16    1
    17    16    17    2
    18    16    18   am
    19    18    20    1
    20    20    21   ar
    21    21    22   ar
    22    22    26    1
    23    26    27    1
    24    26    28    1
    25    26    29    1
    26    22    23   ar
    27    23    24   ar
    28    24    25   ar
    29    25    30    1
    30    30    31    2
    31    30    32    1
    32     7     8   ar
    33     8     9   ar
    34     9    10   ar
    35     9    11    1
    36    11    12    1
    37    12    13    1
    38    12    14    1
    39    12    15    1
    40    10     2   ar
    41    42    36   ar
    42    10     5   ar
    43    25    20   ar
    44    15     8    1
    45    34    35    1
    46    18    19    1
    47    32    33    1
@<TRIPOS>MOLECULE
*****
 43 47 0 0 0
SMALL
GASTEIGER

@<TRIPOS>ATOM
      1 C         -25.8576   51.6040  -12.2793 C.3     1  UNL1        0.1332
      2 N         -25.3142   51.2642  -10.9647 N.ar    1  UNL1       -0.2977
      3 C         -24.0398   51.4280  -10.5139 C.ar    1  UNL1        0.2018
      4 N         -23.8437   50.9694   -9.2485 N.ar    1  UNL1       -0.2135
      5 C         -25.0546   50.4956   -8.9080 C.ar    1  UNL1        0.0999
      6 C         -25.4136   49.8727   -7.7057 C.ar    1  UNL1        0.0282
      7 C         -26.7444   49.4046   -7.5596 C.ar    1  UNL1        0.0888
      8 C         -27.6299   49.5656   -8.6533 C.ar    1  UNL1        0.1401
      9 C         -27.2521   50.1918   -9.8185 C.ar    1  UNL1        0.0327
     10 C         -25.9419   50.6619   -9.9377 C.ar    1  UNL1        0.0789
     11 C         -28.3801   50.1887  -10.7897 C.3     1  UNL1        0.0709
     12 C         -29.4964   49.4141  -10.0147 C.3     1  UNL1        0.1375
     13 C         -30.7439   50.2837   -9.8094 C.3     1  UNL1        0.0439
     14 C         -29.8666   48.1073  -10.7290 C.3     1  UNL1        0.0439
     15 O         -28.9272   49.1050   -8.7410 O.3     1  UNL1       -0.4824
     16 C         -27.1619   48.7356   -6.3101 C.2     1  UNL1        0.2525
     17 O         -26.3388   48.6448   -5.3585 O.2     1  UNL1       -0.2697
     18 N         -28.4903   48.2059   -6.1630 N.am    1  UNL1       -0.2801
     19 H         -29.1612   48.2620   -6.9605 H       1  UNL1        0.1552
     20 C         -28.9004   47.4613   -5.0077 C.ar    1  UNL1        0.0567
     21 C         -28.8968   48.1077   -3.7637 C.ar    1  UNL1        0.0187
     22 C         -29.3432   47.4495   -2.6069 C.ar    1  UNL1        0.0727
     23 C         -29.8362   46.1408   -2.7168 C.ar    1  UNL1        0.0041
     24 C         -29.8186   45.4780   -3.9455 C.ar    1  UNL1        0.0076
     25 C         -29.3262   46.1140   -5.0969 C.ar    1  UNL1        0.0889
     26 C         -29.3954   48.1779   -1.2873 C.3     1  UNL1        0.4186
     27 F         -30.2771   49.2431   -1.3526 F       1  UNL1       -0.1659
     28 F         -29.8160   47.3047   -0.3018 F       1  UNL1       -0.1659
     29 F         -28.1466   48.6710   -0.9503 F       1  UNL1       -0.1659
     30 C         -29.2472   45.3420   -6.3591 C.2     1  UNL1        0.3392
     31 O         -29.9259   44.2890   -6.4910 O.2     1  UNL1       -0.2450
     32 O         -28.4065   45.7341   -7.3989 O.3     1  UNL1       -0.4771
     33 H         -27.7557   46.5032   -7.2999 H       1  UNL1        0.2954
     34 N         -22.9765   51.9723  -11.3102 N.pl3   1  UNL1       -0.2814
     35 H         -22.9657   51.7742  -12.3350 H       1  UNL1        0.1551
     36 C         -21.7844   52.5112  -10.7207 C.ar    1  UNL1        0.0889
     37 C         -20.6466   51.6957  -10.6023 C.ar    1  UNL1        0.1543
     38 F         -20.6817   50.4067  -11.0244 F       1  UNL1       -0.2028
     39 C         -19.4752   52.1981  -10.0284 C.ar    1  UNL1        0.0310
     40 C         -19.4248   53.5199   -9.5817 C.ar    1  UNL1        0.0033
     41 C         -20.5420   54.3470   -9.7173 C.ar    1  UNL1        0.0128
     42 C         -21.7209   53.8544  -10.2903 C.ar    1  UNL1        0.0733
     43 CL        -23.0666   54.9643  -10.5236 Cl      1  UNL1       -0.0809
@<TRIPOS>BOND
     1     1     2    1
     2     2     3   ar
     3     3    34    1
     4    34    36    1
     5    36    37   ar
     6    37    38    1
     7    37    39   ar
     8    39    40   ar
     9    40    41   ar
    10    41    42   ar
    11    42    43    1
    12     3     4   ar
    13     4     5   ar
    14     5     6   ar
    15     6     7   ar
    16     7    16    1
    17    16    17    2
    18    16    18   am
    19    18    20    1
    20    20    21   ar
    21    21    22   ar
    22    22    26    1
    23    26    27    1
    24    26    28    1
    25    26    29    1
    26    22    23   ar
    27    23    24   ar
    28    24    25   ar
    29    25    30    1
    30    30    31    2
    31    30    32    1
    32     7     8   ar
    33     8     9   ar
    34     9    10   ar
    35     9    11    1
    36    11    12    1
    37    12    13    1
    38    12    14    1
    39    12    15    1
    40    10     2   ar
    41    42    36   ar
    42    10     5   ar
    43    25    20   ar
    44    15     8    1
    45    34    35    1
    46    18    19    1
    47    32    33    1
@<TRIPOS>MOLECULE
*****
 43 47 0 0 0
SMALL
GASTEIGER

@<TRIPOS>ATOM
      1 C         -29.4667   47.2567   -8.7099 C.3     1  UNL1        0.1332
      2 N         -28.1410   47.6308   -8.2187 N.ar    1  UNL1       -0.2977
      3 C         -27.4215   47.0530   -7.2174 C.ar    1  UNL1        0.2018
      4 N         -26.2325   47.6666   -6.9733 N.ar    1  UNL1       -0.2135
      5 C         -26.2240   48.6735   -7.8638 C.ar    1  UNL1        0.0999
      6 C         -25.2343   49.6513   -8.0282 C.ar    1  UNL1        0.0282
      7 C         -25.4370   50.6585   -9.0059 C.ar    1  UNL1        0.0888
      8 C         -26.6471   50.6373   -9.7417 C.ar    1  UNL1        0.1401
      9 C         -27.5965   49.6574   -9.5662 C.ar    1  UNL1        0.0327
     10 C         -27.3718   48.6633   -8.6106 C.ar    1  UNL1        0.0789
     11 C         -28.7635   49.9110  -10.4547 C.3     1  UNL1        0.0709
     12 C         -28.3641   51.2426  -11.1719 C.3     1  UNL1        0.1375
     13 C         -28.2792   51.0574  -12.6928 C.3     1  UNL1        0.0439
     14 C         -29.3378   52.3767  -10.8245 C.3     1  UNL1        0.0439
     15 O         -27.0677   51.5693  -10.6676 O.3     1  UNL1       -0.4824
     16 C         -24.4210   51.7124   -9.2060 C.2     1  UNL1        0.2525
     17 O         -24.7929   52.9149   -9.2894 O.2     1  UNL1       -0.2697
     18 N         -23.0234   51.3860   -9.2898 N.am    1  UNL1       -0.2801
     19 H         -22.7212   50.3881   -9.2438 H       1  UNL1        0.1552
     20 C         -22.0185   52.3661   -9.5851 C.ar    1  UNL1        0.0567
     21 C         -21.0973   52.6978   -8.5817 C.ar    1  UNL1        0.0187
     22 C         -20.0558   53.6058   -8.8296 C.ar    1  UNL1        0.0727
     23 C         -19.9207   54.1510  -10.1151 C.ar    1  UNL1        0.0041
     24 C         -20.8485   53.8490  -11.1137 C.ar    1  UNL1        0.0076
     25 C         -21.9219   52.9803  -10.8571 C.ar    1  UNL1        0.0889
     26 C         -19.0335   53.9035   -7.7615 C.3     1  UNL1        0.4186
     27 F         -18.6897   55.2443   -7.7754 F       1  UNL1       -0.1659
     28 F         -19.5625   53.5868   -6.5244 F       1  UNL1       -0.1659
     29 F         -17.8832   53.1606   -7.9639 F       1  UNL1       -0.1659
     30 C         -22.9289   52.7577  -11.9209 C.2     1  UNL1        0.3392
     31 O         -22.9820   53.5422  -12.9050 O.2     1  UNL1       -0.2450
     32 O         -23.8506   51.7157  -11.8420 O.3     1  UNL1       -0.4771
     33 H         -23.9269   51.1297  -11.0200 H       1  UNL1        0.2954
     34 N         -27.8891   45.9406   -6.4396 N.pl3   1  UNL1       -0.2814
     35 H         -28.4254   45.1840   -6.9186 H       1  UNL1        0.1551
     36 C         -27.9148   45.9731   -5.0053 C.ar    1  UNL1        0.0889
     37 C         -26.7544   45.6358   -4.2888 C.ar    1  UNL1        0.1543
     38 F         -25.6272   45.2655   -4.9471 F       1  UNL1       -0.2028
     39 C         -26.7572   45.6571   -2.8911 C.ar    1  UNL1        0.0310
     40 C         -27.9110   46.0282   -2.1982 C.ar    1  UNL1        0.0033
     41 C         -29.0628   46.3897   -2.9006 C.ar    1  UNL1        0.0128
     42 C         -29.0718   46.3715   -4.3008 C.ar    1  UNL1        0.0733
     43 CL        -30.5176   46.9264   -5.1367 Cl      1  UNL1       -0.0809
@<TRIPOS>BOND
     1     1     2    1
     2     2     3   ar
     3     3    34    1
     4    34    36    1
     5    36    37   ar
     6    37    38    1
     7    37    39   ar
     8    39    40   ar
     9    40    41   ar
    10    41    42   ar
    11    42    43    1
    12     3     4   ar
    13     4     5   ar
    14     5     6   ar
    15     6     7   ar
    16     7    16    1
    17    16    17    2
    18    16    18   am
    19    18    20    1
    20    20    21   ar
    21    21    22   ar
    22    22    26    1
    23    26    27    1
    24    26    28    1
    25    26    29    1
    26    22    23   ar
    27    23    24   ar
    28    24    25   ar
    29    25    30    1
    30    30    31    2
    31    30    32    1
    32     7     8   ar
    33     8     9   ar
    34     9    10   ar
    35     9    11    1
    36    11    12    1
    37    12    13    1
    38    12    14    1
    39    12    15    1
    40    10     2   ar
    41    42    36   ar
    42    10     5   ar
    43    25    20   ar
    44    15     8    1
    45    34    35    1
    46    18    19    1
    47    32    33    1
@<TRIPOS>MOLECULE
*****
 43 47 0 0 0
SMALL
GASTEIGER

@<TRIPOS>ATOM
      1 C         -23.5830   53.0915  -11.5428 C.3     1  UNL1        0.1332
      2 N         -23.3019   52.4518  -10.2580 N.ar    1  UNL1       -0.2977
      3 C         -22.1209   52.4067   -9.5819 C.ar    1  UNL1        0.2018
      4 N         -22.1789   51.6924   -8.4259 N.ar    1  UNL1       -0.2135
      5 C         -23.4557   51.2736   -8.3936 C.ar    1  UNL1        0.0999
      6 C         -24.0572   50.4620   -7.4229 C.ar    1  UNL1        0.0282
      7 C         -25.4169   50.0979   -7.5963 C.ar    1  UNL1        0.0888
      8 C         -26.0834   50.5509   -8.7612 C.ar    1  UNL1        0.1401
      9 C         -25.4698   51.3566   -9.6922 C.ar    1  UNL1        0.0327
     10 C         -24.1350   51.7193   -9.4959 C.ar    1  UNL1        0.0789
     11 C         -26.4055   51.6475  -10.8127 C.3     1  UNL1        0.0709
     12 C         -27.6836   50.8410  -10.4090 C.3     1  UNL1        0.1375
     13 C         -28.8969   51.7635  -10.2318 C.3     1  UNL1        0.0439
     14 C         -27.9936   49.7393  -11.4314 C.3     1  UNL1        0.0439
     15 O         -27.3682   50.2370   -9.1530 O.3     1  UNL1       -0.4824
     16 C         -26.0868   49.2374   -6.5994 C.2     1  UNL1        0.2525
     17 O         -26.4903   49.7496   -5.5196 O.2     1  UNL1       -0.2697
     18 N         -26.2961   47.8377   -6.8521 N.am    1  UNL1       -0.2801
     19 H         -25.9403   47.4125   -7.7363 H       1  UNL1        0.1552
     20 C         -26.8489   46.9506   -5.8698 C.ar    1  UNL1        0.0567
     21 C         -26.0186   46.5083   -4.8304 C.ar    1  UNL1        0.0187
     22 C         -26.5180   45.6867   -3.8075 C.ar    1  UNL1        0.0727
     23 C         -27.8782   45.3439   -3.8139 C.ar    1  UNL1        0.0041
     24 C         -28.7076   45.7559   -4.8587 C.ar    1  UNL1        0.0076
     25 C         -28.2021   46.5362   -5.9114 C.ar    1  UNL1        0.0889
     26 C         -25.6304   45.2721   -2.6608 C.3     1  UNL1        0.4186
     27 F         -24.9315   44.1198   -2.9767 F       1  UNL1       -0.1659
     28 F         -24.7299   46.2860   -2.3928 F       1  UNL1       -0.1659
     29 F         -26.3816   45.0240   -1.5249 F       1  UNL1       -0.1659
     30 C         -29.0986   46.8763   -7.0409 C.2     1  UNL1        0.3392
     31 O         -30.0669   46.1204   -7.3197 O.2     1  UNL1       -0.2450
     32 O         -28.8747   48.0010   -7.8325 O.3     1  UNL1       -0.4771
     33 H         -28.0478   48.5751   -7.7253 H       1  UNL1        0.2954
     34 N         -20.9041   52.9974  -10.0630 N.pl3   1  UNL1       -0.2814
     35 H         -20.9452   53.6177  -10.9015 H       1  UNL1        0.1551
     36 C         -19.6142   52.5376   -9.6342 C.ar    1  UNL1        0.0889
     37 C         -18.8028   51.8277  -10.5348 C.ar    1  UNL1        0.1543
     38 F         -19.2430   51.5643  -11.7910 F       1  UNL1       -0.2028
     39 C         -17.5441   51.3671  -10.1381 C.ar    1  UNL1        0.0310
     40 C         -17.0794   51.6228   -8.8466 C.ar    1  UNL1        0.0033
     41 C         -17.8672   52.3493   -7.9509 C.ar    1  UNL1        0.0128
     42 C         -19.1299   52.8152   -8.3372 C.ar    1  UNL1        0.0733
     43 CL        -20.0408   53.8053   -7.2028 Cl      1  UNL1       -0.0809
@<TRIPOS>BOND
     1     1     2    1
     2     2     3   ar
     3     3    34    1
     4    34    36    1
     5    36    37   ar
     6    37    38    1
     7    37    39   ar
     8    39    40   ar
     9    40    41   ar
    10    41    42   ar
    11    42    43    1
    12     3     4   ar
    13     4     5   ar
    14     5     6   ar
    15     6     7   ar
    16     7    16    1
    17    16    17    2
    18    16    18   am
    19    18    20    1
    20    20    21   ar
    21    21    22   ar
    22    22    26    1
    23    26    27    1
    24    26    28    1
    25    26    29    1
    26    22    23   ar
    27    23    24   ar
    28    24    25   ar
    29    25    30    1
    30    30    31    2
    31    30    32    1
    32     7     8   ar
    33     8     9   ar
    34     9    10   ar
    35     9    11    1
    36    11    12    1
    37    12    13    1
    38    12    14    1
    39    12    15    1
    40    10     2   ar
    41    42    36   ar
    42    10     5   ar
    43    25    20   ar
    44    15     8    1
    45    34    35    1
    46    18    19    1
    47    32    33    1
@<TRIPOS>MOLECULE
*****
 43 47 0 0 0
SMALL
GASTEIGER

@<TRIPOS>ATOM
      1 C         -24.4397   52.5831  -11.1222 C.3     1  UNL1        0.1332
      2 N         -24.1065   51.9471   -9.8481 N.ar    1  UNL1       -0.2977
      3 C         -22.9125   51.9507   -9.1936 C.ar    1  UNL1        0.2018
      4 N         -22.9169   51.2258   -8.0428 N.ar    1  UNL1       -0.2135
      5 C         -24.1726   50.7490   -7.9912 C.ar    1  UNL1        0.0999
      6 C         -24.7188   49.9035   -7.0168 C.ar    1  UNL1        0.0282
      7 C         -26.0635   49.4792   -7.1689 C.ar    1  UNL1        0.0888
      8 C         -26.7710   49.9101   -8.3178 C.ar    1  UNL1        0.1401
      9 C         -26.2118   50.7501   -9.2528 C.ar    1  UNL1        0.0327
     10 C         -24.8914   51.1717   -9.0773 C.ar    1  UNL1        0.0789
     11 C         -27.1800   51.0066  -10.3539 C.3     1  UNL1        0.0709
     12 C         -28.4126   50.1396   -9.9343 C.3     1  UNL1        0.1375
     13 C         -29.6630   51.0045   -9.7276 C.3     1  UNL1        0.0439
     14 C         -28.6908   49.0328  -10.9602 C.3     1  UNL1        0.0439
     15 O         -28.0472   49.5411   -8.6892 O.3     1  UNL1       -0.4824
     16 C         -26.6753   48.5815   -6.1675 C.2     1  UNL1        0.2525
     17 O         -27.3212   47.5723   -6.5619 O.2     1  UNL1       -0.2697
     18 N         -26.5297   48.8352   -4.7599 N.am    1  UNL1       -0.2801
     19 H         -26.0146   49.6837   -4.4375 H       1  UNL1        0.1552
     20 C         -27.1925   48.0472   -3.7613 C.ar    1  UNL1        0.0567
     21 C         -28.3215   48.5868   -3.1291 C.ar    1  UNL1        0.0187
     22 C         -29.0466   47.8408   -2.1866 C.ar    1  UNL1        0.0727
     23 C         -28.6506   46.5233   -1.9122 C.ar    1  UNL1        0.0041
     24 C         -27.5119   45.9857   -2.5152 C.ar    1  UNL1        0.0076
     25 C         -26.7533   46.7449   -3.4211 C.ar    1  UNL1        0.0889
     26 C         -30.2967   48.4091   -1.5629 C.3     1  UNL1        0.4186
     27 F         -30.7739   49.4729   -2.3090 F       1  UNL1       -0.1659
     28 F         -31.2662   47.4253   -1.5094 F       1  UNL1       -0.1659
     29 F         -30.0417   48.8614   -0.2797 F       1  UNL1       -0.1659
     30 C         -25.5057   46.1632   -3.9692 C.2     1  UNL1        0.3392
     31 O         -24.4652   46.1350   -3.2598 O.2     1  UNL1       -0.2450
     32 O         -25.4433   45.6755   -5.2730 O.3     1  UNL1       -0.4771
     33 H         -26.2140   45.7802   -5.9211 H       1  UNL1        0.2954
     34 N         -21.7328   52.5999   -9.6914 N.pl3   1  UNL1       -0.2814
     35 H         -21.8053   53.1745  -10.5597 H       1  UNL1        0.1551
     36 C         -20.4202   52.2514   -9.2279 C.ar    1  UNL1        0.0889
     37 C         -20.0650   52.5272   -7.8971 C.ar    1  UNL1        0.1543
     38 F         -20.9485   53.1338   -7.0648 F       1  UNL1       -0.2028
     39 C         -18.7909   52.1996   -7.4246 C.ar    1  UNL1        0.0310
     40 C         -17.8672   51.5824   -8.2701 C.ar    1  UNL1        0.0033
     41 C         -18.2182   51.2807   -9.5879 C.ar    1  UNL1        0.0128
     42 C         -19.4914   51.6046  -10.0722 C.ar    1  UNL1        0.0733
     43 CL        -19.9140   51.1177  -11.7097 Cl      1  UNL1       -0.0809
@<TRIPOS>BOND
     1     1     2    1
     2     2     3   ar
     3     3    34    1
     4    34    36    1
     5    36    37   ar
     6    37    38    1
     7    37    39   ar
     8    39    40   ar
     9    40    41   ar
    10    41    42   ar
    11    42    43    1
    12     3     4   ar
    13     4     5   ar
    14     5     6   ar
    15     6     7   ar
    16     7    16    1
    17    16    17    2
    18    16    18   am
    19    18    20    1
    20    20    21   ar
    21    21    22   ar
    22    22    26    1
    23    26    27    1
    24    26    28    1
    25    26    29    1
    26    22    23   ar
    27    23    24   ar
    28    24    25   ar
    29    25    30    1
    30    30    31    2
    31    30    32    1
    32     7     8   ar
    33     8     9   ar
    34     9    10   ar
    35     9    11    1
    36    11    12    1
    37    12    13    1
    38    12    14    1
    39    12    15    1
    40    10     2   ar
    41    42    36   ar
    42    10     5   ar
    43    25    20   ar
    44    15     8    1
    45    34    35    1
    46    18    19    1
    47    32    33    1
@<TRIPOS>MOLECULE
*****
 43 47 0 0 0
SMALL
GASTEIGER

@<TRIPOS>ATOM
      1 C         -23.6468   52.5155  -11.5707 C.3     1  UNL1        0.1332
      2 N         -23.6119   51.9753  -10.2121 N.ar    1  UNL1       -0.2977
      3 C         -22.5358   51.8383   -9.3892 C.ar    1  UNL1        0.2018
      4 N         -22.8302   51.2577   -8.1950 N.ar    1  UNL1       -0.2135
      5 C         -24.1499   51.0213   -8.2915 C.ar    1  UNL1        0.0999
      6 C         -24.9714   50.4001   -7.3419 C.ar    1  UNL1        0.0282
      7 C         -26.3408   50.2082   -7.6569 C.ar    1  UNL1        0.0888
      8 C         -26.7955   50.6286   -8.9307 C.ar    1  UNL1        0.1401
      9 C         -25.9676   51.2465   -9.8392 C.ar    1  UNL1        0.0327
     10 C         -24.6254   51.4426   -9.5046 C.ar    1  UNL1        0.0789
     11 C         -26.7157   51.5481  -11.0902 C.3     1  UNL1        0.0709
     12 C         -28.1361   50.9669  -10.7878 C.3     1  UNL1        0.1375
     13 C         -29.2130   52.0585  -10.8440 C.3     1  UNL1        0.0439
     14 C         -28.4852   49.8208  -11.7468 C.3     1  UNL1        0.0439
     15 O         -28.0590   50.4543   -9.4562 O.3     1  UNL1       -0.4824
     16 C         -27.2397   49.5506   -6.6860 C.2     1  UNL1        0.2525
     17 O         -27.6187   48.3676   -6.9049 O.2     1  UNL1       -0.2697
     18 N         -27.6702   50.2336   -5.4964 N.am    1  UNL1       -0.2801
     19 H         -27.3736   51.2203   -5.3300 H       1  UNL1        0.1552
     20 C         -28.6213   49.6683   -4.5836 C.ar    1  UNL1        0.0567
     21 C         -28.2732   48.4931   -3.9031 C.ar    1  UNL1        0.0187
     22 C         -29.1380   47.9254   -2.9541 C.ar    1  UNL1        0.0727
     23 C         -30.3464   48.5748   -2.6612 C.ar    1  UNL1        0.0041
     24 C         -30.7155   49.7302   -3.3526 C.ar    1  UNL1        0.0076
     25 C         -29.8771   50.2748   -4.3391 C.ar    1  UNL1        0.0889
     26 C         -28.7229   46.6980   -2.1823 C.3     1  UNL1        0.4186
     27 F         -29.1040   45.5482   -2.8523 F       1  UNL1       -0.1659
     28 F         -27.3488   46.6977   -2.0326 F       1  UNL1       -0.1659
     29 F         -29.3131   46.6840   -0.9302 F       1  UNL1       -0.1659
     30 C         -30.3495   51.4511   -5.1061 C.2     1  UNL1        0.3392
     31 O         -31.5815   51.6047   -5.3189 O.2     1  UNL1       -0.2450
     32 O         -29.4556   52.3807   -5.6340 O.3     1  UNL1       -0.4771
     33 H         -28.4535   52.2430   -5.5925 H       1  UNL1        0.2954
     34 N         -21.1983   52.2074   -9.7581 N.pl3   1  UNL1       -0.2814
     35 H         -20.6040   51.5076  -10.2547 H       1  UNL1        0.1551
     36 C         -20.5521   53.3672   -9.2137 C.ar    1  UNL1        0.0889
     37 C         -20.8505   54.6333   -9.7442 C.ar    1  UNL1        0.1543
     38 F         -21.7269   54.7549  -10.7730 F       1  UNL1       -0.2028
     39 C         -20.2306   55.7767   -9.2320 C.ar    1  UNL1        0.0310
     40 C         -19.3205   55.6682   -8.1789 C.ar    1  UNL1        0.0033
     41 C         -19.0353   54.4173   -7.6271 C.ar    1  UNL1        0.0128
     42 C         -19.6499   53.2651   -8.1324 C.ar    1  UNL1        0.0733
     43 CL        -19.3275   51.7272   -7.3398 Cl      1  UNL1       -0.0809
@<TRIPOS>BOND
     1     1     2    1
     2     2     3   ar
     3     3    34    1
     4    34    36    1
     5    36    37   ar
     6    37    38    1
     7    37    39   ar
     8    39    40   ar
     9    40    41   ar
    10    41    42   ar
    11    42    43    1
    12     3     4   ar
    13     4     5   ar
    14     5     6   ar
    15     6     7   ar
    16     7    16    1
    17    16    17    2
    18    16    18   am
    19    18    20    1
    20    20    21   ar
    21    21    22   ar
    22    22    26    1
    23    26    27    1
    24    26    28    1
    25    26    29    1
    26    22    23   ar
    27    23    24   ar
    28    24    25   ar
    29    25    30    1
    30    30    31    2
    31    30    32    1
    32     7     8   ar
    33     8     9   ar
    34     9    10   ar
    35     9    11    1
    36    11    12    1
    37    12    13    1
    38    12    14    1
    39    12    15    1
    40    10     2   ar
    41    42    36   ar
    42    10     5   ar
    43    25    20   ar
    44    15     8    1
    45    34    35    1
    46    18    19    1
    47    32    33    1
