@<TRIPOS>MOLECULE
*****
 46 51 0 0 0
SMALL
GASTEIGER

@<TRIPOS>ATOM
      1 C         -61.9776  -49.1907  -23.6903 C.ar    1  UNL1        0.1318
      2 C         -63.1701  -48.7553  -24.2935 C.ar    1  UNL1        0.0356
      3 C         -64.1850  -49.6760  -24.5582 C.ar    1  UNL1        0.0191
      4 C         -64.0114  -51.0289  -24.2442 C.ar    1  UNL1        0.0702
      5 C         -62.8137  -51.4242  -23.6278 C.ar    1  UNL1        0.1149
      6 N         -61.8408  -50.5094  -23.3751 N.ar    1  UNL1       -0.2279
      7 C         -58.6287  -46.5188  -22.7064 C.3     1  UNL1        0.0472
      8 C         -59.0792  -46.7730  -24.1648 C.3     1  UNL1        0.0252
      9 C         -59.7600  -48.1371  -24.3211 C.3     1  UNL1        0.0923
     10 N         -60.9028  -48.2706  -23.4005 N.pl3   1  UNL1       -0.2932
     11 C         -61.0050  -47.3808  -22.2335 C.3     1  UNL1        0.0923
     12 C         -59.6132  -47.1003  -21.6568 C.3     1  UNL1        0.0252
     13 C         -58.3143  -45.0240  -22.4740 C.3     1  UNL1        0.2054
     14 O         -58.9936  -44.1811  -23.4098 O.3     1  UNL1       -0.4755
     15 C         -62.4658  -41.8590  -22.7414 C.ar    1  UNL1       -0.0158
     16 C         -61.5525  -42.0833  -21.6953 C.ar    1  UNL1       -0.0009
     17 C         -60.3944  -42.8316  -21.8974 C.ar    1  UNL1        0.0366
     18 C         -60.1293  -43.3978  -23.1516 C.ar    1  UNL1        0.1387
     19 C         -61.0177  -43.1672  -24.2043 C.ar    1  UNL1        0.0430
     20 C         -62.1906  -42.4097  -24.0269 C.ar    1  UNL1        0.0745
     21 C         -63.0873  -42.2531  -25.2018 C.2     1  UNL1        0.3378
     22 O         -63.7316  -41.1893  -25.3971 O.2     1  UNL1       -0.2451
     23 O         -63.1948  -43.2857  -26.1302 O.3     1  UNL1       -0.4771
     24 H         -63.7912  -43.1945  -26.9440 H       1  UNL1        0.2954
     25 C         -63.4530  -39.8858  -21.5433 C.3     1  UNL1        0.0050
     26 C         -63.7405  -41.1087  -22.4111 C.3     1  UNL1        0.0266
     27 N         -65.0749  -51.9618  -24.5024 N.am    1  UNL1       -0.2766
     28 C         -65.3865  -53.0805  -23.6564 C.2     1  UNL1        0.2839
     29 O         -64.5716  -53.4519  -22.7694 O.2     1  UNL1       -0.2665
     30 H         -65.5976  -51.8672  -25.4026 H       1  UNL1        0.1553
     31 C         -66.6471  -53.8206  -23.8555 C.ar    1  UNL1        0.1946
     32 O         -66.8619  -54.6050  -24.8968 O.2     1  UNL1       -0.4492
     33 C         -68.0664  -55.1082  -24.7804 C.ar    1  UNL1        0.1452
     34 C         -68.7032  -55.9835  -25.6531 C.ar    1  UNL1        0.0375
     35 C         -70.0074  -56.4004  -25.3352 C.ar    1  UNL1        0.0031
     36 C         -70.6526  -55.9391  -24.1560 C.ar    1  UNL1        0.0002
     37 C         -69.9686  -55.0487  -23.2939 C.ar    1  UNL1        0.0028
     38 C         -68.6748  -54.6558  -23.6404 C.ar    1  UNL1        0.0337
     39 C         -67.7705  -53.8143  -23.0211 C.ar    1  UNL1        0.0202
     40 C         -67.9542  -53.0610  -21.7380 C.3     1  UNL1        0.0345
     41 C         -72.0307  -56.3863  -23.8306 C.ar    1  UNL1        0.0000
     42 C         -73.0084  -56.4839  -24.8392 C.ar    1  UNL1        0.0000
     43 C         -74.3052  -56.9053  -24.5301 C.ar    1  UNL1        0.0000
     44 C         -74.6407  -57.2344  -23.2150 C.ar    1  UNL1        0.0000
     45 C         -73.6797  -57.1424  -22.2056 C.ar    1  UNL1        0.0000
     46 C         -72.3816  -56.7207  -22.5088 C.ar    1  UNL1        0.0000
@<TRIPOS>BOND
     1    25    26    1
     2    26    15    1
     3    15    16   ar
     4    16    17   ar
     5    17    18   ar
     6    18    14    1
     7    14    13    1
     8    13     7    1
     9     7     8    1
    10     8     9    1
    11     9    10    1
    12    10     1    1
    13     1     2   ar
    14     2     3   ar
    15     3     4   ar
    16     4    27    1
    17    27    28   am
    18    28    29    2
    19    28    31    1
    20    31    32   ar
    21    32    33   ar
    22    33    34   ar
    23    34    35   ar
    24    35    36   ar
    25    36    41    1
    26    41    42   ar
    27    42    43   ar
    28    43    44   ar
    29    44    45   ar
    30    45    46   ar
    31    36    37   ar
    32    37    38   ar
    33    38    39   ar
    34    39    40    1
    35     4     5   ar
    36     5     6   ar
    37    10    11    1
    38    11    12    1
    39    18    19   ar
    40    19    20   ar
    41    20    21    1
    42    21    22    2
    43    21    23    1
    44    20    15   ar
    45    12     7    1
    46     6     1   ar
    47    39    31   ar
    48    38    33   ar
    49    46    41   ar
    50    27    30    1
    51    23    24    1
@<TRIPOS>MOLECULE
*****
 46 51 0 0 0
SMALL
GASTEIGER

@<TRIPOS>ATOM
      1 C         -65.6694  -53.8937  -23.2936 C.ar    1  UNL1        0.1318
      2 C         -64.7009  -53.0140  -22.7804 C.ar    1  UNL1        0.0356
      3 C         -64.1141  -52.0676  -23.6216 C.ar    1  UNL1        0.0191
      4 C         -64.4716  -52.0055  -24.9734 C.ar    1  UNL1        0.0702
      5 C         -65.4543  -52.8892  -25.4468 C.ar    1  UNL1        0.1149
      6 N         -66.0158  -53.7997  -24.6083 N.ar    1  UNL1       -0.2279
      7 C         -67.5662  -57.0406  -20.8809 C.3     1  UNL1        0.0472
      8 C         -66.4021  -56.1765  -20.3401 C.3     1  UNL1        0.0252
      9 C         -65.5124  -55.6478  -21.4704 C.3     1  UNL1        0.0923
     10 N         -66.3000  -54.8880  -22.4571 N.pl3   1  UNL1       -0.2932
     11 C         -67.7593  -55.0639  -22.5145 C.3     1  UNL1        0.0923
     12 C         -68.1291  -56.5240  -22.2319 C.3     1  UNL1        0.0252
     13 C         -68.6604  -57.2344  -19.8072 C.3     1  UNL1        0.2054
     14 O         -68.5081  -56.3221  -18.7154 O.3     1  UNL1       -0.4755
     15 C         -71.6873  -54.5884  -16.5285 C.ar    1  UNL1       -0.0158
     16 C         -70.7170  -55.3657  -15.8703 C.ar    1  UNL1       -0.0009
     17 C         -69.6525  -55.9327  -16.5684 C.ar    1  UNL1        0.0366
     18 C         -69.5425  -55.7559  -17.9543 C.ar    1  UNL1        0.1387
     19 C         -70.4881  -54.9707  -18.6176 C.ar    1  UNL1        0.0430
     20 C         -71.5684  -54.3822  -17.9338 C.ar    1  UNL1        0.0745
     21 C         -72.5388  -53.5945  -18.7380 C.2     1  UNL1        0.3378
     22 O         -72.3827  -52.3599  -18.9281 O.2     1  UNL1       -0.2451
     23 O         -73.6265  -54.2345  -19.3275 O.3     1  UNL1       -0.4771
     24 H         -74.2929  -53.7180  -19.8892 H       1  UNL1        0.2954
     25 C         -72.3945  -53.5613  -14.3495 C.3     1  UNL1        0.0050
     26 C         -72.8569  -54.0836  -15.7076 C.3     1  UNL1        0.0266
     27 N         -63.8747  -51.0102  -25.8226 N.am    1  UNL1       -0.2766
     28 C         -64.0040  -49.5942  -25.6159 C.2     1  UNL1        0.2839
     29 O         -64.8689  -49.1459  -24.8161 O.2     1  UNL1       -0.2665
     30 H         -63.3881  -51.3370  -26.6880 H       1  UNL1        0.1553
     31 C         -63.1479  -48.6622  -26.3741 C.ar    1  UNL1        0.1946
     32 O         -62.1795  -47.9597  -25.8135 O.2     1  UNL1       -0.4492
     33 C         -61.6155  -47.2339  -26.7476 C.ar    1  UNL1        0.1452
     34 C         -60.5557  -46.3458  -26.6017 C.ar    1  UNL1        0.0375
     35 C         -60.1043  -45.6630  -27.7444 C.ar    1  UNL1        0.0031
     36 C         -60.7152  -45.8767  -29.0096 C.ar    1  UNL1        0.0002
     37 C         -61.7915  -46.7902  -29.1148 C.ar    1  UNL1        0.0028
     38 C         -62.2136  -47.4507  -27.9600 C.ar    1  UNL1        0.0337
     39 C         -63.2160  -48.3766  -27.7424 C.ar    1  UNL1        0.0202
     40 C         -64.1663  -48.9482  -28.7511 C.3     1  UNL1        0.0345
     41 C         -60.2298  -45.1495  -30.2098 C.ar    1  UNL1        0.0000
     42 C         -58.8849  -45.2523  -30.6137 C.ar    1  UNL1        0.0000
     43 C         -58.4305  -44.5665  -31.7443 C.ar    1  UNL1        0.0000
     44 C         -59.3104  -43.7732  -32.4837 C.ar    1  UNL1        0.0000
     45 C         -60.6470  -43.6635  -32.0938 C.ar    1  UNL1        0.0000
     46 C         -61.1067  -44.3463  -30.9636 C.ar    1  UNL1        0.0000
@<TRIPOS>BOND
     1    25    26    1
     2    26    15    1
     3    15    16   ar
     4    16    17   ar
     5    17    18   ar
     6    18    14    1
     7    14    13    1
     8    13     7    1
     9     7     8    1
    10     8     9    1
    11     9    10    1
    12    10     1    1
    13     1     2   ar
    14     2     3   ar
    15     3     4   ar
    16     4    27    1
    17    27    28   am
    18    28    29    2
    19    28    31    1
    20    31    32   ar
    21    32    33   ar
    22    33    34   ar
    23    34    35   ar
    24    35    36   ar
    25    36    41    1
    26    41    42   ar
    27    42    43   ar
    28    43    44   ar
    29    44    45   ar
    30    45    46   ar
    31    36    37   ar
    32    37    38   ar
    33    38    39   ar
    34    39    40    1
    35     4     5   ar
    36     5     6   ar
    37    10    11    1
    38    11    12    1
    39    18    19   ar
    40    19    20   ar
    41    20    21    1
    42    21    22    2
    43    21    23    1
    44    20    15   ar
    45    12     7    1
    46     6     1   ar
    47    39    31   ar
    48    38    33   ar
    49    46    41   ar
    50    27    30    1
    51    23    24    1
@<TRIPOS>MOLECULE
*****
 46 51 0 0 0
SMALL
GASTEIGER

@<TRIPOS>ATOM
      1 C         -64.6960  -52.8061  -23.5541 C.ar    1  UNL1        0.1318
      2 C         -63.3437  -52.5473  -23.2718 C.ar    1  UNL1        0.0356
      3 C         -62.7605  -51.3613  -23.7201 C.ar    1  UNL1        0.0191
      4 C         -63.5098  -50.4423  -24.4638 C.ar    1  UNL1        0.0702
      5 C         -64.8618  -50.7271  -24.7124 C.ar    1  UNL1        0.1149
      6 N         -65.4101  -51.8863  -24.2620 N.ar    1  UNL1       -0.2279
      7 C         -66.5917  -56.5857  -22.3526 C.3     1  UNL1        0.0472
      8 C         -65.6273  -55.8145  -21.4202 C.3     1  UNL1        0.0252
      9 C         -64.6351  -54.9555  -22.2116 C.3     1  UNL1        0.0923
     10 N         -65.3372  -54.0214  -23.1093 N.pl3   1  UNL1       -0.2932
     11 C         -66.7417  -54.2728  -23.4669 C.3     1  UNL1        0.0923
     12 C         -66.9898  -55.7776  -23.6166 C.3     1  UNL1        0.0252
     13 C         -67.8122  -57.1208  -21.5707 C.3     1  UNL1        0.2054
     14 O         -68.5495  -56.0682  -20.9413 O.3     1  UNL1       -0.4755
     15 C         -72.7318  -55.7967  -20.3665 C.ar    1  UNL1       -0.0158
     16 C         -72.1977  -56.7736  -21.2264 C.ar    1  UNL1       -0.0009
     17 C         -70.8224  -56.8913  -21.4179 C.ar    1  UNL1        0.0366
     18 C         -69.9414  -56.0155  -20.7692 C.ar    1  UNL1        0.1387
     19 C         -70.4567  -55.0532  -19.8979 C.ar    1  UNL1        0.0430
     20 C         -71.8411  -54.9187  -19.6829 C.ar    1  UNL1        0.0745
     21 C         -72.2884  -53.8401  -18.7634 C.2     1  UNL1        0.3378
     22 O         -72.2313  -52.6280  -19.0985 O.2     1  UNL1       -0.2451
     23 O         -72.8168  -54.1704  -17.5178 O.3     1  UNL1       -0.4771
     24 H         -73.1383  -53.4510  -16.8810 H       1  UNL1        0.2954
     25 C         -74.8259  -56.7458  -19.3579 C.3     1  UNL1        0.0050
     26 C         -74.2409  -55.6831  -20.2850 C.3     1  UNL1        0.0266
     27 N         -62.9012  -49.2145  -24.8997 N.am    1  UNL1       -0.2766
     28 C         -63.1349  -48.6123  -26.1830 C.2     1  UNL1        0.2839
     29 O         -63.6950  -49.2706  -27.1005 O.2     1  UNL1       -0.2665
     30 H         -62.1827  -48.7795  -24.2775 H       1  UNL1        0.1553
     31 C         -62.6802  -47.2322  -26.4383 C.ar    1  UNL1        0.1946
     32 O         -61.9696  -46.5381  -25.5672 O.2     1  UNL1       -0.4492
     33 C         -61.7314  -45.3598  -26.0893 C.ar    1  UNL1        0.1452
     34 C         -61.0195  -44.3115  -25.5170 C.ar    1  UNL1        0.0375
     35 C         -60.8848  -43.1238  -26.2564 C.ar    1  UNL1        0.0031
     36 C         -61.4603  -43.0016  -27.5501 C.ar    1  UNL1        0.0002
     37 C         -62.1771  -44.0932  -28.0964 C.ar    1  UNL1        0.0028
     38 C         -62.2909  -45.2573  -27.3347 C.ar    1  UNL1        0.0337
     39 C         -62.9157  -46.4642  -27.5842 C.ar    1  UNL1        0.0202
     40 C         -63.6779  -46.8616  -28.8125 C.3     1  UNL1        0.0345
     41 C         -61.3115  -41.7417  -28.3218 C.ar    1  UNL1        0.0000
     42 C         -62.3069  -41.3381  -29.2321 C.ar    1  UNL1        0.0000
     43 C         -62.1644  -40.1513  -29.9574 C.ar    1  UNL1        0.0000
     44 C         -61.0306  -39.3549  -29.7826 C.ar    1  UNL1        0.0000
     45 C         -60.0363  -39.7438  -28.8822 C.ar    1  UNL1        0.0000
     46 C         -60.1733  -40.9301  -28.1549 C.ar    1  UNL1        0.0000
@<TRIPOS>BOND
     1    25    26    1
     2    26    15    1
     3    15    16   ar
     4    16    17   ar
     5    17    18   ar
     6    18    14    1
     7    14    13    1
     8    13     7    1
     9     7     8    1
    10     8     9    1
    11     9    10    1
    12    10     1    1
    13     1     2   ar
    14     2     3   ar
    15     3     4   ar
    16     4    27    1
    17    27    28   am
    18    28    29    2
    19    28    31    1
    20    31    32   ar
    21    32    33   ar
    22    33    34   ar
    23    34    35   ar
    24    35    36   ar
    25    36    41    1
    26    41    42   ar
    27    42    43   ar
    28    43    44   ar
    29    44    45   ar
    30    45    46   ar
    31    36    37   ar
    32    37    38   ar
    33    38    39   ar
    34    39    40    1
    35     4     5   ar
    36     5     6   ar
    37    10    11    1
    38    11    12    1
    39    18    19   ar
    40    19    20   ar
    41    20    21    1
    42    21    22    2
    43    21    23    1
    44    20    15   ar
    45    12     7    1
    46     6     1   ar
    47    39    31   ar
    48    38    33   ar
    49    46    41   ar
    50    27    30    1
    51    23    24    1
@<TRIPOS>MOLECULE
*****
 46 51 0 0 0
SMALL
GASTEIGER

@<TRIPOS>ATOM
      1 C         -65.6701  -53.8744  -23.2406 C.ar    1  UNL1        0.1318
      2 C         -64.6413  -53.0495  -22.7542 C.ar    1  UNL1        0.0356
      3 C         -64.0563  -52.1057  -23.5996 C.ar    1  UNL1        0.0191
      4 C         -64.4758  -51.9924  -24.9300 C.ar    1  UNL1        0.0702
      5 C         -65.5170  -52.8218  -25.3761 C.ar    1  UNL1        0.1149
      6 N         -66.0753  -53.7307  -24.5338 N.ar    1  UNL1       -0.2279
      7 C         -67.5809  -57.0041  -20.8166 C.3     1  UNL1        0.0472
      8 C         -66.3515  -56.2092  -20.3157 C.3     1  UNL1        0.0252
      9 C         -65.4987  -55.6873  -21.4772 C.3     1  UNL1        0.0923
     10 N         -66.3011  -54.8640  -22.3990 N.pl3   1  UNL1       -0.2932
     11 C         -67.7680  -54.9730  -22.3828 C.3     1  UNL1        0.0923
     12 C         -68.1894  -56.4229  -22.1208 C.3     1  UNL1        0.0252
     13 C         -68.6250  -57.1809  -19.6915 C.3     1  UNL1        0.2054
     14 O         -68.5559  -56.1277  -18.7252 O.3     1  UNL1       -0.4755
     15 C         -71.4948  -55.0767  -15.8698 C.ar    1  UNL1       -0.0158
     16 C         -71.7041  -54.8037  -17.2338 C.ar    1  UNL1       -0.0009
     17 C         -70.7566  -55.1558  -18.1932 C.ar    1  UNL1        0.0366
     18 C         -69.5581  -55.7724  -17.8092 C.ar    1  UNL1        0.1387
     19 C         -69.3455  -56.0667  -16.4605 C.ar    1  UNL1        0.0430
     20 C         -70.2899  -55.7270  -15.4738 C.ar    1  UNL1        0.0745
     21 C         -69.9519  -56.0523  -14.0635 C.2     1  UNL1        0.3378
     22 O         -70.4749  -57.0340  -13.4740 O.2     1  UNL1       -0.2451
     23 O         -69.0109  -55.2820  -13.3842 O.3     1  UNL1       -0.4771
     24 H         -68.7577  -55.4941  -12.4265 H       1  UNL1        0.2954
     25 C         -72.6586  -53.0601  -14.9306 C.3     1  UNL1        0.0050
     26 C         -72.5369  -54.5814  -14.8872 C.3     1  UNL1        0.0266
     27 N         -63.8790  -51.0000  -25.7827 N.am    1  UNL1       -0.2766
     28 C         -63.9943  -49.5836  -25.5712 C.2     1  UNL1        0.2839
     29 O         -64.8476  -49.1300  -24.7618 O.2     1  UNL1       -0.2665
     30 H         -63.4037  -51.3287  -26.6536 H       1  UNL1        0.1553
     31 C         -63.1380  -48.6568  -26.3355 C.ar    1  UNL1        0.1946
     32 O         -62.1705  -47.9495  -25.7791 O.2     1  UNL1       -0.4492
     33 C         -61.6060  -47.2305  -26.7182 C.ar    1  UNL1        0.1452
     34 C         -60.5468  -46.3407  -26.5778 C.ar    1  UNL1        0.0375
     35 C         -60.0946  -45.6664  -27.7252 C.ar    1  UNL1        0.0031
     36 C         -60.7040  -45.8899  -28.9894 C.ar    1  UNL1        0.0002
     37 C         -61.7798  -46.8047  -29.0889 C.ar    1  UNL1        0.0028
     38 C         -62.2027  -47.4568  -27.9295 C.ar    1  UNL1        0.0337
     39 C         -63.2048  -48.3816  -27.7060 C.ar    1  UNL1        0.0202
     40 C         -64.1537  -48.9613  -28.7114 C.3     1  UNL1        0.0345
     41 C         -60.2178  -45.1715  -30.1945 C.ar    1  UNL1        0.0000
     42 C         -61.0870  -44.3499  -30.9374 C.ar    1  UNL1        0.0000
     43 C         -60.6265  -43.6745  -32.0717 C.ar    1  UNL1        0.0000
     44 C         -59.2968  -43.8098  -32.4765 C.ar    1  UNL1        0.0000
     45 C         -58.4244  -44.6214  -31.7479 C.ar    1  UNL1        0.0000
     46 C         -58.8797  -45.2998  -30.6133 C.ar    1  UNL1        0.0000
@<TRIPOS>BOND
     1    25    26    1
     2    26    15    1
     3    15    16   ar
     4    16    17   ar
     5    17    18   ar
     6    18    14    1
     7    14    13    1
     8    13     7    1
     9     7     8    1
    10     8     9    1
    11     9    10    1
    12    10     1    1
    13     1     2   ar
    14     2     3   ar
    15     3     4   ar
    16     4    27    1
    17    27    28   am
    18    28    29    2
    19    28    31    1
    20    31    32   ar
    21    32    33   ar
    22    33    34   ar
    23    34    35   ar
    24    35    36   ar
    25    36    41    1
    26    41    42   ar
    27    42    43   ar
    28    43    44   ar
    29    44    45   ar
    30    45    46   ar
    31    36    37   ar
    32    37    38   ar
    33    38    39   ar
    34    39    40    1
    35     4     5   ar
    36     5     6   ar
    37    10    11    1
    38    11    12    1
    39    18    19   ar
    40    19    20   ar
    41    20    21    1
    42    21    22    2
    43    21    23    1
    44    20    15   ar
    45    12     7    1
    46     6     1   ar
    47    39    31   ar
    48    38    33   ar
    49    46    41   ar
    50    27    30    1
    51    23    24    1
@<TRIPOS>MOLECULE
*****
 46 51 0 0 0
SMALL
GASTEIGER

@<TRIPOS>ATOM
      1 C         -62.4509  -43.5363  -22.9614 C.ar    1  UNL1        0.1318
      2 C         -62.5519  -43.6043  -21.5612 C.ar    1  UNL1        0.0356
      3 C         -63.1219  -42.5416  -20.8586 C.ar    1  UNL1        0.0191
      4 C         -63.5729  -41.4051  -21.5397 C.ar    1  UNL1        0.0702
      5 C         -63.4706  -41.3796  -22.9395 C.ar    1  UNL1        0.1149
      6 N         -62.9163  -42.4280  -23.6035 N.ar    1  UNL1       -0.2279
      7 C         -60.5391  -46.8229  -25.1671 C.3     1  UNL1        0.0472
      8 C         -62.0294  -46.8656  -24.7527 C.3     1  UNL1        0.0252
      9 C         -62.3008  -46.0058  -23.5135 C.3     1  UNL1        0.0923
     10 N         -61.8671  -44.6136  -23.7258 N.pl3   1  UNL1       -0.2932
     11 C         -60.9121  -44.3049  -24.8013 C.3     1  UNL1        0.0923
     12 C         -59.8851  -45.4339  -24.9391 C.3     1  UNL1        0.0252
     13 C         -60.3469  -47.3501  -26.6068 C.3     1  UNL1        0.2054
     14 O         -59.5797  -46.4482  -27.4103 O.3     1  UNL1       -0.4755
     15 C         -60.9151  -44.2002  -30.7357 C.ar    1  UNL1       -0.0158
     16 C         -61.7361  -44.3427  -29.6023 C.ar    1  UNL1       -0.0009
     17 C         -61.3097  -45.0651  -28.4895 C.ar    1  UNL1        0.0366
     18 C         -60.0539  -45.6871  -28.4900 C.ar    1  UNL1        0.1387
     19 C         -59.2207  -45.5380  -29.6009 C.ar    1  UNL1        0.0430
     20 C         -59.6259  -44.8080  -30.7340 C.ar    1  UNL1        0.0745
     21 C         -58.6789  -44.7393  -31.8774 C.2     1  UNL1        0.3378
     22 O         -59.0894  -44.6995  -33.0668 O.2     1  UNL1       -0.2451
     23 O         -57.3084  -44.6805  -31.6356 O.3     1  UNL1       -0.4771
     24 H         -56.6467  -44.6214  -32.4003 H       1  UNL1        0.2954
     25 C         -63.0188  -43.4714  -31.8962 C.3     1  UNL1        0.0050
     26 C         -61.4925  -43.4725  -31.9333 C.3     1  UNL1        0.0266
     27 N         -64.1783  -40.3278  -20.8041 N.am    1  UNL1       -0.2766
     28 C         -63.6310  -39.0018  -20.7233 C.2     1  UNL1        0.2839
     29 O         -62.4449  -38.7814  -21.0887 O.2     1  UNL1       -0.2665
     30 H         -65.0219  -40.5461  -20.2269 H       1  UNL1        0.1553
     31 C         -64.4484  -37.9043  -20.1724 C.ar    1  UNL1        0.1946
     32 O         -63.9299  -36.8878  -19.5063 O.2     1  UNL1       -0.4492
     33 C         -64.9118  -36.0950  -19.1527 C.ar    1  UNL1        0.1452
     34 C         -64.8209  -34.9078  -18.4347 C.ar    1  UNL1        0.0375
     35 C         -66.0096  -34.2098  -18.1600 C.ar    1  UNL1        0.0031
     36 C         -67.2651  -34.7057  -18.6046 C.ar    1  UNL1        0.0002
     37 C         -67.3134  -35.9184  -19.3332 C.ar    1  UNL1        0.0028
     38 C         -66.1138  -36.5849  -19.5882 C.ar    1  UNL1        0.0337
     39 C         -65.8384  -37.7638  -20.2544 C.ar    1  UNL1        0.0202
     40 C         -66.8148  -38.6877  -20.9180 C.3     1  UNL1        0.0345
     41 C         -68.5143  -33.9596  -18.3082 C.ar    1  UNL1        0.0000
     42 C         -68.4863  -32.8121  -17.4928 C.ar    1  UNL1        0.0000
     43 C         -69.6640  -32.1114  -17.2154 C.ar    1  UNL1        0.0000
     44 C         -70.8800  -32.5456  -17.7476 C.ar    1  UNL1        0.0000
     45 C         -70.9210  -33.6821  -18.5584 C.ar    1  UNL1        0.0000
     46 C         -69.7465  -34.3871  -18.8384 C.ar    1  UNL1        0.0000
@<TRIPOS>BOND
     1    25    26    1
     2    26    15    1
     3    15    16   ar
     4    16    17   ar
     5    17    18   ar
     6    18    14    1
     7    14    13    1
     8    13     7    1
     9     7     8    1
    10     8     9    1
    11     9    10    1
    12    10     1    1
    13     1     2   ar
    14     2     3   ar
    15     3     4   ar
    16     4    27    1
    17    27    28   am
    18    28    29    2
    19    28    31    1
    20    31    32   ar
    21    32    33   ar
    22    33    34   ar
    23    34    35   ar
    24    35    36   ar
    25    36    41    1
    26    41    42   ar
    27    42    43   ar
    28    43    44   ar
    29    44    45   ar
    30    45    46   ar
    31    36    37   ar
    32    37    38   ar
    33    38    39   ar
    34    39    40    1
    35     4     5   ar
    36     5     6   ar
    37    10    11    1
    38    11    12    1
    39    18    19   ar
    40    19    20   ar
    41    20    21    1
    42    21    22    2
    43    21    23    1
    44    20    15   ar
    45    12     7    1
    46     6     1   ar
    47    39    31   ar
    48    38    33   ar
    49    46    41   ar
    50    27    30    1
    51    23    24    1
@<TRIPOS>MOLECULE
*****
 46 51 0 0 0
SMALL
GASTEIGER

@<TRIPOS>ATOM
      1 C         -61.4560  -47.7414  -22.9755 C.ar    1  UNL1        0.1318
      2 C         -62.1704  -47.0131  -23.9423 C.ar    1  UNL1        0.0356
      3 C         -62.4854  -45.6747  -23.7036 C.ar    1  UNL1        0.0191
      4 C         -62.1108  -45.0640  -22.5012 C.ar    1  UNL1        0.0702
      5 C         -61.3842  -45.8179  -21.5661 C.ar    1  UNL1        0.1149
      6 N         -61.0843  -47.1186  -21.8217 N.ar    1  UNL1       -0.2279
      7 C         -60.2713  -51.9092  -23.7158 C.3     1  UNL1        0.0472
      8 C         -60.4569  -51.3466  -22.2863 C.3     1  UNL1        0.0252
      9 C         -60.2281  -49.8321  -22.2360 C.3     1  UNL1        0.0923
     10 N         -61.1109  -49.1284  -23.1829 N.pl3   1  UNL1       -0.2932
     11 C         -61.7349  -49.8734  -24.2873 C.3     1  UNL1        0.0923
     12 C         -60.7709  -50.9391  -24.8196 C.3     1  UNL1        0.0252
     13 C         -60.8771  -53.3253  -23.8392 C.3     1  UNL1        0.2054
     14 O         -61.8443  -53.5858  -22.8173 O.3     1  UNL1       -0.4755
     15 C         -66.0197  -54.0942  -23.2679 C.ar    1  UNL1       -0.0158
     16 C         -65.3560  -53.0564  -23.9470 C.ar    1  UNL1       -0.0009
     17 C         -63.9788  -52.8806  -23.8258 C.ar    1  UNL1        0.0366
     18 C         -63.2287  -53.7281  -22.9993 C.ar    1  UNL1        0.1387
     19 C         -63.8716  -54.7744  -22.3342 C.ar    1  UNL1        0.0430
     20 C         -65.2600  -54.9765  -22.4456 C.ar    1  UNL1        0.0745
     21 C         -65.8521  -56.0970  -21.6691 C.2     1  UNL1        0.3378
     22 O         -66.0202  -57.2336  -22.1834 O.2     1  UNL1       -0.2451
     23 O         -66.1972  -55.9042  -20.3335 O.3     1  UNL1       -0.4771
     24 H         -66.5911  -56.6582  -19.7833 H       1  UNL1        0.2954
     25 C         -67.9542  -55.0657  -24.5396 C.3     1  UNL1        0.0050
     26 C         -67.5291  -54.1583  -23.3876 C.3     1  UNL1        0.0266
     27 N         -62.4229  -43.6779  -22.2792 N.am    1  UNL1       -0.2766
     28 C         -63.4446  -43.2176  -21.3799 C.2     1  UNL1        0.2839
     29 O         -64.3007  -44.0236  -20.9259 O.2     1  UNL1       -0.2665
     30 H         -61.9333  -42.9679  -22.8697 H       1  UNL1        0.1553
     31 C         -63.5144  -41.7885  -21.0204 C.ar    1  UNL1        0.1946
     32 O         -62.6070  -40.9073  -21.4024 O.2     1  UNL1       -0.4492
     33 C         -62.9531  -39.7383  -20.9213 C.ar    1  UNL1        0.1452
     34 C         -62.2834  -38.5298  -21.0772 C.ar    1  UNL1        0.0375
     35 C         -62.8330  -37.3875  -20.4700 C.ar    1  UNL1        0.0031
     36 C         -64.0375  -37.4690  -19.7201 C.ar    1  UNL1        0.0002
     37 C         -64.6881  -38.7191  -19.5862 C.ar    1  UNL1        0.0028
     38 C         -64.1146  -39.8324  -20.2024 C.ar    1  UNL1        0.0337
     39 C         -64.4994  -41.1587  -20.2513 C.ar    1  UNL1        0.0202
     40 C         -65.7064  -41.7836  -19.6189 C.3     1  UNL1        0.0345
     41 C         -64.6085  -36.2553  -19.0830 C.ar    1  UNL1        0.0000
     42 C         -63.9872  -35.6770  -17.9596 C.ar    1  UNL1        0.0000
     43 C         -64.5270  -34.5341  -17.3617 C.ar    1  UNL1        0.0000
     44 C         -65.6891  -33.9559  -17.8768 C.ar    1  UNL1        0.0000
     45 C         -66.3145  -34.5196  -18.9911 C.ar    1  UNL1        0.0000
     46 C         -65.7797  -35.6629  -19.5924 C.ar    1  UNL1        0.0000
@<TRIPOS>BOND
     1    25    26    1
     2    26    15    1
     3    15    16   ar
     4    16    17   ar
     5    17    18   ar
     6    18    14    1
     7    14    13    1
     8    13     7    1
     9     7     8    1
    10     8     9    1
    11     9    10    1
    12    10     1    1
    13     1     2   ar
    14     2     3   ar
    15     3     4   ar
    16     4    27    1
    17    27    28   am
    18    28    29    2
    19    28    31    1
    20    31    32   ar
    21    32    33   ar
    22    33    34   ar
    23    34    35   ar
    24    35    36   ar
    25    36    41    1
    26    41    42   ar
    27    42    43   ar
    28    43    44   ar
    29    44    45   ar
    30    45    46   ar
    31    36    37   ar
    32    37    38   ar
    33    38    39   ar
    34    39    40    1
    35     4     5   ar
    36     5     6   ar
    37    10    11    1
    38    11    12    1
    39    18    19   ar
    40    19    20   ar
    41    20    21    1
    42    21    22    2
    43    21    23    1
    44    20    15   ar
    45    12     7    1
    46     6     1   ar
    47    39    31   ar
    48    38    33   ar
    49    46    41   ar
    50    27    30    1
    51    23    24    1
@<TRIPOS>MOLECULE
*****
 46 51 0 0 0
SMALL
GASTEIGER

@<TRIPOS>ATOM
      1 C         -62.5944  -43.1722  -23.8666 C.ar    1  UNL1        0.1318
      2 C         -62.5840  -43.2808  -22.4654 C.ar    1  UNL1        0.0356
      3 C         -63.1936  -42.2914  -21.6926 C.ar    1  UNL1        0.0191
      4 C         -63.7950  -41.1862  -22.3056 C.ar    1  UNL1        0.0702
      5 C         -63.8002  -41.1198  -23.7079 C.ar    1  UNL1        0.1149
      6 N         -63.2046  -42.0973  -24.4407 N.ar    1  UNL1       -0.2279
      7 C         -60.6462  -46.3016  -26.2610 C.3     1  UNL1        0.0472
      8 C         -62.1342  -45.9233  -26.4532 C.3     1  UNL1        0.0252
      9 C         -62.7431  -45.3387  -25.1741 C.3     1  UNL1        0.0923
     10 N         -61.9743  -44.1735  -24.7025 N.pl3   1  UNL1       -0.2932
     11 C         -60.5967  -43.9703  -25.1766 C.3     1  UNL1        0.0923
     12 C         -59.8849  -45.3185  -25.3320 C.3     1  UNL1        0.0252
     13 C         -59.9449  -46.5095  -27.6220 C.3     1  UNL1        0.2054
     14 O         -59.5891  -45.2676  -28.2373 O.3     1  UNL1       -0.4755
     15 C         -60.7770  -43.9295  -32.0705 C.ar    1  UNL1       -0.0158
     16 C         -59.5073  -44.5057  -31.8844 C.ar    1  UNL1       -0.0009
     17 C         -59.1017  -44.9679  -30.6338 C.ar    1  UNL1        0.0366
     18 C         -59.9505  -44.8441  -29.5257 C.ar    1  UNL1        0.1387
     19 C         -61.2213  -44.2915  -29.6998 C.ar    1  UNL1        0.0430
     20 C         -61.6564  -43.8234  -30.9539 C.ar    1  UNL1        0.0745
     21 C         -63.0129  -43.2203  -31.0252 C.2     1  UNL1        0.3378
     22 O         -63.2974  -42.1706  -30.3912 O.2     1  UNL1       -0.2451
     23 O         -63.9846  -43.8014  -31.8366 O.3     1  UNL1       -0.4771
     24 H         -64.9116  -43.3993  -31.9084 H       1  UNL1        0.2954
     25 C         -59.9736  -43.6554  -34.4333 C.3     1  UNL1        0.0050
     26 C         -61.1015  -43.3750  -33.4432 C.3     1  UNL1        0.0266
     27 N         -64.4386  -40.1863  -21.4970 N.am    1  UNL1       -0.2766
     28 C         -63.7658  -39.0430  -20.9451 C.2     1  UNL1        0.2839
     29 O         -62.5064  -38.9935  -20.9305 O.2     1  UNL1       -0.2665
     30 H         -65.4356  -40.3462  -21.2268 H       1  UNL1        0.1553
     31 C         -64.5535  -37.9428  -20.3571 C.ar    1  UNL1        0.1946
     32 O         -64.0038  -36.9431  -19.6906 O.2     1  UNL1       -0.4492
     33 C         -64.9651  -36.1426  -19.2999 C.ar    1  UNL1        0.1452
     34 C         -64.8392  -34.9673  -18.5678 C.ar    1  UNL1        0.0375
     35 C         -66.0106  -34.2577  -18.2518 C.ar    1  UNL1        0.0031
     36 C         -67.2840  -34.7303  -18.6699 C.ar    1  UNL1        0.0002
     37 C         -67.3680  -35.9315  -19.4142 C.ar    1  UNL1        0.0028
     38 C         -66.1848  -36.6101  -19.7103 C.ar    1  UNL1        0.0337
     39 C         -65.9431  -37.7827  -20.4002 C.ar    1  UNL1        0.0202
     40 C         -66.9491  -38.6838  -21.0508 C.3     1  UNL1        0.0345
     41 C         -68.5147  -33.9721  -18.3299 C.ar    1  UNL1        0.0000
     42 C         -69.7699  -34.3929  -18.8093 C.ar    1  UNL1        0.0000
     43 C         -70.9272  -33.6771  -18.4875 C.ar    1  UNL1        0.0000
     44 C         -70.8459  -32.5370  -17.6852 C.ar    1  UNL1        0.0000
     45 C         -69.6068  -32.1096  -17.2029 C.ar    1  UNL1        0.0000
     46 C         -68.4462  -32.8210  -17.5223 C.ar    1  UNL1        0.0000
@<TRIPOS>BOND
     1    25    26    1
     2    26    15    1
     3    15    16   ar
     4    16    17   ar
     5    17    18   ar
     6    18    14    1
     7    14    13    1
     8    13     7    1
     9     7     8    1
    10     8     9    1
    11     9    10    1
    12    10     1    1
    13     1     2   ar
    14     2     3   ar
    15     3     4   ar
    16     4    27    1
    17    27    28   am
    18    28    29    2
    19    28    31    1
    20    31    32   ar
    21    32    33   ar
    22    33    34   ar
    23    34    35   ar
    24    35    36   ar
    25    36    41    1
    26    41    42   ar
    27    42    43   ar
    28    43    44   ar
    29    44    45   ar
    30    45    46   ar
    31    36    37   ar
    32    37    38   ar
    33    38    39   ar
    34    39    40    1
    35     4     5   ar
    36     5     6   ar
    37    10    11    1
    38    11    12    1
    39    18    19   ar
    40    19    20   ar
    41    20    21    1
    42    21    22    2
    43    21    23    1
    44    20    15   ar
    45    12     7    1
    46     6     1   ar
    47    39    31   ar
    48    38    33   ar
    49    46    41   ar
    50    27    30    1
    51    23    24    1
@<TRIPOS>MOLECULE
*****
 46 51 0 0 0
SMALL
GASTEIGER

@<TRIPOS>ATOM
      1 C         -61.7717  -43.1713  -21.7932 C.ar    1  UNL1        0.1318
      2 C         -61.3849  -42.7221  -20.5188 C.ar    1  UNL1        0.0356
      3 C         -62.0381  -41.6306  -19.9447 C.ar    1  UNL1        0.0191
      4 C         -63.0594  -40.9727  -20.6398 C.ar    1  UNL1        0.0702
      5 C         -63.4298  -41.4595  -21.9034 C.ar    1  UNL1        0.1149
      6 N         -62.7828  -42.5270  -22.4411 N.ar    1  UNL1       -0.2279
      7 C         -59.6526  -46.5752  -23.5945 C.3     1  UNL1        0.0472
      8 C         -61.1216  -46.6770  -23.1190 C.3     1  UNL1        0.0252
      9 C         -61.4294  -45.6743  -22.0017 C.3     1  UNL1        0.0923
     10 N         -61.1209  -44.2963  -22.4229 N.pl3   1  UNL1       -0.2932
     11 C         -60.2263  -44.0685  -23.5681 C.3     1  UNL1        0.0923
     12 C         -59.1120  -45.1203  -23.5883 C.3     1  UNL1        0.0252
     13 C         -59.4574  -47.2845  -24.9533 C.3     1  UNL1        0.2054
     14 O         -59.6296  -46.3885  -26.0557 O.3     1  UNL1       -0.4755
     15 C         -63.0337  -46.2892  -28.5653 C.ar    1  UNL1       -0.0158
     16 C         -62.2051  -45.1581  -28.4518 C.ar    1  UNL1       -0.0009
     17 C         -61.0699  -45.1741  -27.6436 C.ar    1  UNL1        0.0366
     18 C         -60.7446  -46.3201  -26.9053 C.ar    1  UNL1        0.1387
     19 C         -61.5477  -47.4566  -27.0232 C.ar    1  UNL1        0.0430
     20 C         -62.6955  -47.4674  -27.8378 C.ar    1  UNL1        0.0745
     21 C         -63.5017  -48.7156  -27.8663 C.2     1  UNL1        0.3378
     22 O         -63.6143  -49.3990  -28.9175 O.2     1  UNL1       -0.2451
     23 O         -64.1187  -49.1652  -26.7014 O.3     1  UNL1       -0.4771
     24 H         -64.6628  -50.0198  -26.6966 H       1  UNL1        0.2954
     25 C         -64.1553  -45.0448  -30.4352 C.3     1  UNL1        0.0050
     26 C         -64.2937  -46.1554  -29.3967 C.3     1  UNL1        0.0266
     27 N         -63.7383  -39.8635  -20.0260 N.am    1  UNL1       -0.2766
     28 C         -63.4932  -38.4872  -20.3577 C.2     1  UNL1        0.2839
     29 O         -62.4763  -38.1678  -21.0305 O.2     1  UNL1       -0.2665
     30 H         -64.3881  -40.0686  -19.2334 H       1  UNL1        0.1553
     31 C         -64.4144  -37.4417  -19.8731 C.ar    1  UNL1        0.1946
     32 O         -63.9996  -36.3496  -19.2558 O.2     1  UNL1       -0.4492
     33 C         -65.0541  -35.6322  -18.9542 C.ar    1  UNL1        0.1452
     34 C         -65.0814  -34.4065  -18.2984 C.ar    1  UNL1        0.0375
     35 C         -66.3321  -33.8062  -18.0726 C.ar    1  UNL1        0.0031
     36 C         -67.5310  -34.4361  -18.5033 C.ar    1  UNL1        0.0002
     37 C         -67.4589  -35.6839  -19.1681 C.ar    1  UNL1        0.0028
     38 C         -66.2005  -36.2509  -19.3756 C.ar    1  UNL1        0.0337
     39 C         -65.8100  -37.4324  -19.9765 C.ar    1  UNL1        0.0202
     40 C         -66.6892  -38.4739  -20.6008 C.3     1  UNL1        0.0345
     41 C         -68.8467  -33.7925  -18.2590 C.ar    1  UNL1        0.0000
     42 C         -70.0011  -34.2488  -18.9234 C.ar    1  UNL1        0.0000
     43 C         -71.2387  -33.6409  -18.6915 C.ar    1  UNL1        0.0000
     44 C         -71.3389  -32.5742  -17.7957 C.ar    1  UNL1        0.0000
     45 C         -70.2013  -32.1126  -17.1299 C.ar    1  UNL1        0.0000
     46 C         -68.9609  -32.7162  -17.3587 C.ar    1  UNL1        0.0000
@<TRIPOS>BOND
     1    25    26    1
     2    26    15    1
     3    15    16   ar
     4    16    17   ar
     5    17    18   ar
     6    18    14    1
     7    14    13    1
     8    13     7    1
     9     7     8    1
    10     8     9    1
    11     9    10    1
    12    10     1    1
    13     1     2   ar
    14     2     3   ar
    15     3     4   ar
    16     4    27    1
    17    27    28   am
    18    28    29    2
    19    28    31    1
    20    31    32   ar
    21    32    33   ar
    22    33    34   ar
    23    34    35   ar
    24    35    36   ar
    25    36    41    1
    26    41    42   ar
    27    42    43   ar
    28    43    44   ar
    29    44    45   ar
    30    45    46   ar
    31    36    37   ar
    32    37    38   ar
    33    38    39   ar
    34    39    40    1
    35     4     5   ar
    36     5     6   ar
    37    10    11    1
    38    11    12    1
    39    18    19   ar
    40    19    20   ar
    41    20    21    1
    42    21    22    2
    43    21    23    1
    44    20    15   ar
    45    12     7    1
    46     6     1   ar
    47    39    31   ar
    48    38    33   ar
    49    46    41   ar
    50    27    30    1
    51    23    24    1
@<TRIPOS>MOLECULE
*****
 46 51 0 0 0
SMALL
GASTEIGER

@<TRIPOS>ATOM
      1 C         -62.4375  -43.4596  -23.0317 C.ar    1  UNL1        0.1318
      2 C         -62.8039  -42.2709  -23.6861 C.ar    1  UNL1        0.0356
      3 C         -63.4128  -41.2448  -22.9622 C.ar    1  UNL1        0.0191
      4 C         -63.6765  -41.4033  -21.5968 C.ar    1  UNL1        0.0702
      5 C         -63.2817  -42.5976  -20.9735 C.ar    1  UNL1        0.1149
      6 N         -62.6858  -43.5817  -21.6973 N.ar    1  UNL1       -0.2279
      7 C         -60.3832  -46.7636  -25.0773 C.3     1  UNL1        0.0472
      8 C         -61.8774  -46.8405  -24.6830 C.3     1  UNL1        0.0252
      9 C         -62.1967  -45.9423  -23.4830 C.3     1  UNL1        0.0923
     10 N         -61.8063  -44.5457  -23.7442 N.pl3   1  UNL1       -0.2932
     11 C         -60.8454  -44.2473  -24.8173 C.3     1  UNL1        0.0923
     12 C         -59.7794  -45.3454  -24.8954 C.3     1  UNL1        0.0252
     13 C         -60.1509  -47.3401  -26.4920 C.3     1  UNL1        0.2054
     14 O         -59.7017  -46.3400  -27.4116 O.3     1  UNL1       -0.4755
     15 C         -62.1271  -44.5063  -30.3528 C.ar    1  UNL1       -0.0158
     16 C         -60.7409  -44.2680  -30.3297 C.ar    1  UNL1       -0.0009
     17 C         -59.9209  -44.8743  -29.3799 C.ar    1  UNL1        0.0366
     18 C         -60.4717  -45.7209  -28.4084 C.ar    1  UNL1        0.1387
     19 C         -61.8437  -45.9814  -28.4312 C.ar    1  UNL1        0.0430
     20 C         -62.6916  -45.3864  -29.3841 C.ar    1  UNL1        0.0745
     21 C         -64.1416  -45.7016  -29.3002 C.2     1  UNL1        0.3378
     22 O         -64.9735  -44.8534  -28.8837 O.2     1  UNL1       -0.2451
     23 O         -64.6028  -46.9459  -29.7231 O.3     1  UNL1       -0.4771
     24 H         -65.5886  -47.1764  -29.6853 H       1  UNL1        0.2954
     25 C         -62.0878  -43.2256  -32.5118 C.3     1  UNL1        0.0050
     26 C         -62.9543  -43.7383  -31.3641 C.3     1  UNL1        0.0266
     27 N         -64.2841  -40.3284  -20.8595 N.am    1  UNL1       -0.2766
     28 C         -63.7122  -39.0166  -20.7319 C.2     1  UNL1        0.2839
     29 O         -62.5098  -38.8145  -21.0518 O.2     1  UNL1       -0.2665
     30 H         -65.1515  -40.5402  -20.3162 H       1  UNL1        0.1553
     31 C         -64.5250  -37.9131  -20.1859 C.ar    1  UNL1        0.1946
     32 O         -64.0007  -36.8887  -19.5367 O.2     1  UNL1       -0.4492
     33 C         -64.9795  -36.0923  -19.1829 C.ar    1  UNL1        0.1452
     34 C         -64.8825  -34.8968  -18.4797 C.ar    1  UNL1        0.0375
     35 C         -66.0689  -34.1963  -18.2016 C.ar    1  UNL1        0.0031
     36 C         -67.3283  -34.6979  -18.6282 C.ar    1  UNL1        0.0002
     37 C         -67.3829  -35.9190  -19.3422 C.ar    1  UNL1        0.0028
     38 C         -66.1855  -36.5879  -19.6010 C.ar    1  UNL1        0.0337
     39 C         -65.9157  -37.7743  -20.2560 C.ar    1  UNL1        0.0202
     40 C         -66.8979  -38.7064  -20.8994 C.3     1  UNL1        0.0345
     41 C         -68.5751  -33.9491  -18.3285 C.ar    1  UNL1        0.0000
     42 C         -68.5455  -32.8134  -17.4967 C.ar    1  UNL1        0.0000
     43 C         -69.7209  -32.1101  -17.2162 C.ar    1  UNL1        0.0000
     44 C         -70.9361  -32.5299  -17.7614 C.ar    1  UNL1        0.0000
     45 C         -70.9787  -33.6545  -18.5885 C.ar    1  UNL1        0.0000
     46 C         -69.8065  -34.3621  -18.8717 C.ar    1  UNL1        0.0000
@<TRIPOS>BOND
     1    25    26    1
     2    26    15    1
     3    15    16   ar
     4    16    17   ar
     5    17    18   ar
     6    18    14    1
     7    14    13    1
     8    13     7    1
     9     7     8    1
    10     8     9    1
    11     9    10    1
    12    10     1    1
    13     1     2   ar
    14     2     3   ar
    15     3     4   ar
    16     4    27    1
    17    27    28   am
    18    28    29    2
    19    28    31    1
    20    31    32   ar
    21    32    33   ar
    22    33    34   ar
    23    34    35   ar
    24    35    36   ar
    25    36    41    1
    26    41    42   ar
    27    42    43   ar
    28    43    44   ar
    29    44    45   ar
    30    45    46   ar
    31    36    37   ar
    32    37    38   ar
    33    38    39   ar
    34    39    40    1
    35     4     5   ar
    36     5     6   ar
    37    10    11    1
    38    11    12    1
    39    18    19   ar
    40    19    20   ar
    41    20    21    1
    42    21    22    2
    43    21    23    1
    44    20    15   ar
    45    12     7    1
    46     6     1   ar
    47    39    31   ar
    48    38    33   ar
    49    46    41   ar
    50    27    30    1
    51    23    24    1
