@<TRIPOS>MOLECULE
*****
 51 56 0 0 0
SMALL
GASTEIGER

@<TRIPOS>ATOM
      1 O         -61.5547  -42.2082  -19.4861 O.2     1  UNL1       -0.2701
      2 C         -62.1870  -41.5341  -20.3444 C.2     1  UNL1        0.2483
      3 N         -63.0906  -40.5015  -19.9171 N.am    1  UNL1       -0.2945
      4 H         -63.6530  -39.9961  -20.6386 H       1  UNL1        0.1501
      5 C         -62.0286  -41.8499  -21.7836 C.ar    1  UNL1        0.0808
      6 C         -63.1033  -41.6832  -22.6731 C.ar    1  UNL1        0.0080
      7 C         -62.9713  -42.0279  -24.0203 C.ar    1  UNL1        0.0148
      8 C         -61.7619  -42.5483  -24.5105 C.ar    1  UNL1        0.0502
      9 C         -60.6802  -42.6955  -23.6250 C.ar    1  UNL1        0.0443
     10 C         -60.8079  -42.3476  -22.2773 C.ar    1  UNL1        0.1457
     11 F         -59.7471  -42.5340  -21.4510 F       1  UNL1       -0.2040
     12 N         -61.6317  -42.9191  -25.9006 N.pl3   1  UNL1       -0.3040
     13 C         -62.7469  -42.6998  -26.8325 C.3     1  UNL1        0.1123
     14 C         -62.2252  -42.3893  -28.2396 C.3     1  UNL1        0.1136
     15 N         -61.2127  -43.3650  -28.6779 N.pl3   1  UNL1       -0.2897
     16 C         -60.6460  -44.3119  -27.7066 C.3     1  UNL1        0.1136
     17 C         -60.4245  -43.6269  -26.3545 C.3     1  UNL1        0.1123
     18 C         -60.8748  -43.4899  -30.0780 C.ar    1  UNL1        0.1318
     19 C         -59.8319  -44.3289  -30.5084 C.ar    1  UNL1        0.0343
     20 C         -59.5362  -44.4218  -31.8693 C.ar    1  UNL1        0.0083
     21 C         -60.2876  -43.6995  -32.8075 C.ar    1  UNL1        0.0906
     22 C         -61.3057  -42.8563  -32.3379 C.ar    1  UNL1        0.1041
     23 N         -61.5740  -42.7799  -31.0079 N.ar    1  UNL1       -0.2292
     24 C         -59.9456  -43.7528  -34.2747 C.3     1  UNL1        0.4200
     25 F         -59.1505  -42.6769  -34.6299 F       1  UNL1       -0.1658
     26 F         -59.2583  -44.9165  -34.5738 F       1  UNL1       -0.1658
     27 F         -61.1119  -43.7153  -35.0156 F       1  UNL1       -0.1658
     28 C         -63.4971  -40.3427  -18.5164 C.3     1  UNL1        0.1535
     29 C         -64.1945  -39.0118  -18.3207 C.2     1  UNL1        0.2444
     30 O         -65.0351  -38.8704  -17.3912 O.2     1  UNL1       -0.2730
     31 N         -63.8523  -37.8917  -19.1566 N.am    1  UNL1       -0.2801
     32 H         -63.2525  -38.0617  -19.9950 H       1  UNL1        0.1550
     33 C         -64.3810  -36.5669  -18.9737 C.ar    1  UNL1        0.0876
     34 C         -65.6724  -36.2343  -19.4151 C.ar    1  UNL1        0.0384
     35 C         -66.1667  -34.9469  -19.1963 C.ar    1  UNL1        0.1004
     36 N         -65.4077  -34.0258  -18.5472 N.ar    1  UNL1       -0.2391
     37 C         -64.1617  -34.3214  -18.0927 C.ar    1  UNL1        0.1366
     38 C         -63.6242  -35.6001  -18.2906 C.ar    1  UNL1        0.1664
     39 O         -62.3469  -35.9081  -17.8241 O.3     1  UNL1       -0.5030
     40 H         -61.7830  -35.2247  -17.3323 H       1  UNL1        0.2923
     41 C         -64.3495  -41.5568  -18.0713 C.3     1  UNL1        0.0569
     42 C         -65.0491  -42.2354  -19.2209 C.ar    1  UNL1       -0.0017
     43 C         -65.2279  -43.6053  -19.3973 C.ar    1  UNL1        0.0681
     44 N         -66.0026  -43.8467  -20.4793 N.ar    1  UNL1       -0.3523
     45 C         -66.3198  -42.6433  -20.9863 C.ar    1  UNL1        0.0563
     46 C         -67.1305  -42.3790  -22.0896 C.ar    1  UNL1        0.0170
     47 C         -67.3540  -41.0335  -22.4350 C.ar    1  UNL1        0.0015
     48 C         -66.7634  -39.9947  -21.6827 C.ar    1  UNL1        0.0001
     49 C         -65.9455  -40.2919  -20.5780 C.ar    1  UNL1        0.0012
     50 C         -65.7526  -41.6349  -20.2502 C.ar    1  UNL1        0.0131
     51 H         -66.3050  -44.7808  -20.8351 H       1  UNL1        0.1660
@<TRIPOS>BOND
     1     1     2    2
     2     2     3   am
     3     3    28    1
     4    28    41    1
     5    41    42    1
     6    42    43   ar
     7    43    44   ar
     8    44    45   ar
     9    45    46   ar
    10    46    47   ar
    11    47    48   ar
    12    48    49   ar
    13    49    50   ar
    14    28    29    1
    15    29    30    2
    16    29    31   am
    17    31    33    1
    18    33    34   ar
    19    34    35   ar
    20    35    36   ar
    21    36    37   ar
    22    37    38   ar
    23    38    39    1
    24     2     5    1
    25     5     6   ar
    26     6     7   ar
    27     7     8   ar
    28     8    12    1
    29    12    13    1
    30    13    14    1
    31    14    15    1
    32    15    18    1
    33    18    19   ar
    34    19    20   ar
    35    20    21   ar
    36    21    24    1
    37    24    25    1
    38    24    26    1
    39    24    27    1
    40    21    22   ar
    41    22    23   ar
    42    15    16    1
    43    16    17    1
    44     8     9   ar
    45     9    10   ar
    46    10    11    1
    47    50    42   ar
    48    38    33   ar
    49    10     5   ar
    50    50    45   ar
    51    17    12    1
    52    23    18   ar
    53     3     4    1
    54    44    51    1
    55    31    32    1
    56    39    40    1
@<TRIPOS>MOLECULE
*****
 51 56 0 0 0
SMALL
GASTEIGER

@<TRIPOS>ATOM
      1 O         -60.3826  -41.8595  -21.5305 O.2     1  UNL1       -0.2701
      2 C         -61.4120  -41.5033  -22.1662 C.2     1  UNL1        0.2483
      3 N         -62.2509  -40.4614  -21.6408 N.am    1  UNL1       -0.2945
      4 H         -63.1328  -40.2228  -22.1482 H       1  UNL1        0.1501
      5 C         -61.7723  -42.1999  -23.4237 C.ar    1  UNL1        0.0808
      6 C         -62.9566  -41.8738  -24.1057 C.ar    1  UNL1        0.0080
      7 C         -63.3232  -42.5638  -25.2637 C.ar    1  UNL1        0.0148
      8 C         -62.5151  -43.5968  -25.7671 C.ar    1  UNL1        0.0502
      9 C         -61.3198  -43.9089  -25.0965 C.ar    1  UNL1        0.0443
     10 C         -60.9482  -43.2175  -23.9399 C.ar    1  UNL1        0.1457
     11 F         -59.8005  -43.5717  -23.3073 F       1  UNL1       -0.2040
     12 N         -62.9034  -44.3201  -26.9558 N.pl3   1  UNL1       -0.3040
     13 C         -62.5961  -45.7516  -27.0844 C.3     1  UNL1        0.1123
     14 C         -63.6770  -46.4673  -27.9017 C.3     1  UNL1        0.1136
     15 N         -63.9687  -45.7637  -29.1623 N.pl3   1  UNL1       -0.2897
     16 C         -63.4362  -44.4111  -29.3809 C.3     1  UNL1        0.1136
     17 C         -63.4995  -43.5930  -28.0874 C.3     1  UNL1        0.1123
     18 C         -64.6553  -46.4437  -30.2377 C.ar    1  UNL1        0.1318
     19 C         -65.0626  -45.7588  -31.3961 C.ar    1  UNL1        0.0343
     20 C         -65.7234  -46.4510  -32.4121 C.ar    1  UNL1        0.0083
     21 C         -65.9626  -47.8275  -32.2907 C.ar    1  UNL1        0.0906
     22 C         -65.5610  -48.4714  -31.1108 C.ar    1  UNL1        0.1041
     23 N         -64.9213  -47.7763  -30.1338 N.ar    1  UNL1       -0.2292
     24 C         -66.7194  -48.5755  -33.3585 C.3     1  UNL1        0.4200
     25 F         -65.9571  -48.6892  -34.5081 F       1  UNL1       -0.1658
     26 F         -67.0429  -49.8499  -32.9257 F       1  UNL1       -0.1658
     27 F         -67.8833  -47.8915  -33.6553 F       1  UNL1       -0.1658
     28 C         -62.1004  -39.9441  -20.2762 C.3     1  UNL1        0.1535
     29 C         -62.6230  -38.5243  -20.1933 C.2     1  UNL1        0.2444
     30 O         -62.2868  -37.6761  -21.0641 O.2     1  UNL1       -0.2730
     31 N         -63.5518  -38.1600  -19.1564 N.am    1  UNL1       -0.2801
     32 H         -63.7175  -38.8361  -18.3772 H       1  UNL1        0.1550
     33 C         -64.1820  -36.8707  -19.0647 C.ar    1  UNL1        0.0876
     34 C         -65.4837  -36.6638  -19.5505 C.ar    1  UNL1        0.0384
     35 C         -66.0777  -35.4069  -19.4201 C.ar    1  UNL1        0.1004
     36 N         -65.4053  -34.3940  -18.8139 N.ar    1  UNL1       -0.2391
     37 C         -64.1519  -34.5668  -18.3181 C.ar    1  UNL1        0.1366
     38 C         -63.5160  -35.8105  -18.4273 C.ar    1  UNL1        0.1664
     39 O         -62.2308  -35.9925  -17.9182 O.3     1  UNL1       -0.5030
     40 H         -61.7314  -35.2403  -17.4581 H       1  UNL1        0.2923
     41 C         -62.7720  -40.9083  -19.2672 C.3     1  UNL1        0.0569
     42 C         -63.8604  -41.7443  -19.8901 C.ar    1  UNL1       -0.0017
     43 C         -63.9765  -43.1315  -19.8442 C.ar    1  UNL1        0.0681
     44 N         -65.1391  -43.5288  -20.4098 N.ar    1  UNL1       -0.3523
     45 C         -65.7619  -42.4067  -20.8084 C.ar    1  UNL1        0.0563
     46 C         -67.0115  -42.3060  -21.4189 C.ar    1  UNL1        0.0170
     47 C         -67.4897  -41.0203  -21.7317 C.ar    1  UNL1        0.0015
     48 C         -66.7139  -39.8778  -21.4372 C.ar    1  UNL1        0.0001
     49 C         -65.4543  -40.0107  -20.8262 C.ar    1  UNL1        0.0012
     50 C         -65.0115  -41.2972  -20.5145 C.ar    1  UNL1        0.0131
     51 H         -65.4865  -44.5093  -20.5005 H       1  UNL1        0.1660
@<TRIPOS>BOND
     1     1     2    2
     2     2     3   am
     3     3    28    1
     4    28    41    1
     5    41    42    1
     6    42    43   ar
     7    43    44   ar
     8    44    45   ar
     9    45    46   ar
    10    46    47   ar
    11    47    48   ar
    12    48    49   ar
    13    49    50   ar
    14    28    29    1
    15    29    30    2
    16    29    31   am
    17    31    33    1
    18    33    34   ar
    19    34    35   ar
    20    35    36   ar
    21    36    37   ar
    22    37    38   ar
    23    38    39    1
    24     2     5    1
    25     5     6   ar
    26     6     7   ar
    27     7     8   ar
    28     8    12    1
    29    12    13    1
    30    13    14    1
    31    14    15    1
    32    15    18    1
    33    18    19   ar
    34    19    20   ar
    35    20    21   ar
    36    21    24    1
    37    24    25    1
    38    24    26    1
    39    24    27    1
    40    21    22   ar
    41    22    23   ar
    42    15    16    1
    43    16    17    1
    44     8     9   ar
    45     9    10   ar
    46    10    11    1
    47    50    42   ar
    48    38    33   ar
    49    10     5   ar
    50    50    45   ar
    51    17    12    1
    52    23    18   ar
    53     3     4    1
    54    44    51    1
    55    31    32    1
    56    39    40    1
@<TRIPOS>MOLECULE
*****
 51 56 0 0 0
SMALL
GASTEIGER

@<TRIPOS>ATOM
      1 O         -61.6810  -41.8453  -19.3574 O.2     1  UNL1       -0.2701
      2 C         -62.3465  -41.2107  -20.2206 C.2     1  UNL1        0.2483
      3 N         -63.2817  -40.2030  -19.8020 N.am    1  UNL1       -0.2945
      4 H         -63.8699  -39.7318  -20.5261 H       1  UNL1        0.1501
      5 C         -62.1931  -41.5482  -21.6554 C.ar    1  UNL1        0.0808
      6 C         -63.2809  -41.4290  -22.5366 C.ar    1  UNL1        0.0080
      7 C         -63.1520  -41.7944  -23.8787 C.ar    1  UNL1        0.0148
      8 C         -61.9329  -42.2884  -24.3719 C.ar    1  UNL1        0.0502
      9 C         -60.8387  -42.3880  -23.4951 C.ar    1  UNL1        0.0443
     10 C         -60.9633  -42.0192  -22.1526 C.ar    1  UNL1        0.1457
     11 F         -59.8895  -42.1596  -21.3341 F       1  UNL1       -0.2040
     12 N         -61.8056  -42.6808  -25.7563 N.pl3   1  UNL1       -0.3040
     13 C         -62.8830  -42.3851  -26.7113 C.3     1  UNL1        0.1123
     14 C         -62.3126  -42.1283  -28.1104 C.3     1  UNL1        0.1136
     15 N         -61.3700  -43.1828  -28.5215 N.pl3   1  UNL1       -0.2897
     16 C         -60.8962  -44.1614  -27.5322 C.3     1  UNL1        0.1136
     17 C         -60.6481  -43.4832  -26.1814 C.3     1  UNL1        0.1123
     18 C         -61.0166  -43.3459  -29.9138 C.ar    1  UNL1        0.1318
     19 C         -60.0016  -44.2331  -30.3133 C.ar    1  UNL1        0.0343
     20 C         -59.6896  -44.3619  -31.6676 C.ar    1  UNL1        0.0083
     21 C         -60.3977  -43.6273  -32.6298 C.ar    1  UNL1        0.0906
     22 C         -61.3882  -42.7363  -32.1908 C.ar    1  UNL1        0.1041
     23 N         -61.6731  -42.6257  -30.8666 N.ar    1  UNL1       -0.2292
     24 C         -60.0362  -43.7204  -34.0903 C.3     1  UNL1        0.4200
     25 F         -59.2060  -42.6747  -34.4552 F       1  UNL1       -0.1658
     26 F         -59.3779  -44.9088  -34.3556 F       1  UNL1       -0.1658
     27 F         -61.1902  -43.6655  -34.8492 F       1  UNL1       -0.1658
     28 C         -63.6778  -40.0319  -18.3998 C.3     1  UNL1        0.1535
     29 C         -64.5100  -38.7758  -18.2397 C.2     1  UNL1        0.2444
     30 O         -65.3197  -38.6734  -17.2781 O.2     1  UNL1       -0.2730
     31 N         -64.3317  -37.6751  -19.1493 N.am    1  UNL1       -0.2801
     32 H         -63.7539  -37.8270  -20.0064 H       1  UNL1        0.1550
     33 C         -64.9962  -36.4075  -19.0099 C.ar    1  UNL1        0.0876
     34 C         -64.4324  -35.3736  -18.2441 C.ar    1  UNL1        0.0384
     35 C         -65.0894  -34.1450  -18.1526 C.ar    1  UNL1        0.1004
     36 N         -66.2602  -33.9465  -18.8125 N.ar    1  UNL1       -0.2391
     37 C         -66.8225  -34.9204  -19.5752 C.ar    1  UNL1        0.1366
     38 C         -66.1993  -36.1696  -19.6953 C.ar    1  UNL1        0.1664
     39 O         -66.7720  -37.1710  -20.4785 O.3     1  UNL1       -0.5030
     40 H         -67.6408  -37.0215  -20.9782 H       1  UNL1        0.2923
     41 C         -64.3874  -41.3108  -17.8900 C.3     1  UNL1        0.0569
     42 C         -65.2643  -41.9512  -18.9352 C.ar    1  UNL1       -0.0017
     43 C         -66.3273  -41.3565  -19.6108 C.ar    1  UNL1        0.0681
     44 N         -66.8101  -42.1890  -20.5610 N.ar    1  UNL1       -0.3523
     45 C         -66.0602  -43.3022  -20.4969 C.ar    1  UNL1        0.0563
     46 C         -66.1598  -44.4350  -21.3039 C.ar    1  UNL1        0.0170
     47 C         -65.2496  -45.4844  -21.0806 C.ar    1  UNL1        0.0015
     48 C         -64.2762  -45.3822  -20.0628 C.ar    1  UNL1        0.0001
     49 C         -64.2034  -44.2295  -19.2606 C.ar    1  UNL1        0.0012
     50 C         -65.1098  -43.1987  -19.5138 C.ar    1  UNL1        0.0131
     51 H         -67.5959  -41.9949  -21.2208 H       1  UNL1        0.1660
@<TRIPOS>BOND
     1     1     2    2
     2     2     3   am
     3     3    28    1
     4    28    41    1
     5    41    42    1
     6    42    43   ar
     7    43    44   ar
     8    44    45   ar
     9    45    46   ar
    10    46    47   ar
    11    47    48   ar
    12    48    49   ar
    13    49    50   ar
    14    28    29    1
    15    29    30    2
    16    29    31   am
    17    31    33    1
    18    33    34   ar
    19    34    35   ar
    20    35    36   ar
    21    36    37   ar
    22    37    38   ar
    23    38    39    1
    24     2     5    1
    25     5     6   ar
    26     6     7   ar
    27     7     8   ar
    28     8    12    1
    29    12    13    1
    30    13    14    1
    31    14    15    1
    32    15    18    1
    33    18    19   ar
    34    19    20   ar
    35    20    21   ar
    36    21    24    1
    37    24    25    1
    38    24    26    1
    39    24    27    1
    40    21    22   ar
    41    22    23   ar
    42    15    16    1
    43    16    17    1
    44     8     9   ar
    45     9    10   ar
    46    10    11    1
    47    50    42   ar
    48    38    33   ar
    49    10     5   ar
    50    50    45   ar
    51    17    12    1
    52    23    18   ar
    53     3     4    1
    54    44    51    1
    55    31    32    1
    56    39    40    1
@<TRIPOS>MOLECULE
*****
 51 56 0 0 0
SMALL
GASTEIGER

@<TRIPOS>ATOM
      1 O         -60.8521  -46.9175  -25.4374 O.2     1  UNL1       -0.2701
      2 C         -62.0057  -46.4752  -25.1836 C.2     1  UNL1        0.2483
      3 N         -63.1546  -47.0847  -25.7951 N.am    1  UNL1       -0.2945
      4 H         -64.0965  -46.6658  -25.6232 H       1  UNL1        0.1501
      5 C         -62.1586  -45.2980  -24.2964 C.ar    1  UNL1        0.0808
      6 C         -62.2255  -45.4592  -22.9023 C.ar    1  UNL1        0.0080
      7 C         -62.4201  -44.3563  -22.0675 C.ar    1  UNL1        0.0148
      8 C         -62.5534  -43.0658  -22.6064 C.ar    1  UNL1        0.0502
      9 C         -62.4656  -42.9018  -23.9997 C.ar    1  UNL1        0.0443
     10 C         -62.2668  -44.0030  -24.8374 C.ar    1  UNL1        0.1457
     11 F         -62.2180  -43.8029  -26.1792 F       1  UNL1       -0.2040
     12 N         -62.7704  -41.9281  -21.7430 N.pl3   1  UNL1       -0.3040
     13 C         -61.7022  -40.9393  -21.5395 C.3     1  UNL1        0.1123
     14 C         -62.2913  -39.5420  -21.3178 C.3     1  UNL1        0.1136
     15 N         -63.3541  -39.5492  -20.2981 N.pl3   1  UNL1       -0.2897
     16 C         -63.8935  -40.8296  -19.8181 C.3     1  UNL1        0.1136
     17 C         -64.0206  -41.8265  -20.9741 C.3     1  UNL1        0.1123
     18 C         -63.7718  -38.3168  -19.6681 C.ar    1  UNL1        0.1318
     19 C         -64.8729  -38.2766  -18.7947 C.ar    1  UNL1        0.0343
     20 C         -65.2450  -37.0668  -18.2066 C.ar    1  UNL1        0.0083
     21 C         -64.5133  -35.8991  -18.4666 C.ar    1  UNL1        0.0906
     22 C         -63.4347  -35.9746  -19.3604 C.ar    1  UNL1        0.1041
     23 N         -63.0923  -37.1633  -19.9231 N.ar    1  UNL1       -0.2292
     24 C         -64.9355  -34.5775  -17.8771 C.3     1  UNL1        0.4200
     25 F         -63.9754  -33.6088  -18.1131 F       1  UNL1       -0.1658
     26 F         -66.1273  -34.1514  -18.4375 F       1  UNL1       -0.1658
     27 F         -65.1051  -34.7210  -16.5128 F       1  UNL1       -0.1658
     28 C         -63.0407  -48.0545  -26.8899 C.3     1  UNL1        0.1535
     29 C         -62.6301  -47.3546  -28.1695 C.2     1  UNL1        0.2444
     30 O         -63.2534  -47.5832  -29.2419 O.2     1  UNL1       -0.2730
     31 N         -61.5688  -46.3831  -28.1483 N.am    1  UNL1       -0.2801
     32 H         -60.9860  -46.3022  -27.2850 H       1  UNL1        0.1550
     33 C         -61.1856  -45.5931  -29.2872 C.ar    1  UNL1        0.0876
     34 C         -62.0972  -44.7204  -29.9041 C.ar    1  UNL1        0.0384
     35 C         -61.6847  -43.9461  -30.9904 C.ar    1  UNL1        0.1004
     36 N         -60.4047  -44.0262  -31.4385 N.ar    1  UNL1       -0.2391
     37 C         -59.4944  -44.8476  -30.8526 C.ar    1  UNL1        0.1366
     38 C         -59.8637  -45.6439  -29.7605 C.ar    1  UNL1        0.1664
     39 O         -58.9322  -46.4865  -29.1552 O.3     1  UNL1       -0.5030
     40 H         -57.9749  -46.5410  -29.4830 H       1  UNL1        0.2923
     41 C         -62.0860  -49.2040  -26.4821 C.3     1  UNL1        0.0569
     42 C         -62.5383  -49.9295  -25.2409 C.ar    1  UNL1       -0.0017
     43 C         -63.8520  -50.1916  -24.8596 C.ar    1  UNL1        0.0681
     44 N         -63.8783  -50.9655  -23.7508 N.ar    1  UNL1       -0.3523
     45 C         -62.5946  -51.1999  -23.4296 C.ar    1  UNL1        0.0563
     46 C         -62.1164  -51.9777  -22.3757 C.ar    1  UNL1        0.0170
     47 C         -60.7229  -52.1118  -22.2360 C.ar    1  UNL1        0.0015
     48 C         -59.8485  -51.4672  -23.1383 C.ar    1  UNL1        0.0001
     49 C         -60.3599  -50.6843  -24.1886 C.ar    1  UNL1        0.0012
     50 C         -61.7464  -50.5803  -24.3112 C.ar    1  UNL1        0.0131
     51 H         -64.7271  -51.3212  -23.2573 H       1  UNL1        0.1660
@<TRIPOS>BOND
     1     1     2    2
     2     2     3   am
     3     3    28    1
     4    28    41    1
     5    41    42    1
     6    42    43   ar
     7    43    44   ar
     8    44    45   ar
     9    45    46   ar
    10    46    47   ar
    11    47    48   ar
    12    48    49   ar
    13    49    50   ar
    14    28    29    1
    15    29    30    2
    16    29    31   am
    17    31    33    1
    18    33    34   ar
    19    34    35   ar
    20    35    36   ar
    21    36    37   ar
    22    37    38   ar
    23    38    39    1
    24     2     5    1
    25     5     6   ar
    26     6     7   ar
    27     7     8   ar
    28     8    12    1
    29    12    13    1
    30    13    14    1
    31    14    15    1
    32    15    18    1
    33    18    19   ar
    34    19    20   ar
    35    20    21   ar
    36    21    24    1
    37    24    25    1
    38    24    26    1
    39    24    27    1
    40    21    22   ar
    41    22    23   ar
    42    15    16    1
    43    16    17    1
    44     8     9   ar
    45     9    10   ar
    46    10    11    1
    47    50    42   ar
    48    38    33   ar
    49    10     5   ar
    50    50    45   ar
    51    17    12    1
    52    23    18   ar
    53     3     4    1
    54    44    51    1
    55    31    32    1
    56    39    40    1
@<TRIPOS>MOLECULE
*****
 51 56 0 0 0
SMALL
GASTEIGER

@<TRIPOS>ATOM
      1 O         -60.8876  -47.4133  -24.7717 O.2     1  UNL1       -0.2701
      2 C         -61.9450  -46.7524  -24.9616 C.2     1  UNL1        0.2483
      3 N         -62.9654  -47.2719  -25.8300 N.am    1  UNL1       -0.2945
      4 H         -63.8062  -46.6829  -26.0255 H       1  UNL1        0.1501
      5 C         -62.1002  -45.4227  -24.3261 C.ar    1  UNL1        0.0808
      6 C         -62.1741  -45.3044  -22.9280 C.ar    1  UNL1        0.0080
      7 C         -62.3709  -44.0577  -22.3294 C.ar    1  UNL1        0.0148
      8 C         -62.4994  -42.8995  -23.1140 C.ar    1  UNL1        0.0502
      9 C         -62.4046  -43.0150  -24.5117 C.ar    1  UNL1        0.0443
     10 C         -62.2035  -44.2605  -25.1135 C.ar    1  UNL1        0.1457
     11 F         -62.1478  -44.3303  -26.4681 F       1  UNL1       -0.2040
     12 N         -62.7187  -41.6131  -22.4944 N.pl3   1  UNL1       -0.3040
     13 C         -63.6631  -40.6568  -23.0890 C.3     1  UNL1        0.1123
     14 C         -64.3354  -39.8110  -22.0021 C.3     1  UNL1        0.1136
     15 N         -63.3533  -39.2369  -21.0666 N.pl3   1  UNL1       -0.2897
     16 C         -61.9598  -39.7040  -21.0971 C.3     1  UNL1        0.1136
     17 C         -61.9048  -41.2162  -21.3349 C.3     1  UNL1        0.1123
     18 C         -63.7156  -38.1247  -20.2170 C.ar    1  UNL1        0.1318
     19 C         -64.8565  -38.1704  -19.3964 C.ar    1  UNL1        0.0343
     20 C         -65.1727  -37.0756  -18.5906 C.ar    1  UNL1        0.0083
     21 C         -64.3468  -35.9422  -18.5808 C.ar    1  UNL1        0.0906
     22 C         -63.2298  -35.9252  -19.4293 C.ar    1  UNL1        0.1041
     23 N         -62.9430  -37.0020  -20.2072 N.ar    1  UNL1       -0.2292
     24 C         -64.7051  -34.7344  -17.7529 C.3     1  UNL1        0.4200
     25 F         -65.8495  -34.1291  -18.2427 F       1  UNL1       -0.1658
     26 F         -64.9358  -35.0957  -16.4367 F       1  UNL1       -0.1658
     27 F         -63.6624  -33.8280  -17.7952 F       1  UNL1       -0.1658
     28 C         -62.7421  -48.4328  -26.6989 C.3     1  UNL1        0.1535
     29 C         -63.0044  -49.7159  -25.9369 C.2     1  UNL1        0.2444
     30 O         -63.6964  -50.6309  -26.4609 O.2     1  UNL1       -0.2730
     31 N         -62.4125  -49.9154  -24.6406 N.am    1  UNL1       -0.2801
     32 H         -61.9518  -49.1022  -24.1738 H       1  UNL1        0.1550
     33 C         -62.5166  -51.1403  -23.8944 C.ar    1  UNL1        0.0876
     34 C         -63.6689  -51.9401  -23.9708 C.ar    1  UNL1        0.0384
     35 C         -63.7265  -53.1382  -23.2559 C.ar    1  UNL1        0.1004
     36 N         -62.6680  -53.5345  -22.5022 N.ar    1  UNL1       -0.2391
     37 C         -61.5327  -52.7921  -22.4214 C.ar    1  UNL1        0.1366
     38 C         -61.4304  -51.5823  -23.1207 C.ar    1  UNL1        0.1664
     39 O         -60.2665  -50.8185  -23.0420 O.3     1  UNL1       -0.5030
     40 H         -59.4730  -51.1171  -22.4871 H       1  UNL1        0.2923
     41 C         -63.5873  -48.2985  -27.9898 C.3     1  UNL1        0.0569
     42 C         -63.2906  -47.0352  -28.7564 C.ar    1  UNL1       -0.0017
     43 C         -64.2119  -46.2187  -29.4079 C.ar    1  UNL1        0.0681
     44 N         -63.6055  -45.1097  -29.8889 N.ar    1  UNL1       -0.3523
     45 C         -62.3109  -45.2138  -29.5440 C.ar    1  UNL1        0.0563
     46 C         -61.2940  -44.2927  -29.7931 C.ar    1  UNL1        0.0170
     47 C         -60.0042  -44.5913  -29.3169 C.ar    1  UNL1        0.0015
     48 C         -59.7611  -45.7931  -28.6166 C.ar    1  UNL1        0.0001
     49 C         -60.8054  -46.7060  -28.3852 C.ar    1  UNL1        0.0012
     50 C         -62.0774  -46.3772  -28.8568 C.ar    1  UNL1        0.0131
     51 H         -64.0590  -44.3251  -30.4078 H       1  UNL1        0.1660
@<TRIPOS>BOND
     1     1     2    2
     2     2     3   am
     3     3    28    1
     4    28    41    1
     5    41    42    1
     6    42    43   ar
     7    43    44   ar
     8    44    45   ar
     9    45    46   ar
    10    46    47   ar
    11    47    48   ar
    12    48    49   ar
    13    49    50   ar
    14    28    29    1
    15    29    30    2
    16    29    31   am
    17    31    33    1
    18    33    34   ar
    19    34    35   ar
    20    35    36   ar
    21    36    37   ar
    22    37    38   ar
    23    38    39    1
    24     2     5    1
    25     5     6   ar
    26     6     7   ar
    27     7     8   ar
    28     8    12    1
    29    12    13    1
    30    13    14    1
    31    14    15    1
    32    15    18    1
    33    18    19   ar
    34    19    20   ar
    35    20    21   ar
    36    21    24    1
    37    24    25    1
    38    24    26    1
    39    24    27    1
    40    21    22   ar
    41    22    23   ar
    42    15    16    1
    43    16    17    1
    44     8     9   ar
    45     9    10   ar
    46    10    11    1
    47    50    42   ar
    48    38    33   ar
    49    10     5   ar
    50    50    45   ar
    51    17    12    1
    52    23    18   ar
    53     3     4    1
    54    44    51    1
    55    31    32    1
    56    39    40    1
@<TRIPOS>MOLECULE
*****
 51 56 0 0 0
SMALL
GASTEIGER

@<TRIPOS>ATOM
      1 O         -59.3698  -47.8354  -23.6593 O.2     1  UNL1       -0.2701
      2 C         -60.5547  -47.5442  -23.3396 C.2     1  UNL1        0.2483
      3 N         -61.5837  -48.5437  -23.4260 N.am    1  UNL1       -0.2945
      4 H         -62.5702  -48.2681  -23.2179 H       1  UNL1        0.1501
      5 C         -60.8812  -46.1588  -22.9270 C.ar    1  UNL1        0.0808
      6 C         -61.4918  -45.9090  -21.6865 C.ar    1  UNL1        0.0080
      7 C         -61.8462  -44.6093  -21.3174 C.ar    1  UNL1        0.0148
      8 C         -61.5994  -43.5281  -22.1798 C.ar    1  UNL1        0.0502
      9 C         -60.9696  -43.7753  -23.4119 C.ar    1  UNL1        0.0443
     10 C         -60.6101  -45.0743  -23.7824 C.ar    1  UNL1        0.1457
     11 F         -60.0309  -45.2715  -24.9942 F       1  UNL1       -0.2040
     12 N         -61.9807  -42.1865  -21.8034 N.pl3   1  UNL1       -0.3040
     13 C         -63.0327  -41.4799  -22.5478 C.3     1  UNL1        0.1123
     14 C         -63.8118  -40.5377  -21.6237 C.3     1  UNL1        0.1136
     15 N         -62.9145  -39.6844  -20.8262 N.pl3   1  UNL1       -0.2897
     16 C         -61.4736  -39.9737  -20.7936 C.3     1  UNL1        0.1136
     17 C         -61.2298  -41.4854  -20.7503 C.3     1  UNL1        0.1123
     18 C         -63.4175  -38.4879  -20.1894 C.ar    1  UNL1        0.1318
     19 C         -64.5459  -38.5226  -19.3513 C.ar    1  UNL1        0.0343
     20 C         -65.0009  -37.3455  -18.7553 C.ar    1  UNL1        0.0083
     21 C         -64.3254  -36.1357  -18.9721 C.ar    1  UNL1        0.0906
     22 C         -63.2170  -36.1371  -19.8320 C.ar    1  UNL1        0.1041
     23 N         -62.7936  -37.2952  -20.4032 N.ar    1  UNL1       -0.2292
     24 C         -64.8366  -34.8496  -18.3745 C.3     1  UNL1        0.4200
     25 F         -65.8031  -34.2837  -19.1878 F       1  UNL1       -0.1658
     26 F         -65.3979  -35.0787  -17.1301 F       1  UNL1       -0.1658
     27 F         -63.7859  -33.9618  -18.2383 F       1  UNL1       -0.1658
     28 C         -61.3733  -49.8331  -24.0934 C.3     1  UNL1        0.1535
     29 C         -62.2355  -50.9017  -23.4527 C.2     1  UNL1        0.2444
     30 O         -62.3114  -50.9822  -22.1963 O.2     1  UNL1       -0.2730
     31 N         -63.0159  -51.7854  -24.2778 N.am    1  UNL1       -0.2801
     32 H         -62.8427  -51.7860  -25.3081 H       1  UNL1        0.1550
     33 C         -63.9427  -52.7541  -23.7576 C.ar    1  UNL1        0.0876
     34 C         -65.2440  -52.8634  -24.2753 C.ar    1  UNL1        0.0384
     35 C         -66.1098  -53.8339  -23.7674 C.ar    1  UNL1        0.1004
     36 N         -65.6907  -54.6769  -22.7879 N.ar    1  UNL1       -0.2391
     37 C         -64.4329  -54.6082  -22.2783 C.ar    1  UNL1        0.1366
     38 C         -63.5301  -53.6494  -22.7567 C.ar    1  UNL1        0.1664
     39 O         -62.2379  -53.5769  -22.2378 O.3     1  UNL1       -0.5030
     40 H         -61.9211  -54.2105  -21.5133 H       1  UNL1        0.2923
     41 C         -61.6059  -49.6848  -25.6175 C.3     1  UNL1        0.0569
     42 C         -62.2769  -48.3862  -25.9848 C.ar    1  UNL1       -0.0017
     43 C         -63.4972  -47.9136  -25.5080 C.ar    1  UNL1        0.0681
     44 N         -63.7305  -46.6612  -25.9619 N.ar    1  UNL1       -0.3523
     45 C         -62.6679  -46.3347  -26.7170 C.ar    1  UNL1        0.0563
     46 C         -62.4381  -45.1263  -27.3739 C.ar    1  UNL1        0.0170
     47 C         -61.2374  -44.9864  -28.0938 C.ar    1  UNL1        0.0015
     48 C         -60.3073  -46.0476  -28.1462 C.ar    1  UNL1        0.0001
     49 C         -60.5690  -47.2571  -27.4783 C.ar    1  UNL1        0.0012
     50 C         -61.7615  -47.3628  -26.7605 C.ar    1  UNL1        0.0131
     51 H         -64.5618  -46.0653  -25.7515 H       1  UNL1        0.1660
@<TRIPOS>BOND
     1     1     2    2
     2     2     3   am
     3     3    28    1
     4    28    41    1
     5    41    42    1
     6    42    43   ar
     7    43    44   ar
     8    44    45   ar
     9    45    46   ar
    10    46    47   ar
    11    47    48   ar
    12    48    49   ar
    13    49    50   ar
    14    28    29    1
    15    29    30    2
    16    29    31   am
    17    31    33    1
    18    33    34   ar
    19    34    35   ar
    20    35    36   ar
    21    36    37   ar
    22    37    38   ar
    23    38    39    1
    24     2     5    1
    25     5     6   ar
    26     6     7   ar
    27     7     8   ar
    28     8    12    1
    29    12    13    1
    30    13    14    1
    31    14    15    1
    32    15    18    1
    33    18    19   ar
    34    19    20   ar
    35    20    21   ar
    36    21    24    1
    37    24    25    1
    38    24    26    1
    39    24    27    1
    40    21    22   ar
    41    22    23   ar
    42    15    16    1
    43    16    17    1
    44     8     9   ar
    45     9    10   ar
    46    10    11    1
    47    50    42   ar
    48    38    33   ar
    49    10     5   ar
    50    50    45   ar
    51    17    12    1
    52    23    18   ar
    53     3     4    1
    54    44    51    1
    55    31    32    1
    56    39    40    1
@<TRIPOS>MOLECULE
*****
 51 56 0 0 0
SMALL
GASTEIGER

@<TRIPOS>ATOM
      1 O         -59.9427  -46.8843  -24.9659 O.2     1  UNL1       -0.2701
      2 C         -60.9207  -46.1332  -25.2307 C.2     1  UNL1        0.2483
      3 N         -61.6695  -46.3356  -26.4405 N.am    1  UNL1       -0.2945
      4 H         -62.4363  -45.6652  -26.6747 H       1  UNL1        0.1501
      5 C         -61.2546  -45.0171  -24.3146 C.ar    1  UNL1        0.0808
      6 C         -61.8467  -45.2717  -23.0662 C.ar    1  UNL1        0.0080
      7 C         -62.2082  -44.2186  -22.2227 C.ar    1  UNL1        0.0148
      8 C         -61.9872  -42.8856  -22.6073 C.ar    1  UNL1        0.0502
      9 C         -61.3758  -42.6316  -23.8473 C.ar    1  UNL1        0.0443
     10 C         -61.0091  -43.6834  -24.6917 C.ar    1  UNL1        0.1457
     11 F         -60.4484  -43.3918  -25.8931 F       1  UNL1       -0.2040
     12 N         -62.3759  -41.7970  -21.7409 N.pl3   1  UNL1       -0.3040
     13 C         -61.3561  -40.9081  -21.1666 C.3     1  UNL1        0.1123
     14 C         -61.9083  -39.4889  -20.9942 C.3     1  UNL1        0.1136
     15 N         -63.2125  -39.4861  -20.3100 N.pl3   1  UNL1       -0.2897
     16 C         -63.9322  -40.7522  -20.1101 C.3     1  UNL1        0.1136
     17 C         -63.7840  -41.6546  -21.3389 C.3     1  UNL1        0.1123
     18 C         -63.7234  -38.2721  -19.7139 C.ar    1  UNL1        0.1318
     19 C         -64.8235  -38.2919  -18.8385 C.ar    1  UNL1        0.0343
     20 C         -65.2871  -37.0981  -18.2838 C.ar    1  UNL1        0.0083
     21 C         -64.6478  -35.8853  -18.5792 C.ar    1  UNL1        0.0906
     22 C         -63.5674  -35.9030  -19.4738 C.ar    1  UNL1        0.1041
     23 N         -63.1350  -37.0774  -20.0037 N.ar    1  UNL1       -0.2292
     24 C         -65.1701  -34.5839  -18.0260 C.3     1  UNL1        0.4200
     25 F         -64.2430  -33.5713  -18.2031 F       1  UNL1       -0.1658
     26 F         -66.3407  -34.2159  -18.6666 F       1  UNL1       -0.1658
     27 F         -65.4230  -34.7322  -16.6753 F       1  UNL1       -0.1658
     28 C         -61.2106  -47.2305  -27.5086 C.3     1  UNL1        0.1535
     29 C         -62.3970  -47.8323  -28.2340 C.2     1  UNL1        0.2444
     30 O         -62.9092  -48.9086  -27.8217 O.2     1  UNL1       -0.2730
     31 N         -62.9777  -47.1438  -29.3561 N.am    1  UNL1       -0.2801
     32 H         -62.4655  -46.3264  -29.7573 H       1  UNL1        0.1550
     33 C         -64.1670  -47.5829  -30.0349 C.ar    1  UNL1        0.0876
     34 C         -64.7164  -48.8518  -29.7875 C.ar    1  UNL1        0.0384
     35 C         -65.8884  -49.2364  -30.4419 C.ar    1  UNL1        0.1004
     36 N         -66.5012  -48.3821  -31.3022 N.ar    1  UNL1       -0.2391
     37 C         -66.0047  -47.1416  -31.5498 C.ar    1  UNL1        0.1366
     38 C         -64.8304  -46.7132  -30.9166 C.ar    1  UNL1        0.1664
     39 O         -64.3187  -45.4405  -31.1663 O.3     1  UNL1       -0.5030
     40 H         -64.7794  -44.7990  -31.8012 H       1  UNL1        0.2923
     41 C         -60.2316  -46.4795  -28.4448 C.3     1  UNL1        0.0569
     42 C         -60.9021  -45.3908  -29.2429 C.ar    1  UNL1       -0.0017
     43 C         -61.9816  -44.6071  -28.8425 C.ar    1  UNL1        0.0681
     44 N         -62.2426  -43.6530  -29.7649 N.ar    1  UNL1       -0.3523
     45 C         -61.3360  -43.8220  -30.7423 C.ar    1  UNL1        0.0563
     46 C         -61.1855  -43.0539  -31.8964 C.ar    1  UNL1        0.0170
     47 C         -60.1453  -43.3922  -32.7812 C.ar    1  UNL1        0.0015
     48 C         -59.2931  -44.4824  -32.4995 C.ar    1  UNL1        0.0001
     49 C         -59.4727  -45.2426  -31.3302 C.ar    1  UNL1        0.0012
     50 C         -60.5037  -44.8757  -30.4639 C.ar    1  UNL1        0.0131
     51 H         -62.9881  -42.9235  -29.7152 H       1  UNL1        0.1660
@<TRIPOS>BOND
     1     1     2    2
     2     2     3   am
     3     3    28    1
     4    28    41    1
     5    41    42    1
     6    42    43   ar
     7    43    44   ar
     8    44    45   ar
     9    45    46   ar
    10    46    47   ar
    11    47    48   ar
    12    48    49   ar
    13    49    50   ar
    14    28    29    1
    15    29    30    2
    16    29    31   am
    17    31    33    1
    18    33    34   ar
    19    34    35   ar
    20    35    36   ar
    21    36    37   ar
    22    37    38   ar
    23    38    39    1
    24     2     5    1
    25     5     6   ar
    26     6     7   ar
    27     7     8   ar
    28     8    12    1
    29    12    13    1
    30    13    14    1
    31    14    15    1
    32    15    18    1
    33    18    19   ar
    34    19    20   ar
    35    20    21   ar
    36    21    24    1
    37    24    25    1
    38    24    26    1
    39    24    27    1
    40    21    22   ar
    41    22    23   ar
    42    15    16    1
    43    16    17    1
    44     8     9   ar
    45     9    10   ar
    46    10    11    1
    47    50    42   ar
    48    38    33   ar
    49    10     5   ar
    50    50    45   ar
    51    17    12    1
    52    23    18   ar
    53     3     4    1
    54    44    51    1
    55    31    32    1
    56    39    40    1
@<TRIPOS>MOLECULE
*****
 51 56 0 0 0
SMALL
GASTEIGER

@<TRIPOS>ATOM
      1 O         -59.9122  -47.1454  -23.2954 O.2     1  UNL1       -0.2701
      2 C         -60.8296  -46.4000  -23.7353 C.2     1  UNL1        0.2483
      3 N         -61.5045  -46.7433  -24.9568 N.am    1  UNL1       -0.2945
      4 H         -62.2178  -46.0821  -25.3394 H       1  UNL1        0.1501
      5 C         -61.1659  -45.1504  -23.0130 C.ar    1  UNL1        0.0808
      6 C         -61.9024  -45.1937  -21.8173 C.ar    1  UNL1        0.0080
      7 C         -62.2636  -44.0143  -21.1617 C.ar    1  UNL1        0.0148
      8 C         -61.8980  -42.7634  -21.6861 C.ar    1  UNL1        0.0502
      9 C         -61.1433  -42.7207  -22.8712 C.ar    1  UNL1        0.0443
     10 C         -60.7767  -43.8993  -23.5273 C.ar    1  UNL1        0.1457
     11 F         -60.0733  -43.8109  -24.6850 F       1  UNL1       -0.2040
     12 N         -62.2858  -41.5440  -21.0154 N.pl3   1  UNL1       -0.3040
     13 C         -61.5017  -40.3151  -21.2026 C.3     1  UNL1        0.1123
     14 C         -62.4040  -39.0788  -21.1258 C.3     1  UNL1        0.1136
     15 N         -63.2714  -39.1047  -19.9357 N.pl3   1  UNL1       -0.2897
     16 C         -63.3772  -40.3355  -19.1389 C.3     1  UNL1        0.1136
     17 C         -63.3963  -41.5661  -20.0507 C.3     1  UNL1        0.1123
     18 C         -63.9087  -37.8940  -19.4684 C.ar    1  UNL1        0.1318
     19 C         -65.2766  -37.6541  -19.6880 C.ar    1  UNL1        0.0343
     20 C         -65.8548  -36.4725  -19.2215 C.ar    1  UNL1        0.0083
     21 C         -65.0828  -35.5367  -18.5179 C.ar    1  UNL1        0.0906
     22 C         -63.7170  -35.8014  -18.3378 C.ar    1  UNL1        0.1041
     23 N         -63.1752  -36.9576  -18.8032 N.ar    1  UNL1       -0.2292
     24 C         -65.6841  -34.2349  -18.0531 C.3     1  UNL1        0.4200
     25 F         -64.8947  -33.1664  -18.4418 F       1  UNL1       -0.1658
     26 F         -66.9464  -34.0597  -18.5934 F       1  UNL1       -0.1658
     27 F         -65.7816  -34.2451  -16.6743 F       1  UNL1       -0.1658
     28 C         -61.0218  -47.8014  -25.8510 C.3     1  UNL1        0.1535
     29 C         -61.5198  -49.1529  -25.3805 C.2     1  UNL1        0.2444
     30 O         -62.4362  -49.7436  -26.0146 O.2     1  UNL1       -0.2730
     31 N         -60.9048  -49.7901  -24.2464 N.am    1  UNL1       -0.2801
     32 H         -60.2402  -49.2336  -23.6632 H       1  UNL1        0.1550
     33 C         -61.2369  -51.1151  -23.7967 C.ar    1  UNL1        0.0876
     34 C         -62.3811  -51.3504  -23.0164 C.ar    1  UNL1        0.0384
     35 C         -62.6907  -52.6530  -22.6202 C.ar    1  UNL1        0.1004
     36 N         -61.8973  -53.6884  -22.9997 N.ar    1  UNL1       -0.2391
     37 C         -60.7935  -53.4961  -23.7686 C.ar    1  UNL1        0.1366
     38 C         -60.4433  -52.2061  -24.1888 C.ar    1  UNL1        0.1664
     39 O         -59.3127  -52.0047  -24.9795 O.3     1  UNL1       -0.5030
     40 H         -58.7247  -52.7770  -25.2704 H       1  UNL1        0.2923
     41 C         -61.4107  -47.4763  -27.3146 C.3     1  UNL1        0.0569
     42 C         -60.7486  -46.2257  -27.8334 C.ar    1  UNL1       -0.0017
     43 C         -59.6404  -46.1557  -28.6741 C.ar    1  UNL1        0.0681
     44 N         -59.3946  -44.8738  -29.0285 N.ar    1  UNL1       -0.3523
     45 C         -60.3391  -44.1328  -28.4247 C.ar    1  UNL1        0.0563
     46 C         -60.5164  -42.7527  -28.5167 C.ar    1  UNL1        0.0170
     47 C         -61.5943  -42.1795  -27.8174 C.ar    1  UNL1        0.0015
     48 C         -62.4567  -42.9882  -27.0451 C.ar    1  UNL1        0.0001
     49 C         -62.2496  -44.3769  -26.9666 C.ar    1  UNL1        0.0012
     50 C         -61.1809  -44.9200  -27.6817 C.ar    1  UNL1        0.0131
     51 H         -58.6338  -44.5349  -29.6584 H       1  UNL1        0.1660
@<TRIPOS>BOND
     1     1     2    2
     2     2     3   am
     3     3    28    1
     4    28    41    1
     5    41    42    1
     6    42    43   ar
     7    43    44   ar
     8    44    45   ar
     9    45    46   ar
    10    46    47   ar
    11    47    48   ar
    12    48    49   ar
    13    49    50   ar
    14    28    29    1
    15    29    30    2
    16    29    31   am
    17    31    33    1
    18    33    34   ar
    19    34    35   ar
    20    35    36   ar
    21    36    37   ar
    22    37    38   ar
    23    38    39    1
    24     2     5    1
    25     5     6   ar
    26     6     7   ar
    27     7     8   ar
    28     8    12    1
    29    12    13    1
    30    13    14    1
    31    14    15    1
    32    15    18    1
    33    18    19   ar
    34    19    20   ar
    35    20    21   ar
    36    21    24    1
    37    24    25    1
    38    24    26    1
    39    24    27    1
    40    21    22   ar
    41    22    23   ar
    42    15    16    1
    43    16    17    1
    44     8     9   ar
    45     9    10   ar
    46    10    11    1
    47    50    42   ar
    48    38    33   ar
    49    10     5   ar
    50    50    45   ar
    51    17    12    1
    52    23    18   ar
    53     3     4    1
    54    44    51    1
    55    31    32    1
    56    39    40    1
@<TRIPOS>MOLECULE
*****
 51 56 0 0 0
SMALL
GASTEIGER

@<TRIPOS>ATOM
      1 O         -60.3785  -42.0621  -21.3158 O.2     1  UNL1       -0.2701
      2 C         -61.3837  -41.7107  -21.9917 C.2     1  UNL1        0.2483
      3 N         -62.2119  -40.6303  -21.5309 N.am    1  UNL1       -0.2945
      4 H         -63.0755  -40.3943  -22.0700 H       1  UNL1        0.1501
      5 C         -61.7283  -42.4508  -23.2286 C.ar    1  UNL1        0.0808
      6 C         -62.3214  -41.7868  -24.3155 C.ar    1  UNL1        0.0080
      7 C         -62.6929  -42.4920  -25.4626 C.ar    1  UNL1        0.0148
      8 C         -62.4813  -43.8780  -25.5503 C.ar    1  UNL1        0.0502
      9 C         -61.8690  -44.5388  -24.4713 C.ar    1  UNL1        0.0443
     10 C         -61.4923  -43.8352  -23.3238 C.ar    1  UNL1        0.1457
     11 F         -60.9311  -44.5181  -22.2934 F       1  UNL1       -0.2040
     12 N         -62.8805  -44.6087  -26.7309 N.pl3   1  UNL1       -0.3040
     13 C         -62.6527  -46.0582  -26.8162 C.3     1  UNL1        0.1123
     14 C         -63.7520  -46.7323  -27.6443 C.3     1  UNL1        0.1136
     15 N         -63.9710  -46.0463  -28.9290 N.pl3   1  UNL1       -0.2897
     16 C         -63.3565  -44.7321  -29.1663 C.3     1  UNL1        0.1136
     17 C         -63.4052  -43.8786  -27.8954 C.3     1  UNL1        0.1123
     18 C         -64.6682  -46.7138  -30.0053 C.ar    1  UNL1        0.1318
     19 C         -64.9825  -48.0826  -29.9374 C.ar    1  UNL1        0.0343
     20 C         -65.6563  -48.6906  -30.9977 C.ar    1  UNL1        0.0083
     21 C         -66.0384  -47.9381  -32.1178 C.ar    1  UNL1        0.0906
     22 C         -65.6877  -46.5805  -32.1587 C.ar    1  UNL1        0.1041
     23 N         -65.0292  -46.0105  -31.1155 N.ar    1  UNL1       -0.2292
     24 C         -66.7217  -48.5941  -33.2905 C.3     1  UNL1        0.4200
     25 F         -67.9034  -47.9407  -33.5948 F       1  UNL1       -0.1658
     26 F         -65.9084  -48.5617  -34.4101 F       1  UNL1       -0.1658
     27 F         -67.0026  -49.9104  -32.9757 F       1  UNL1       -0.1658
     28 C         -62.0837  -40.0604  -20.1851 C.3     1  UNL1        0.1535
     29 C         -62.6789  -38.6675  -20.1470 C.2     1  UNL1        0.2444
     30 O         -62.4979  -37.8771  -21.1130 O.2     1  UNL1       -0.2730
     31 N         -63.5021  -38.2682  -19.0363 N.am    1  UNL1       -0.2801
     32 H         -63.5350  -38.8859  -18.1944 H       1  UNL1        0.1550
     33 C         -64.1949  -37.0100  -18.9668 C.ar    1  UNL1        0.0876
     34 C         -63.6056  -35.8905  -18.3562 C.ar    1  UNL1        0.0384
     35 C         -64.2936  -34.6757  -18.3309 C.ar    1  UNL1        0.1004
     36 N         -65.5200  -34.5740  -18.9064 N.ar    1  UNL1       -0.2391
     37 C         -66.1096  -35.6335  -19.5200 C.ar    1  UNL1        0.1366
     38 C         -65.4569  -36.8724  -19.5687 C.ar    1  UNL1        0.1664
     39 O         -66.0575  -37.9615  -20.1990 O.3     1  UNL1       -0.5030
     40 H         -66.9685  -37.8848  -20.6362 H       1  UNL1        0.2923
     41 C         -62.7009  -41.0235  -19.1410 C.3     1  UNL1        0.0569
     42 C         -64.0346  -41.5783  -19.5711 C.ar    1  UNL1       -0.0017
     43 C         -65.2251  -40.8701  -19.7165 C.ar    1  UNL1        0.0681
     44 N         -66.1899  -41.6657  -20.2315 N.ar    1  UNL1       -0.3523
     45 C         -65.6206  -42.8686  -20.4180 C.ar    1  UNL1        0.0563
     46 C         -66.2137  -44.0086  -20.9594 C.ar    1  UNL1        0.0170
     47 C         -65.4215  -45.1641  -21.0896 C.ar    1  UNL1        0.0015
     48 C         -64.0719  -45.1562  -20.6741 C.ar    1  UNL1        0.0001
     49 C         -63.5025  -43.9930  -20.1263 C.ar    1  UNL1        0.0012
     50 C         -64.3078  -42.8577  -20.0220 C.ar    1  UNL1        0.0131
     51 H         -67.1727  -41.3917  -20.4539 H       1  UNL1        0.1660
@<TRIPOS>BOND
     1     1     2    2
     2     2     3   am
     3     3    28    1
     4    28    41    1
     5    41    42    1
     6    42    43   ar
     7    43    44   ar
     8    44    45   ar
     9    45    46   ar
    10    46    47   ar
    11    47    48   ar
    12    48    49   ar
    13    49    50   ar
    14    28    29    1
    15    29    30    2
    16    29    31   am
    17    31    33    1
    18    33    34   ar
    19    34    35   ar
    20    35    36   ar
    21    36    37   ar
    22    37    38   ar
    23    38    39    1
    24     2     5    1
    25     5     6   ar
    26     6     7   ar
    27     7     8   ar
    28     8    12    1
    29    12    13    1
    30    13    14    1
    31    14    15    1
    32    15    18    1
    33    18    19   ar
    34    19    20   ar
    35    20    21   ar
    36    21    24    1
    37    24    25    1
    38    24    26    1
    39    24    27    1
    40    21    22   ar
    41    22    23   ar
    42    15    16    1
    43    16    17    1
    44     8     9   ar
    45     9    10   ar
    46    10    11    1
    47    50    42   ar
    48    38    33   ar
    49    10     5   ar
    50    50    45   ar
    51    17    12    1
    52    23    18   ar
    53     3     4    1
    54    44    51    1
    55    31    32    1
    56    39    40    1
