@<TRIPOS>MOLECULE
*****
 40 43 0 0 0
SMALL
GASTEIGER

@<TRIPOS>ATOM
      1 C         -28.2136   46.5448   -4.8458 C.ar    1  UNL1        0.0053
      2 C         -29.2238   45.8346   -5.5052 C.ar    1  UNL1        0.0033
      3 C         -29.9025   46.4180   -6.5747 C.ar    1  UNL1        0.0382
      4 C         -29.5615   47.7028   -7.0051 C.ar    1  UNL1        0.1529
      5 C         -28.5063   48.4029   -6.3998 C.ar    1  UNL1        0.0882
      6 C         -27.8617   47.8288   -5.2852 C.ar    1  UNL1        0.0181
      7 N         -28.1000   49.6717   -6.9640 N.am    1  UNL1       -0.2512
      8 C         -29.0162   50.3557   -7.8461 C.2     1  UNL1        0.2698
      9 O         -28.7640   51.5334   -8.2261 O.2     1  UNL1       -0.2704
     10 C         -30.3062   49.6968   -8.2957 C.3     1  UNL1        0.2197
     11 C         -31.4685   50.2700   -7.4636 C.3     1  UNL1        0.0579
     12 O         -30.2701   48.2846   -8.0564 O.3     1  UNL1       -0.4686
     13 C         -28.0502   45.8689   -2.4247 C.ar    1  UNL1        0.0645
     14 N         -27.3546   45.2698   -1.4219 N.ar    1  UNL1       -0.2183
     15 C         -26.1225   44.7408   -1.6286 C.ar    1  UNL1        0.2145
     16 N         -25.4208   44.1249   -0.5514 N.pl3   1  UNL1       -0.3274
     17 N         -25.5591   44.7985   -2.8613 N.ar    1  UNL1       -0.1995
     18 C         -26.2032   45.3737   -3.9099 C.ar    1  UNL1        0.1293
     19 N         -25.5501   45.4133   -5.1839 N.pl3   1  UNL1       -0.3425
     20 C         -27.4878   45.9245   -3.7198 C.ar    1  UNL1        0.0449
     21 H         -25.8490   44.0770    0.3996 H       1  UNL1        0.1452
     22 H         -24.4723   43.7157   -0.7037 H       1  UNL1        0.1452
     23 H         -25.9842   45.8643   -6.0190 H       1  UNL1        0.1437
     24 H         -24.6001   44.9944   -5.2941 H       1  UNL1        0.1437
     25 C         -29.3551   47.8241   -1.5811 C.3     1  UNL1        0.0067
     26 C         -29.4277   46.3982   -2.1168 C.3     1  UNL1        0.0460
     27 C         -30.4720   49.9091   -9.8010 C.ar    1  UNL1        0.0228
     28 C         -30.2237   48.8264  -10.6702 C.ar    1  UNL1       -0.0004
     29 C         -30.3162   48.9843  -12.0550 C.ar    1  UNL1        0.0007
     30 C         -30.6407   50.2274  -12.5982 C.ar    1  UNL1        0.0114
     31 C         -30.8642   51.3197  -11.7570 C.ar    1  UNL1        0.0575
     32 CL        -31.2508   52.8870  -12.4441 Cl      1  UNL1       -0.0823
     33 C         -30.7717   51.1681  -10.3686 C.ar    1  UNL1        0.0109
     34 C         -26.6950   50.1229   -6.9325 C.3     1  UNL1        0.1196
     35 C         -25.8722   49.4125   -8.0161 C.3     1  UNL1        0.1113
     36 N         -26.7132   48.5566   -8.8535 N.am    1  UNL1       -0.3026
     37 C         -26.6365   47.1283   -8.7881 C.2     1  UNL1        0.2230
     38 C         -27.4890   46.2967   -9.6902 C.3     1  UNL1        0.0946
     39 O         -25.8397   46.5674   -7.9879 O.2     1  UNL1       -0.2751
     40 H         -27.4093   48.9816   -9.5054 H       1  UNL1        0.1495
@<TRIPOS>BOND
     1    25    26    1
     2    26    13    1
     3    13    14   ar
     4    14    15   ar
     5    15    16    1
     6    15    17   ar
     7    17    18   ar
     8    18    19    1
     9    18    20   ar
    10    20     1    1
    11     1     2   ar
    12     2     3   ar
    13     3     4   ar
    14     4     5   ar
    15     5     6   ar
    16     5     7    1
    17     7    34    1
    18    34    35    1
    19    35    36    1
    20    36    37   am
    21    37    38    1
    22    37    39    2
    23     7     8   am
    24     8     9    2
    25     8    10    1
    26    10    11    1
    27    10    27    1
    28    27    28   ar
    29    28    29   ar
    30    29    30   ar
    31    30    31   ar
    32    31    32    1
    33    31    33   ar
    34    10    12    1
    35    20    13   ar
    36     6     1   ar
    37    33    27   ar
    38    12     4    1
    39    16    21    1
    40    16    22    1
    41    19    23    1
    42    19    24    1
    43    36    40    1
@<TRIPOS>MOLECULE
*****
 40 43 0 0 0
SMALL
GASTEIGER

@<TRIPOS>ATOM
      1 C         -27.6246   47.4782   -4.7909 C.ar    1  UNL1        0.0053
      2 C         -26.6120   46.7330   -5.4065 C.ar    1  UNL1        0.0033
      3 C         -25.9130   47.2666   -6.4889 C.ar    1  UNL1        0.0382
      4 C         -26.2055   48.5537   -6.9473 C.ar    1  UNL1        0.1529
      5 C         -27.1704   49.3410   -6.2999 C.ar    1  UNL1        0.0882
      6 C         -27.9100   48.7748   -5.2417 C.ar    1  UNL1        0.0181
      7 N         -27.3452   50.7135   -6.7227 N.am    1  UNL1       -0.2512
      8 C         -26.8363   51.1034   -8.0168 C.2     1  UNL1        0.2698
      9 O         -27.1115   52.2437   -8.4844 O.2     1  UNL1       -0.2704
     10 C         -26.0050   50.1465   -8.8497 C.3     1  UNL1        0.2197
     11 C         -26.9021   49.5388   -9.9442 C.3     1  UNL1        0.0579
     12 O         -25.5187   49.0617   -8.0501 O.3     1  UNL1       -0.4686
     13 C         -29.5811   46.2307   -3.8105 C.ar    1  UNL1        0.0645
     14 N         -30.2126   45.7136   -2.7232 N.ar    1  UNL1       -0.2183
     15 C         -29.7082   45.8589   -1.4722 C.ar    1  UNL1        0.2145
     16 N         -30.4012   45.3072   -0.3553 N.pl3   1  UNL1       -0.3274
     17 N         -28.5439   46.5295   -1.2853 N.ar    1  UNL1       -0.1995
     18 C         -27.8565   47.0626   -2.3287 C.ar    1  UNL1        0.1293
     19 N         -26.6390   47.7691   -2.0646 N.pl3   1  UNL1       -0.3425
     20 C         -28.3587   46.9183   -3.6389 C.ar    1  UNL1        0.0449
     21 H         -31.2976   44.7898   -0.4924 H       1  UNL1        0.1452
     22 H         -30.0185   45.4153    0.6102 H       1  UNL1        0.1452
     23 H         -26.0816   48.2217   -2.8221 H       1  UNL1        0.1437
     24 H         -26.2912   47.8567   -1.0840 H       1  UNL1        0.1437
     25 C         -29.8720   44.5878   -5.6688 C.3     1  UNL1        0.0067
     26 C         -30.1921   45.9920   -5.1679 C.3     1  UNL1        0.0460
     27 C         -24.7926   50.8964   -9.4026 C.ar    1  UNL1        0.0228
     28 C         -24.7413   51.1786  -10.7836 C.ar    1  UNL1       -0.0004
     29 C         -23.6332   51.8196  -11.3427 C.ar    1  UNL1        0.0007
     30 C         -22.5501   52.1748  -10.5388 C.ar    1  UNL1        0.0114
     31 C         -22.5681   51.8808   -9.1736 C.ar    1  UNL1        0.0575
     32 CL        -21.1949   52.3093   -8.1692 Cl      1  UNL1       -0.0823
     33 C         -23.6750   51.2375   -8.6077 C.ar    1  UNL1        0.0109
     34 C         -27.7227   51.7782   -5.7727 C.3     1  UNL1        0.1196
     35 C         -29.2495   51.8981   -5.6702 C.3     1  UNL1        0.1113
     36 N         -29.9116   51.3448   -6.8519 N.am    1  UNL1       -0.3026
     37 C         -30.8789   50.2937   -6.7514 C.2     1  UNL1        0.2230
     38 C         -31.5003   49.7355   -7.9901 C.3     1  UNL1        0.0946
     39 O         -31.1953   49.8223   -5.6256 O.2     1  UNL1       -0.2751
     40 H         -29.7019   51.7301   -7.7994 H       1  UNL1        0.1495
@<TRIPOS>BOND
     1    25    26    1
     2    26    13    1
     3    13    14   ar
     4    14    15   ar
     5    15    16    1
     6    15    17   ar
     7    17    18   ar
     8    18    19    1
     9    18    20   ar
    10    20     1    1
    11     1     2   ar
    12     2     3   ar
    13     3     4   ar
    14     4     5   ar
    15     5     6   ar
    16     5     7    1
    17     7    34    1
    18    34    35    1
    19    35    36    1
    20    36    37   am
    21    37    38    1
    22    37    39    2
    23     7     8   am
    24     8     9    2
    25     8    10    1
    26    10    11    1
    27    10    27    1
    28    27    28   ar
    29    28    29   ar
    30    29    30   ar
    31    30    31   ar
    32    31    32    1
    33    31    33   ar
    34    10    12    1
    35    20    13   ar
    36     6     1   ar
    37    33    27   ar
    38    12     4    1
    39    16    21    1
    40    16    22    1
    41    19    23    1
    42    19    24    1
    43    36    40    1
@<TRIPOS>MOLECULE
*****
 40 43 0 0 0
SMALL
GASTEIGER

@<TRIPOS>ATOM
      1 C         -27.0022   48.0835   -6.2663 C.ar    1  UNL1        0.0053
      2 C         -26.0664   48.1536   -7.3051 C.ar    1  UNL1        0.0033
      3 C         -26.4504   47.8520   -8.6114 C.ar    1  UNL1        0.0382
      4 C         -27.7739   47.5015   -8.8905 C.ar    1  UNL1        0.1529
      5 C         -28.7406   47.4918   -7.8730 C.ar    1  UNL1        0.0882
      6 C         -28.3334   47.7446   -6.5472 C.ar    1  UNL1        0.0181
      7 N         -30.1226   47.2551   -8.2294 N.am    1  UNL1       -0.2512
      8 C         -30.4076   46.6517   -9.5101 C.2     1  UNL1        0.2698
      9 O         -31.5840   46.2842   -9.7855 O.2     1  UNL1       -0.2704
     10 C         -29.3045   46.4115  -10.5230 C.3     1  UNL1        0.2197
     11 C         -28.9069   44.9243  -10.4753 C.3     1  UNL1        0.0579
     12 O         -28.1355   47.1730  -10.1971 O.3     1  UNL1       -0.4686
     13 C         -26.2560   47.4005   -3.9593 C.ar    1  UNL1        0.0645
     14 N         -25.8709   47.7500   -2.7032 N.ar    1  UNL1       -0.2183
     15 C         -25.8272   49.0471   -2.3080 C.ar    1  UNL1        0.2145
     16 N         -25.4232   49.3752   -0.9808 N.pl3   1  UNL1       -0.3274
     17 N         -26.1682   50.0315   -3.1769 N.ar    1  UNL1       -0.1995
     18 C         -26.5525   49.7529   -4.4497 C.ar    1  UNL1        0.1293
     19 N         -26.9112   50.8360   -5.3155 N.pl3   1  UNL1       -0.3425
     20 C         -26.5992   48.4119   -4.8845 C.ar    1  UNL1        0.0449
     21 H         -25.1592   48.6223   -0.3074 H       1  UNL1        0.1452
     22 H         -25.3873   50.3714   -0.6702 H       1  UNL1        0.1452
     23 H         -27.2385   50.6821   -6.2945 H       1  UNL1        0.1437
     24 H         -26.8638   51.8186   -4.9655 H       1  UNL1        0.1437
     25 C         -25.6491   45.1005   -3.1986 C.3     1  UNL1        0.0067
     26 C         -26.2414   45.9384   -4.3265 C.3     1  UNL1        0.0460
     27 C         -29.7883   46.8688  -11.8996 C.ar    1  UNL1        0.0228
     28 C         -30.2650   48.1880  -12.0474 C.ar    1  UNL1       -0.0004
     29 C         -30.7610   48.6369  -13.2736 C.ar    1  UNL1        0.0007
     30 C         -30.8066   47.7743  -14.3689 C.ar    1  UNL1        0.0114
     31 C         -30.3649   46.4560  -14.2378 C.ar    1  UNL1        0.0575
     32 CL        -30.4439   45.3672  -15.6112 Cl      1  UNL1       -0.0823
     33 C         -29.8680   45.9998  -13.0113 C.ar    1  UNL1        0.0109
     34 C         -31.2351   47.8878   -7.4942 C.3     1  UNL1        0.1196
     35 C         -31.4388   49.3364   -7.9591 C.3     1  UNL1        0.1113
     36 N         -31.4755   50.2629   -6.8272 N.am    1  UNL1       -0.3026
     37 C         -30.3200   51.0062   -6.4235 C.2     1  UNL1        0.2230
     38 C         -30.3966   51.9119   -5.2379 C.3     1  UNL1        0.0946
     39 O         -29.2325   50.8864   -7.0501 O.2     1  UNL1       -0.2751
     40 H         -32.3653   50.4154   -6.3027 H       1  UNL1        0.1495
@<TRIPOS>BOND
     1    25    26    1
     2    26    13    1
     3    13    14   ar
     4    14    15   ar
     5    15    16    1
     6    15    17   ar
     7    17    18   ar
     8    18    19    1
     9    18    20   ar
    10    20     1    1
    11     1     2   ar
    12     2     3   ar
    13     3     4   ar
    14     4     5   ar
    15     5     6   ar
    16     5     7    1
    17     7    34    1
    18    34    35    1
    19    35    36    1
    20    36    37   am
    21    37    38    1
    22    37    39    2
    23     7     8   am
    24     8     9    2
    25     8    10    1
    26    10    11    1
    27    10    27    1
    28    27    28   ar
    29    28    29   ar
    30    29    30   ar
    31    30    31   ar
    32    31    32    1
    33    31    33   ar
    34    10    12    1
    35    20    13   ar
    36     6     1   ar
    37    33    27   ar
    38    12     4    1
    39    16    21    1
    40    16    22    1
    41    19    23    1
    42    19    24    1
    43    36    40    1
@<TRIPOS>MOLECULE
*****
 40 43 0 0 0
SMALL
GASTEIGER

@<TRIPOS>ATOM
      1 C         -29.0926   50.2152   -5.4625 C.ar    1  UNL1        0.0053
      2 C         -30.2371   50.7974   -4.9048 C.ar    1  UNL1        0.0033
      3 C         -30.7610   50.3016   -3.7113 C.ar    1  UNL1        0.0382
      4 C         -30.1331   49.2382   -3.0576 C.ar    1  UNL1        0.1529
      5 C         -28.9470   48.6865   -3.5664 C.ar    1  UNL1        0.0882
      6 C         -28.4543   49.1567   -4.8007 C.ar    1  UNL1        0.0181
      7 N         -28.2590   47.6797   -2.7880 N.am    1  UNL1       -0.2512
      8 C         -28.9914   46.9973   -1.7471 C.2     1  UNL1        0.2698
      9 O         -28.4747   46.0062   -1.1593 O.2     1  UNL1       -0.2704
     10 C         -30.3969   47.4261   -1.3715 C.3     1  UNL1        0.2197
     11 C         -31.3989   46.4528   -2.0202 C.3     1  UNL1        0.0579
     12 O         -30.6865   48.7336   -1.8807 O.3     1  UNL1       -0.4686
     13 C         -28.9125   50.2177   -7.9751 C.ar    1  UNL1        0.0645
     14 N         -28.3857   50.7506   -9.1094 N.ar    1  UNL1       -0.2183
     15 C         -27.4858   51.7650   -9.0672 C.ar    1  UNL1        0.2145
     16 N         -26.9510   52.2949  -10.2777 N.pl3   1  UNL1       -0.3274
     17 N         -27.0956   52.2744   -7.8720 N.ar    1  UNL1       -0.1995
     18 C         -27.5899   51.7955   -6.7009 C.ar    1  UNL1        0.1293
     19 N         -27.1296   52.3681   -5.4714 N.pl3   1  UNL1       -0.3425
     20 C         -28.5316   50.7454   -6.7209 C.ar    1  UNL1        0.0449
     21 H         -27.2474   51.9074  -11.2007 H       1  UNL1        0.1452
     22 H         -26.2581   53.0756  -10.2523 H       1  UNL1        0.1452
     23 H         -27.4538   52.0246   -4.5408 H       1  UNL1        0.1437
     24 H         -26.4340   53.1466   -5.4891 H       1  UNL1        0.1437
     25 C         -31.3092   49.6894   -8.4379 C.3     1  UNL1        0.0067
     26 C         -29.9334   49.1171   -8.1140 C.3     1  UNL1        0.0460
     27 C         -30.5056   47.4862    0.1525 C.ar    1  UNL1        0.0228
     28 C         -31.4151   46.6260    0.8023 C.ar    1  UNL1       -0.0004
     29 C         -31.5836   46.6771    2.1880 C.ar    1  UNL1        0.0007
     30 C         -30.8619   47.5975    2.9480 C.ar    1  UNL1        0.0114
     31 C         -29.9758   48.4770    2.3222 C.ar    1  UNL1        0.0575
     32 CL        -29.0857   49.6482    3.2783 Cl      1  UNL1       -0.0823
     33 C         -29.8035   48.4317    0.9338 C.ar    1  UNL1        0.0109
     34 C         -26.7880   47.5582   -2.7994 C.3     1  UNL1        0.1196
     35 C         -26.3394   46.4879   -3.8040 C.3     1  UNL1        0.1113
     36 N         -25.8343   47.0891   -5.0386 N.am    1  UNL1       -0.3026
     37 C         -26.5189   46.9358   -6.2869 C.2     1  UNL1        0.2230
     38 C         -25.9439   47.5370   -7.5279 C.3     1  UNL1        0.0946
     39 O         -27.5939   46.2799   -6.3495 O.2     1  UNL1       -0.2751
     40 H         -24.9651   47.6674   -5.0231 H       1  UNL1        0.1495
@<TRIPOS>BOND
     1    25    26    1
     2    26    13    1
     3    13    14   ar
     4    14    15   ar
     5    15    16    1
     6    15    17   ar
     7    17    18   ar
     8    18    19    1
     9    18    20   ar
    10    20     1    1
    11     1     2   ar
    12     2     3   ar
    13     3     4   ar
    14     4     5   ar
    15     5     6   ar
    16     5     7    1
    17     7    34    1
    18    34    35    1
    19    35    36    1
    20    36    37   am
    21    37    38    1
    22    37    39    2
    23     7     8   am
    24     8     9    2
    25     8    10    1
    26    10    11    1
    27    10    27    1
    28    27    28   ar
    29    28    29   ar
    30    29    30   ar
    31    30    31   ar
    32    31    32    1
    33    31    33   ar
    34    10    12    1
    35    20    13   ar
    36     6     1   ar
    37    33    27   ar
    38    12     4    1
    39    16    21    1
    40    16    22    1
    41    19    23    1
    42    19    24    1
    43    36    40    1
@<TRIPOS>MOLECULE
*****
 40 43 0 0 0
SMALL
GASTEIGER

@<TRIPOS>ATOM
      1 C         -28.5818   48.1307   -9.8775 C.ar    1  UNL1        0.0053
      2 C         -27.4381   48.9290   -9.9971 C.ar    1  UNL1        0.0033
      3 C         -26.8978   49.5471   -8.8697 C.ar    1  UNL1        0.0382
      4 C         -27.4822   49.3534   -7.6155 C.ar    1  UNL1        0.1529
      5 C         -28.5884   48.5025   -7.4660 C.ar    1  UNL1        0.0882
      6 C         -29.1614   47.9251   -8.6174 C.ar    1  UNL1        0.0181
      7 N         -29.0770   48.2255   -6.1327 N.am    1  UNL1       -0.2512
      8 C         -28.6932   49.1154   -5.0621 C.2     1  UNL1        0.2698
      9 O         -29.2278   48.9989   -3.9239 O.2     1  UNL1       -0.2704
     10 C         -27.6821   50.2224   -5.2914 C.3     1  UNL1        0.2197
     11 C         -28.4380   51.5546   -5.4524 C.3     1  UNL1        0.0579
     12 O         -26.9483   50.0028   -6.5023 O.3     1  UNL1       -0.4686
     13 C         -30.2041   48.0547  -11.8030 C.ar    1  UNL1        0.0645
     14 N         -30.6819   47.4187  -12.9055 N.ar    1  UNL1       -0.2183
     15 C         -30.1843   46.2225  -13.3079 C.ar    1  UNL1        0.2145
     16 N         -30.7141   45.5829  -14.4665 N.pl3   1  UNL1       -0.3274
     17 N         -29.1820   45.6358  -12.6068 N.ar    1  UNL1       -0.1995
     18 C         -28.6517   46.2212  -11.5017 C.ar    1  UNL1        0.1293
     19 N         -27.6028   45.5457  -10.7983 N.pl3   1  UNL1       -0.3425
     20 C         -29.1491   47.4681  -11.0685 C.ar    1  UNL1        0.0449
     21 H         -31.4853   46.0293  -15.0106 H       1  UNL1        0.1452
     22 H         -30.3356   44.6622  -14.7817 H       1  UNL1        0.1452
     23 H         -27.1746   45.9337   -9.9292 H       1  UNL1        0.1437
     24 H         -27.2537   44.6248  -11.1453 H       1  UNL1        0.1437
     25 C         -30.2036   50.4964  -12.3278 C.3     1  UNL1        0.0067
     26 C         -30.7893   49.3977  -11.4473 C.3     1  UNL1        0.0460
     27 C         -26.6811   50.2258   -4.1355 C.ar    1  UNL1        0.0228
     28 C         -26.5951   49.0860   -3.3092 C.ar    1  UNL1       -0.0004
     29 C         -25.7296   49.0600   -2.2130 C.ar    1  UNL1        0.0007
     30 C         -24.9479   50.1751   -1.9112 C.ar    1  UNL1        0.0114
     31 C         -25.0370   51.3241   -2.7000 C.ar    1  UNL1        0.0575
     32 CL        -24.0686   52.7327   -2.3048 Cl      1  UNL1       -0.0823
     33 C         -25.9033   51.3568   -3.7990 C.ar    1  UNL1        0.0109
     34 C         -29.6685   46.9210   -5.7763 C.3     1  UNL1        0.1196
     35 C         -28.6313   45.7982   -5.9161 C.3     1  UNL1        0.1113
     36 N         -27.9240   45.5615   -4.6573 N.am    1  UNL1       -0.3026
     37 C         -26.4992   45.6679   -4.5614 C.2     1  UNL1        0.2230
     38 C         -25.8187   45.3800   -3.2629 C.3     1  UNL1        0.0946
     39 O         -25.8129   45.9837   -5.5709 O.2     1  UNL1       -0.2751
     40 H         -28.4585   45.3301   -3.7907 H       1  UNL1        0.1495
@<TRIPOS>BOND
     1    25    26    1
     2    26    13    1
     3    13    14   ar
     4    14    15   ar
     5    15    16    1
     6    15    17   ar
     7    17    18   ar
     8    18    19    1
     9    18    20   ar
    10    20     1    1
    11     1     2   ar
    12     2     3   ar
    13     3     4   ar
    14     4     5   ar
    15     5     6   ar
    16     5     7    1
    17     7    34    1
    18    34    35    1
    19    35    36    1
    20    36    37   am
    21    37    38    1
    22    37    39    2
    23     7     8   am
    24     8     9    2
    25     8    10    1
    26    10    11    1
    27    10    27    1
    28    27    28   ar
    29    28    29   ar
    30    29    30   ar
    31    30    31   ar
    32    31    32    1
    33    31    33   ar
    34    10    12    1
    35    20    13   ar
    36     6     1   ar
    37    33    27   ar
    38    12     4    1
    39    16    21    1
    40    16    22    1
    41    19    23    1
    42    19    24    1
    43    36    40    1
@<TRIPOS>MOLECULE
*****
 40 43 0 0 0
SMALL
GASTEIGER

@<TRIPOS>ATOM
      1 C         -28.1095   46.5120   -5.2604 C.ar    1  UNL1        0.0053
      2 C         -28.8123   45.6578   -6.1183 C.ar    1  UNL1        0.0033
      3 C         -29.4040   46.1636   -7.2754 C.ar    1  UNL1        0.0382
      4 C         -29.2782   47.5183   -7.5932 C.ar    1  UNL1        0.1529
      5 C         -28.5205   48.3758   -6.7805 C.ar    1  UNL1        0.0882
      6 C         -27.9715   47.8690   -5.5850 C.ar    1  UNL1        0.0181
      7 N         -28.3052   49.7379   -7.2180 N.am    1  UNL1       -0.2512
      8 C         -29.1793   50.2797   -8.2318 C.2     1  UNL1        0.2698
      9 O         -29.1245   51.5080   -8.5200 O.2     1  UNL1       -0.2704
     10 C         -30.1986   49.4029   -8.9339 C.3     1  UNL1        0.2197
     11 C         -31.5838   49.6638   -8.3132 C.3     1  UNL1        0.0579
     12 O         -29.9014   48.0151   -8.7381 O.3     1  UNL1       -0.4686
     13 C         -28.1564   45.9618   -2.8027 C.ar    1  UNL1        0.0645
     14 N         -27.5403   45.4397   -1.7090 N.ar    1  UNL1       -0.2183
     15 C         -26.2768   44.9494   -1.7708 C.ar    1  UNL1        0.2145
     16 N         -25.6613   44.4144   -0.6016 N.pl3   1  UNL1       -0.3274
     17 N         -25.6000   44.9687   -2.9463 N.ar    1  UNL1       -0.1995
     18 C         -26.1596   45.4668   -4.0795 C.ar    1  UNL1        0.1293
     19 N         -25.3890   45.4695   -5.2867 N.pl3   1  UNL1       -0.3425
     20 C         -27.4745   45.9759   -4.0402 C.ar    1  UNL1        0.0449
     21 H         -26.1770   44.3963    0.3060 H       1  UNL1        0.1452
     22 H         -24.6892   44.0353   -0.6423 H       1  UNL1        0.1452
     23 H         -25.7560   45.8621   -6.1813 H       1  UNL1        0.1437
     24 H         -24.4191   45.0828   -5.2849 H       1  UNL1        0.1437
     25 C         -29.6108   47.8074   -1.9568 C.3     1  UNL1        0.0067
     26 C         -29.5743   46.4517   -2.6539 C.3     1  UNL1        0.0460
     27 C         -30.1416   49.6831  -10.4360 C.ar    1  UNL1        0.0228
     28 C         -30.1224   51.0231  -10.8760 C.ar    1  UNL1       -0.0004
     29 C         -30.1179   51.3291  -12.2389 C.ar    1  UNL1        0.0007
     30 C         -30.1498   50.3061  -13.1866 C.ar    1  UNL1        0.0114
     31 C         -30.1963   48.9730  -12.7732 C.ar    1  UNL1        0.0575
     32 CL        -30.2584   47.6893  -13.9676 Cl      1  UNL1       -0.0823
     33 C         -30.2023   48.6599  -11.4090 C.ar    1  UNL1        0.0109
     34 C         -27.0579   50.4654   -6.9121 C.3     1  UNL1        0.1196
     35 C         -27.2469   51.3786   -5.6930 C.3     1  UNL1        0.1113
     36 N         -28.5437   52.0556   -5.7258 N.am    1  UNL1       -0.3026
     37 C         -29.6795   51.5438   -5.0198 C.2     1  UNL1        0.2230
     38 C         -30.9926   52.2500   -5.1141 C.3     1  UNL1        0.0946
     39 O         -29.5839   50.4896   -4.3346 O.2     1  UNL1       -0.2751
     40 H         -28.6559   52.9488   -6.2546 H       1  UNL1        0.1495
@<TRIPOS>BOND
     1    25    26    1
     2    26    13    1
     3    13    14   ar
     4    14    15   ar
     5    15    16    1
     6    15    17   ar
     7    17    18   ar
     8    18    19    1
     9    18    20   ar
    10    20     1    1
    11     1     2   ar
    12     2     3   ar
    13     3     4   ar
    14     4     5   ar
    15     5     6   ar
    16     5     7    1
    17     7    34    1
    18    34    35    1
    19    35    36    1
    20    36    37   am
    21    37    38    1
    22    37    39    2
    23     7     8   am
    24     8     9    2
    25     8    10    1
    26    10    11    1
    27    10    27    1
    28    27    28   ar
    29    28    29   ar
    30    29    30   ar
    31    30    31   ar
    32    31    32    1
    33    31    33   ar
    34    10    12    1
    35    20    13   ar
    36     6     1   ar
    37    33    27   ar
    38    12     4    1
    39    16    21    1
    40    16    22    1
    41    19    23    1
    42    19    24    1
    43    36    40    1
@<TRIPOS>MOLECULE
*****
 40 43 0 0 0
SMALL
GASTEIGER

@<TRIPOS>ATOM
      1 C         -27.7079   51.1220   -9.5898 C.ar    1  UNL1        0.0053
      2 C         -27.1561   51.9521   -8.6068 C.ar    1  UNL1        0.0033
      3 C         -27.5108   51.7804   -7.2691 C.ar    1  UNL1        0.0382
      4 C         -28.3995   50.7661   -6.9035 C.ar    1  UNL1        0.1529
      5 C         -28.9101   49.8817   -7.8664 C.ar    1  UNL1        0.0882
      6 C         -28.5897   50.0956   -9.2225 C.ar    1  UNL1        0.0181
      7 N         -29.7186   48.7657   -7.4259 N.am    1  UNL1       -0.2512
      8 C         -30.2994   48.8180   -6.1047 C.2     1  UNL1        0.2698
      9 O         -31.1374   47.9424   -5.7499 O.2     1  UNL1       -0.2704
     10 C         -29.9505   49.9368   -5.1419 C.3     1  UNL1        0.2197
     11 C         -31.0997   50.9622   -5.1406 C.3     1  UNL1        0.0579
     12 O         -28.7682   50.6264   -5.5654 O.3     1  UNL1       -0.4686
     13 C         -25.9903   51.1224  -11.4322 C.ar    1  UNL1        0.0645
     14 N         -25.6874   51.2733  -12.7490 N.ar    1  UNL1       -0.2183
     15 C         -26.6332   51.6077  -13.6624 C.ar    1  UNL1        0.2145
     16 N         -26.2771   51.7622  -15.0340 N.pl3   1  UNL1       -0.3274
     17 N         -27.9179   51.7947  -13.2691 N.ar    1  UNL1       -0.1995
     18 C         -28.2910   51.6502  -11.9709 C.ar    1  UNL1        0.1293
     19 N         -29.6610   51.8726  -11.6173 N.pl3   1  UNL1       -0.3425
     20 C         -27.3258   51.2967  -11.0050 C.ar    1  UNL1        0.0449
     21 H         -25.2901   51.6194  -15.3432 H       1  UNL1        0.1452
     22 H         -27.0001   52.0193  -15.7421 H       1  UNL1        0.1452
     23 H         -30.0012   51.8016  -10.6332 H       1  UNL1        0.1437
     24 H         -30.3529   52.1305  -12.3555 H       1  UNL1        0.1437
     25 C         -23.7826   51.7667  -10.4583 C.3     1  UNL1        0.0067
     26 C         -24.8858   50.7144  -10.4908 C.3     1  UNL1        0.0460
     27 C         -29.6694   49.3350   -3.7646 C.ar    1  UNL1        0.0228
     28 C         -28.4187   48.7254   -3.5331 C.ar    1  UNL1       -0.0004
     29 C         -28.1331   48.1206   -2.3067 C.ar    1  UNL1        0.0007
     30 C         -29.0945   48.0977   -1.2963 C.ar    1  UNL1        0.0114
     31 C         -30.3490   48.6715   -1.5135 C.ar    1  UNL1        0.0575
     32 CL        -31.5636   48.6218   -0.2484 Cl      1  UNL1       -0.0823
     33 C         -30.6417   49.2779   -2.7406 C.ar    1  UNL1        0.0109
     34 C         -29.7037   47.4684   -8.1297 C.3     1  UNL1        0.1196
     35 C         -28.6733   46.5209   -7.5002 C.3     1  UNL1        0.1113
     36 N         -29.2095   45.8593   -6.3103 N.am    1  UNL1       -0.3026
     37 C         -28.3637   45.4483   -5.2305 C.2     1  UNL1        0.2230
     38 C         -28.9529   44.7424   -4.0530 C.3     1  UNL1        0.0946
     39 O         -27.1216   45.6605   -5.2756 O.2     1  UNL1       -0.2751
     40 H         -30.2366   45.6949   -6.2195 H       1  UNL1        0.1495
@<TRIPOS>BOND
     1    25    26    1
     2    26    13    1
     3    13    14   ar
     4    14    15   ar
     5    15    16    1
     6    15    17   ar
     7    17    18   ar
     8    18    19    1
     9    18    20   ar
    10    20     1    1
    11     1     2   ar
    12     2     3   ar
    13     3     4   ar
    14     4     5   ar
    15     5     6   ar
    16     5     7    1
    17     7    34    1
    18    34    35    1
    19    35    36    1
    20    36    37   am
    21    37    38    1
    22    37    39    2
    23     7     8   am
    24     8     9    2
    25     8    10    1
    26    10    11    1
    27    10    27    1
    28    27    28   ar
    29    28    29   ar
    30    29    30   ar
    31    30    31   ar
    32    31    32    1
    33    31    33   ar
    34    10    12    1
    35    20    13   ar
    36     6     1   ar
    37    33    27   ar
    38    12     4    1
    39    16    21    1
    40    16    22    1
    41    19    23    1
    42    19    24    1
    43    36    40    1
@<TRIPOS>MOLECULE
*****
 40 43 0 0 0
SMALL
GASTEIGER

@<TRIPOS>ATOM
      1 C         -28.5731   47.8741   -2.6797 C.ar    1  UNL1        0.0053
      2 C         -27.4037   48.6035   -2.4344 C.ar    1  UNL1        0.0033
      3 C         -26.6803   49.1406   -3.4988 C.ar    1  UNL1        0.0382
      4 C         -27.1321   48.9719   -4.8102 C.ar    1  UNL1        0.1529
      5 C         -28.3376   48.3019   -5.0703 C.ar    1  UNL1        0.0882
      6 C         -29.0343   47.7153   -3.9942 C.ar    1  UNL1        0.0181
      7 N         -28.8348   48.2678   -6.4285 N.am    1  UNL1       -0.2512
      8 C         -27.9146   48.5546   -7.5039 C.2     1  UNL1        0.2698
      9 O         -28.2710   48.3769   -8.7023 O.2     1  UNL1       -0.2704
     10 C         -26.5029   49.0299   -7.2179 C.3     1  UNL1        0.2197
     11 C         -25.5393   47.8398   -7.3829 C.3     1  UNL1        0.0579
     12 O         -26.3814   49.4889   -5.8661 O.3     1  UNL1       -0.4686
     13 C         -30.4636   47.9914   -1.0191 C.ar    1  UNL1        0.0645
     14 N         -31.1573   47.4277    0.0052 N.ar    1  UNL1       -0.2183
     15 C         -30.7899   46.2375    0.5428 C.ar    1  UNL1        0.2145
     16 N         -31.5389   45.6797    1.6198 N.pl3   1  UNL1       -0.3274
     17 N         -29.7094   45.5787    0.0542 N.ar    1  UNL1       -0.1995
     18 C         -28.9776   46.0803   -0.9745 C.ar    1  UNL1        0.1293
     19 N         -27.8409   45.3423   -1.4376 N.pl3   1  UNL1       -0.3425
     20 C         -29.3449   47.3132   -1.5531 C.ar    1  UNL1        0.0449
     21 H         -32.3717   46.1815    2.0002 H       1  UNL1        0.1452
     22 H         -31.2617   44.7640    2.0380 H       1  UNL1        0.1452
     23 H         -27.2265   45.6896   -2.2065 H       1  UNL1        0.1437
     24 H         -27.5959   44.4310   -0.9909 H       1  UNL1        0.1437
     25 C         -31.5694   50.1656   -0.4834 C.3     1  UNL1        0.0067
     26 C         -30.9618   49.2986   -1.5808 C.3     1  UNL1        0.0460
     27 C         -26.1807   50.2069   -8.1392 C.ar    1  UNL1        0.0228
     28 C         -27.1185   51.2539   -8.2556 C.ar    1  UNL1       -0.0004
     29 C         -26.8900   52.3270   -9.1202 C.ar    1  UNL1        0.0007
     30 C         -25.7316   52.3668   -9.8963 C.ar    1  UNL1        0.0114
     31 C         -24.8023   51.3274   -9.8169 C.ar    1  UNL1        0.0575
     32 CL        -23.3569   51.3696  -10.8105 Cl      1  UNL1       -0.0823
     33 C         -25.0263   50.2487   -8.9534 C.ar    1  UNL1        0.0109
     34 C         -30.2800   48.2721   -6.7284 C.3     1  UNL1        0.1196
     35 C         -30.7415   49.6718   -7.1569 C.3     1  UNL1        0.1113
     36 N         -31.2825   50.4277   -6.0269 N.am    1  UNL1       -0.3026
     37 C         -30.6182   51.5844   -5.5063 C.2     1  UNL1        0.2230
     38 C         -31.1900   52.3013   -4.3268 C.3     1  UNL1        0.0946
     39 O         -29.5429   51.9907   -6.0244 O.2     1  UNL1       -0.2751
     40 H         -32.1876   50.1434   -5.5908 H       1  UNL1        0.1495
@<TRIPOS>BOND
     1    25    26    1
     2    26    13    1
     3    13    14   ar
     4    14    15   ar
     5    15    16    1
     6    15    17   ar
     7    17    18   ar
     8    18    19    1
     9    18    20   ar
    10    20     1    1
    11     1     2   ar
    12     2     3   ar
    13     3     4   ar
    14     4     5   ar
    15     5     6   ar
    16     5     7    1
    17     7    34    1
    18    34    35    1
    19    35    36    1
    20    36    37   am
    21    37    38    1
    22    37    39    2
    23     7     8   am
    24     8     9    2
    25     8    10    1
    26    10    11    1
    27    10    27    1
    28    27    28   ar
    29    28    29   ar
    30    29    30   ar
    31    30    31   ar
    32    31    32    1
    33    31    33   ar
    34    10    12    1
    35    20    13   ar
    36     6     1   ar
    37    33    27   ar
    38    12     4    1
    39    16    21    1
    40    16    22    1
    41    19    23    1
    42    19    24    1
    43    36    40    1
@<TRIPOS>MOLECULE
*****
 40 43 0 0 0
SMALL
GASTEIGER

@<TRIPOS>ATOM
      1 C         -27.9951   45.4797   -4.9827 C.ar    1  UNL1        0.0053
      2 C         -29.0764   44.7056   -5.4199 C.ar    1  UNL1        0.0033
      3 C         -29.7180   45.0171   -6.6184 C.ar    1  UNL1        0.0382
      4 C         -29.2697   46.0875   -7.3966 C.ar    1  UNL1        0.1529
      5 C         -28.1454   46.8324   -7.0079 C.ar    1  UNL1        0.0882
      6 C         -27.5363   46.5459   -5.7692 C.ar    1  UNL1        0.0181
      7 N         -27.6360   47.8432   -7.9088 N.am    1  UNL1       -0.2512
      8 C         -28.5016   48.3260   -8.9591 C.2     1  UNL1        0.2698
      9 O         -28.1507   49.3169   -9.6590 O.2     1  UNL1       -0.2704
     10 C         -29.8533   47.6865   -9.2128 C.3     1  UNL1        0.2197
     11 C         -30.9447   48.5782   -8.5916 C.3     1  UNL1        0.0579
     12 O         -29.9408   46.4053   -8.5775 O.3     1  UNL1       -0.4686
     13 C         -27.8677   45.4871   -2.4670 C.ar    1  UNL1        0.0645
     14 N         -27.2109   45.1410   -1.3280 N.ar    1  UNL1       -0.2183
     15 C         -26.0200   44.4920   -1.3632 C.ar    1  UNL1        0.2145
     16 N         -25.3581   44.1497   -0.1480 N.pl3   1  UNL1       -0.3274
     17 N         -25.4601   44.1690   -2.5558 N.ar    1  UNL1       -0.1995
     18 C         -26.0673   44.4762   -3.7315 C.ar    1  UNL1        0.1293
     19 N         -25.4194   44.1183   -4.9576 N.pl3   1  UNL1       -0.3425
     20 C         -27.3092   45.1451   -3.7190 C.ar    1  UNL1        0.0449
     21 H         -25.7839   44.3952    0.7732 H       1  UNL1        0.1452
     22 H         -24.4414   43.6502   -0.1679 H       1  UNL1        0.1452
     23 H         -25.8248   44.3507   -5.8908 H       1  UNL1        0.1437
     24 H         -24.5016   43.6209   -4.9344 H       1  UNL1        0.1437
     25 C         -29.0259   47.6369   -1.9433 C.3     1  UNL1        0.0067
     26 C         -29.2031   46.1743   -2.3367 C.3     1  UNL1        0.0460
     27 C         -30.0250   47.4721  -10.7170 C.ar    1  UNL1        0.0228
     28 C         -29.5716   46.2638  -11.2862 C.ar    1  UNL1       -0.0004
     29 C         -29.6638   46.0416  -12.6622 C.ar    1  UNL1        0.0007
     30 C         -30.1934   47.0259  -13.4967 C.ar    1  UNL1        0.0114
     31 C         -30.6234   48.2404  -12.9579 C.ar    1  UNL1        0.0575
     32 CL        -31.2688   49.4848  -14.0129 Cl      1  UNL1       -0.0823
     33 C         -30.5324   48.4696  -11.5800 C.ar    1  UNL1        0.0109
     34 C         -26.1956   48.1541   -7.9949 C.3     1  UNL1        0.1196
     35 C         -25.9049   49.5450   -7.4146 C.3     1  UNL1        0.1113
     36 N         -24.7601   50.1731   -8.0749 N.am    1  UNL1       -0.3026
     37 C         -24.9236   51.2474   -9.0075 C.2     1  UNL1        0.2230
     38 C         -23.7268   51.8315   -9.6847 C.3     1  UNL1        0.0946
     39 O         -26.0730   51.6907   -9.2761 O.2     1  UNL1       -0.2751
     40 H         -23.7895   49.8573   -7.8549 H       1  UNL1        0.1495
@<TRIPOS>BOND
     1    25    26    1
     2    26    13    1
     3    13    14   ar
     4    14    15   ar
     5    15    16    1
     6    15    17   ar
     7    17    18   ar
     8    18    19    1
     9    18    20   ar
    10    20     1    1
    11     1     2   ar
    12     2     3   ar
    13     3     4   ar
    14     4     5   ar
    15     5     6   ar
    16     5     7    1
    17     7    34    1
    18    34    35    1
    19    35    36    1
    20    36    37   am
    21    37    38    1
    22    37    39    2
    23     7     8   am
    24     8     9    2
    25     8    10    1
    26    10    11    1
    27    10    27    1
    28    27    28   ar
    29    28    29   ar
    30    29    30   ar
    31    30    31   ar
    32    31    32    1
    33    31    33   ar
    34    10    12    1
    35    20    13   ar
    36     6     1   ar
    37    33    27   ar
    38    12     4    1
    39    16    21    1
    40    16    22    1
    41    19    23    1
    42    19    24    1
    43    36    40    1
