@<TRIPOS>MOLECULE
*****
 40 44 0 0 0
SMALL
GASTEIGER

@<TRIPOS>ATOM
      1 C         -11.6081  -10.6012   31.3050 C.ar    1  UNL1        0.0675
      2 C         -12.5507  -10.7587   32.3441 C.ar    1  UNL1        0.0193
      3 C         -12.8365  -12.0373   32.8723 C.ar    1  UNL1        0.0398
      4 C         -12.1836  -13.1866   32.3660 C.ar    1  UNL1        0.1557
      5 C         -11.2605  -12.9921   31.3389 C.ar    1  UNL1        0.1112
      6 N         -10.5336  -13.9140   30.6934 N.ar    1  UNL1       -0.3349
      7 C          -9.8196  -13.1976   29.7850 C.ar    1  UNL1        0.1406
      8 N         -10.0748  -11.8628   29.8412 N.ar    1  UNL1       -0.2257
      9 C         -10.9808  -11.7591   30.8296 C.ar    1  UNL1        0.1146
     10 H         -10.5309  -14.9422   30.8698 H       1  UNL1        0.1675
     11 N         -10.4332   -6.7811   29.8305 N.3     1  UNL1       -0.2655
     12 C         -10.5250   -7.0320   31.2833 C.3     1  UNL1        0.0941
     13 C         -11.5805   -8.1015   31.5719 C.3     1  UNL1        0.1082
     14 N         -11.3112   -9.2983   30.7698 N.pl3   1  UNL1       -0.3034
     15 C         -11.0525   -9.1200   29.3381 C.3     1  UNL1        0.1082
     16 C         -10.0144   -8.0158   29.1319 C.3     1  UNL1        0.0941
     17 C          -9.4817   -5.6822   29.5650 C.3     1  UNL1        0.1154
     18 N          -6.4432   -7.8080   30.2924 N.am    1  UNL1       -0.0442
     19 C          -7.6931   -7.4193   29.9026 C.2     1  UNL1        0.2969
     20 C          -8.0852   -6.0791   29.9829 C.2     1  UNL1        0.1684
     21 C          -7.1622   -5.1530   30.4898 C.2     1  UNL1        0.4261
     22 O          -7.4665   -3.9336   30.5945 O.2     1  UNL1       -0.2139
     23 N          -5.9296   -5.5716   30.8795 N.am    1  UNL1       -0.0486
     24 C          -5.5667   -6.8802   30.7925 C.2     1  UNL1        0.6659
     25 O          -4.4172   -7.2279   31.1809 O.2     1  UNL1       -0.1527
     26 H          -5.2488   -4.8751   31.2610 H       1  UNL1        0.4575
     27 C          -7.1685  -10.0879   30.8707 C.3     1  UNL1        0.0920
     28 C          -6.0841   -9.2336   30.2223 C.3     1  UNL1        0.3234
     29 C          -8.8534  -13.7856   28.8225 C.ar    1  UNL1        0.0339
     30 C          -9.2673  -14.8069   27.9535 C.ar    1  UNL1        0.0027
     31 C          -8.3766  -15.3756   27.0394 C.ar    1  UNL1       -0.0042
     32 C          -7.0338  -14.9406   26.9643 C.ar    1  UNL1       -0.0228
     33 C          -6.6288  -13.9150   27.8456 C.ar    1  UNL1       -0.0042
     34 C          -7.5214  -13.3478   28.7584 C.ar    1  UNL1        0.0027
     35 C          -6.0157  -15.5394   25.9716 C.3     1  UNL1        0.0189
     36 C          -6.7504  -15.9937   24.6915 C.3     1  UNL1        0.0044
     37 C          -4.9628  -14.4703   25.6065 C.3     1  UNL1        0.0044
     38 C          -5.2621  -16.7658   26.5406 C.3     1  UNL1        0.0044
     39 O         -12.4265  -14.4813   32.8464 O.3     1  UNL1       -0.4699
     40 C         -12.2703  -14.8698   34.2067 C.3     1  UNL1        0.2525
@<TRIPOS>BOND
     1    27    28    1
     2    28    18    1
     3    18    19    1
     4    19    20    2
     5    20    17    1
     6    17    11    1
     7    11    12    1
     8    12    13    1
     9    13    14    1
    10    14     1    1
    11     1     2   ar
    12     2     3   ar
    13     3     4   ar
    14     4    39    1
    15    39    40    1
    16     4     5   ar
    17     5     6   ar
    18     6     7   ar
    19     7    29    1
    20    29    30   ar
    21    30    31   ar
    22    31    32   ar
    23    32    35    1
    24    35    36    1
    25    35    37    1
    26    35    38    1
    27    32    33   ar
    28    33    34   ar
    29     7     8   ar
    30     8     9   ar
    31    14    15    1
    32    15    16    1
    33    20    21    1
    34    21    22    2
    35    21    23    1
    36    23    24    1
    37    24    25    2
    38    24    18    1
    39    16    11    1
    40     9     1   ar
    41     9     5   ar
    42    34    29   ar
    43     6    10    1
    44    23    26    1
@<TRIPOS>MOLECULE
*****
 40 44 0 0 0
SMALL
GASTEIGER

@<TRIPOS>ATOM
      1 C          -9.5277  -11.7481   31.5387 C.ar    1  UNL1        0.0675
      2 C         -10.5357  -11.8400   32.5227 C.ar    1  UNL1        0.0193
      3 C         -11.4723  -12.8972   32.5007 C.ar    1  UNL1        0.0398
      4 C         -11.4187  -13.8842   31.4875 C.ar    1  UNL1        0.1557
      5 C         -10.4106  -13.7594   30.5320 C.ar    1  UNL1        0.1112
      6 N         -10.1652  -14.5507   29.4791 N.ar    1  UNL1       -0.3349
      7 C          -9.0936  -13.9742   28.8730 C.ar    1  UNL1        0.1406
      8 N          -8.6619  -12.8527   29.5100 N.ar    1  UNL1       -0.2257
      9 C          -9.5039  -12.7419   30.5528 C.ar    1  UNL1        0.1146
     10 H         -10.6898  -15.4113   29.2096 H       1  UNL1        0.1675
     11 N          -6.9348   -8.3689   31.6167 N.3     1  UNL1       -0.2655
     12 C          -7.7695   -8.6506   30.4309 C.3     1  UNL1        0.0941
     13 C          -8.0244  -10.1541   30.3058 C.3     1  UNL1        0.1082
     14 N          -8.5688  -10.6747   31.5631 N.pl3   1  UNL1       -0.3034
     15 C          -7.8866  -10.3107   32.8084 C.3     1  UNL1        0.1082
     16 C          -7.6398   -8.8016   32.8428 C.3     1  UNL1        0.0941
     17 C          -6.6133   -6.9281   31.6796 C.3     1  UNL1        0.1154
     18 N         -10.1026   -5.7553   30.8251 N.am    1  UNL1       -0.0442
     19 C          -9.0657   -6.4671   31.3576 C.2     1  UNL1        0.2969
     20 C          -7.7396   -6.1088   31.0943 C.2     1  UNL1        0.1684
     21 C          -7.5096   -5.0085   30.2558 C.2     1  UNL1        0.4261
     22 O          -6.3339   -4.6480   29.9761 O.2     1  UNL1       -0.2139
     23 N          -8.5618   -4.3263   29.7324 N.am    1  UNL1       -0.0486
     24 C          -9.8451   -4.6902   30.0014 C.2     1  UNL1        0.6659
     25 O         -10.7923   -4.0383   29.4809 O.2     1  UNL1       -0.1527
     26 H          -8.3814   -3.5097   29.1040 H       1  UNL1        0.4575
     27 C         -11.6491   -7.6696   30.7819 C.3     1  UNL1        0.0920
     28 C         -11.4821   -6.1877   31.1011 C.3     1  UNL1        0.3234
     29 C          -8.4414  -14.4954   27.6446 C.ar    1  UNL1        0.0339
     30 C          -7.0431  -14.6000   27.5871 C.ar    1  UNL1        0.0027
     31 C          -6.4068  -15.0874   26.4425 C.ar    1  UNL1       -0.0042
     32 C          -7.1518  -15.4874   25.3099 C.ar    1  UNL1       -0.0228
     33 C          -8.5572  -15.3745   25.3788 C.ar    1  UNL1       -0.0042
     34 C          -9.1910  -14.8873   26.5245 C.ar    1  UNL1        0.0027
     35 C          -6.4924  -16.0308   24.0252 C.3     1  UNL1        0.0189
     36 C          -5.0584  -16.5071   24.3441 C.3     1  UNL1        0.0044
     37 C          -7.3189  -17.2181   23.4849 C.3     1  UNL1        0.0044
     38 C          -6.3963  -14.9741   22.8984 C.3     1  UNL1        0.0044
     39 O         -12.3208  -14.9548   31.4105 O.3     1  UNL1       -0.4699
     40 C         -12.5563  -15.8771   32.4686 C.3     1  UNL1        0.2525
@<TRIPOS>BOND
     1    27    28    1
     2    28    18    1
     3    18    19    1
     4    19    20    2
     5    20    17    1
     6    17    11    1
     7    11    12    1
     8    12    13    1
     9    13    14    1
    10    14     1    1
    11     1     2   ar
    12     2     3   ar
    13     3     4   ar
    14     4    39    1
    15    39    40    1
    16     4     5   ar
    17     5     6   ar
    18     6     7   ar
    19     7    29    1
    20    29    30   ar
    21    30    31   ar
    22    31    32   ar
    23    32    35    1
    24    35    36    1
    25    35    37    1
    26    35    38    1
    27    32    33   ar
    28    33    34   ar
    29     7     8   ar
    30     8     9   ar
    31    14    15    1
    32    15    16    1
    33    20    21    1
    34    21    22    2
    35    21    23    1
    36    23    24    1
    37    24    25    2
    38    24    18    1
    39    16    11    1
    40     9     1   ar
    41     9     5   ar
    42    34    29   ar
    43     6    10    1
    44    23    26    1
@<TRIPOS>MOLECULE
*****
 40 44 0 0 0
SMALL
GASTEIGER

@<TRIPOS>ATOM
      1 C          -5.8232  -12.3328   27.9579 C.ar    1  UNL1        0.0675
      2 C          -4.8087  -11.4007   27.6497 C.ar    1  UNL1        0.0193
      3 C          -4.6895  -10.1960   28.3776 C.ar    1  UNL1        0.0398
      4 C          -5.5892   -9.8995   29.4294 C.ar    1  UNL1        0.1557
      5 C          -6.5789  -10.8429   29.7036 C.ar    1  UNL1        0.1112
      6 N          -7.5445  -10.7845   30.6305 N.ar    1  UNL1       -0.3349
      7 C          -8.2385  -11.9410   30.4605 C.ar    1  UNL1        0.1406
      8 N          -7.7403  -12.7183   29.4618 N.ar    1  UNL1       -0.2257
      9 C          -6.6941  -12.0075   29.0047 C.ar    1  UNL1        0.1146
     10 H          -7.7037  -10.0162   31.3181 H       1  UNL1        0.1675
     11 N          -6.3971  -15.8336   25.5993 N.3     1  UNL1       -0.2655
     12 C          -7.4586  -15.3558   26.5087 C.3     1  UNL1        0.0941
     13 C          -6.8449  -14.6153   27.6987 C.3     1  UNL1        0.1082
     14 N          -5.9423  -13.5638   27.2212 N.pl3   1  UNL1       -0.3034
     15 C          -4.9559  -13.9199   26.1972 C.3     1  UNL1        0.1082
     16 C          -5.6394  -14.6828   25.0613 C.3     1  UNL1        0.0941
     17 C          -6.9886  -16.6283   24.5030 C.3     1  UNL1        0.1154
     18 N          -4.5215  -16.1102   21.6877 N.am    1  UNL1       -0.0442
     19 C          -5.0747  -16.4970   22.8750 C.2     1  UNL1        0.2969
     20 C          -6.4102  -16.2069   23.1725 C.2     1  UNL1        0.1684
     21 C          -7.1559  -15.4943   22.2222 C.2     1  UNL1        0.4261
     22 O          -8.3613  -15.1963   22.4429 O.2     1  UNL1       -0.2139
     23 N          -6.5749  -15.1139   21.0543 N.am    1  UNL1       -0.0486
     24 C          -5.2740  -15.4068   20.7832 C.2     1  UNL1        0.6659
     25 O          -4.7698  -15.0199   19.6927 O.2     1  UNL1       -0.1527
     26 H          -7.1368  -14.5785   20.3530 H       1  UNL1        0.4575
     27 C          -2.5876  -17.4433   22.4233 C.3     1  UNL1        0.0920
     28 C          -3.1032  -16.4071   21.4301 C.3     1  UNL1        0.3234
     29 C          -9.4188  -12.3398   31.2690 C.ar    1  UNL1        0.0339
     30 C          -9.4100  -12.1480   32.6592 C.ar    1  UNL1        0.0027
     31 C         -10.5086  -12.5152   33.4407 C.ar    1  UNL1       -0.0042
     32 C         -11.6588  -13.0912   32.8550 C.ar    1  UNL1       -0.0228
     33 C         -11.6543  -13.2818   31.4564 C.ar    1  UNL1       -0.0042
     34 C         -10.5549  -12.9136   30.6771 C.ar    1  UNL1        0.0027
     35 C         -12.8941  -13.5120   33.6781 C.3     1  UNL1        0.0189
     36 C         -13.8178  -12.2913   33.8816 C.3     1  UNL1        0.0044
     37 C         -13.6639  -14.6173   32.9227 C.3     1  UNL1        0.0044
     38 C         -12.5316  -14.0649   35.0777 C.3     1  UNL1        0.0044
     39 O          -5.5240   -8.7205   30.1855 O.3     1  UNL1       -0.4699
     40 C          -6.3225   -7.5687   29.9376 C.3     1  UNL1        0.2525
@<TRIPOS>BOND
     1    27    28    1
     2    28    18    1
     3    18    19    1
     4    19    20    2
     5    20    17    1
     6    17    11    1
     7    11    12    1
     8    12    13    1
     9    13    14    1
    10    14     1    1
    11     1     2   ar
    12     2     3   ar
    13     3     4   ar
    14     4    39    1
    15    39    40    1
    16     4     5   ar
    17     5     6   ar
    18     6     7   ar
    19     7    29    1
    20    29    30   ar
    21    30    31   ar
    22    31    32   ar
    23    32    35    1
    24    35    36    1
    25    35    37    1
    26    35    38    1
    27    32    33   ar
    28    33    34   ar
    29     7     8   ar
    30     8     9   ar
    31    14    15    1
    32    15    16    1
    33    20    21    1
    34    21    22    2
    35    21    23    1
    36    23    24    1
    37    24    25    2
    38    24    18    1
    39    16    11    1
    40     9     1   ar
    41     9     5   ar
    42    34    29   ar
    43     6    10    1
    44    23    26    1
@<TRIPOS>MOLECULE
*****
 40 44 0 0 0
SMALL
GASTEIGER

@<TRIPOS>ATOM
      1 C         -10.0567   -7.0587   30.4924 C.ar    1  UNL1        0.0675
      2 C         -10.3689   -5.6855   30.5915 C.ar    1  UNL1        0.0193
      3 C         -11.4858   -5.2509   31.3391 C.ar    1  UNL1        0.0398
      4 C         -12.3158   -6.1867   32.0015 C.ar    1  UNL1        0.1557
      5 C         -11.9772   -7.5340   31.8796 C.ar    1  UNL1        0.1112
      6 N         -12.6086   -8.5966   32.3966 N.ar    1  UNL1       -0.3349
      7 C         -11.8803   -9.6593   31.9626 C.ar    1  UNL1        0.1406
      8 N         -10.8178   -9.2978   31.1944 N.ar    1  UNL1       -0.2257
      9 C         -10.8983   -7.9557   31.1612 C.ar    1  UNL1        0.1146
     10 H         -13.4618   -8.5843   32.9967 H       1  UNL1        0.1675
     11 N          -6.5771   -8.5203   28.5166 N.3     1  UNL1       -0.2655
     12 C          -6.4672   -7.5010   29.5801 C.3     1  UNL1        0.0941
     13 C          -7.7333   -6.6431   29.6265 C.3     1  UNL1        0.1082
     14 N          -8.9153   -7.5028   29.7360 N.pl3   1  UNL1       -0.3034
     15 C          -9.0254   -8.6376   28.8148 C.3     1  UNL1        0.1082
     16 C          -7.7134   -9.4236   28.8007 C.3     1  UNL1        0.0941
     17 C          -5.3160   -9.2833   28.4135 C.3     1  UNL1        0.1154
     18 N          -5.8912  -10.8635   31.7976 N.am    1  UNL1       -0.0442
     19 C          -6.0796  -10.1488   30.6491 C.2     1  UNL1        0.2969
     20 C          -5.0881  -10.1000   29.6639 C.2     1  UNL1        0.1684
     21 C          -3.8920  -10.7931   29.8995 C.2     1  UNL1        0.4261
     22 O          -2.9601  -10.7744   29.0500 O.2     1  UNL1       -0.2139
     23 N          -3.7297  -11.4869   31.0565 N.am    1  UNL1       -0.0486
     24 C          -4.7070  -11.5229   32.0027 C.2     1  UNL1        0.6659
     25 O          -4.5077  -12.1664   33.0700 O.2     1  UNL1       -0.1527
     26 H          -2.8326  -11.9972   31.2264 H       1  UNL1        0.4575
     27 C          -7.7071   -9.5378   32.7993 C.3     1  UNL1        0.0920
     28 C          -6.9476  -10.8601   32.8225 C.3     1  UNL1        0.3234
     29 C         -12.1890  -11.0766   32.2817 C.ar    1  UNL1        0.0339
     30 C         -13.2738  -11.7124   31.6584 C.ar    1  UNL1        0.0027
     31 C         -13.5837  -13.0450   31.9424 C.ar    1  UNL1       -0.0042
     32 C         -12.8157  -13.7903   32.8658 C.ar    1  UNL1       -0.0228
     33 C         -11.7292  -13.1388   33.4883 C.ar    1  UNL1       -0.0042
     34 C         -11.4211  -11.8065   33.2024 C.ar    1  UNL1        0.0027
     35 C         -13.1211  -15.2629   33.2103 C.3     1  UNL1        0.0189
     36 C         -12.3823  -16.1878   32.2185 C.3     1  UNL1        0.0044
     37 C         -12.6426  -15.5652   34.6471 C.3     1  UNL1        0.0044
     38 C         -14.6290  -15.6038   33.1359 C.3     1  UNL1        0.0044
     39 O         -13.4389   -5.8177   32.7555 O.3     1  UNL1       -0.4699
     40 C         -13.3830   -5.0150   33.9294 C.3     1  UNL1        0.2525
@<TRIPOS>BOND
     1    27    28    1
     2    28    18    1
     3    18    19    1
     4    19    20    2
     5    20    17    1
     6    17    11    1
     7    11    12    1
     8    12    13    1
     9    13    14    1
    10    14     1    1
    11     1     2   ar
    12     2     3   ar
    13     3     4   ar
    14     4    39    1
    15    39    40    1
    16     4     5   ar
    17     5     6   ar
    18     6     7   ar
    19     7    29    1
    20    29    30   ar
    21    30    31   ar
    22    31    32   ar
    23    32    35    1
    24    35    36    1
    25    35    37    1
    26    35    38    1
    27    32    33   ar
    28    33    34   ar
    29     7     8   ar
    30     8     9   ar
    31    14    15    1
    32    15    16    1
    33    20    21    1
    34    21    22    2
    35    21    23    1
    36    23    24    1
    37    24    25    2
    38    24    18    1
    39    16    11    1
    40     9     1   ar
    41     9     5   ar
    42    34    29   ar
    43     6    10    1
    44    23    26    1
@<TRIPOS>MOLECULE
*****
 40 44 0 0 0
SMALL
GASTEIGER

@<TRIPOS>ATOM
      1 C          -8.9336  -17.3145   23.8104 C.ar    1  UNL1        0.0675
      2 C         -10.2793  -17.6394   23.5339 C.ar    1  UNL1        0.0193
      3 C         -10.6071  -18.5277   22.4857 C.ar    1  UNL1        0.0398
      4 C          -9.5900  -19.1070   21.6898 C.ar    1  UNL1        0.1557
      5 C          -8.2731  -18.7613   21.9914 C.ar    1  UNL1        0.1112
      6 N          -7.1508  -19.1630   21.3799 N.ar    1  UNL1       -0.3349
      7 C          -6.1585  -18.5214   22.0521 C.ar    1  UNL1        0.1406
      8 N          -6.6214  -17.7347   23.0604 N.ar    1  UNL1       -0.2257
      9 C          -7.9541  -17.9067   23.0043 C.ar    1  UNL1        0.1146
     10 H          -7.0807  -19.8230   20.5750 H       1  UNL1        0.1675
     11 N          -7.6808  -14.8282   27.0348 N.3     1  UNL1       -0.2655
     12 C          -8.1396  -16.2102   27.2836 C.3     1  UNL1        0.0941
     13 C          -9.1554  -16.6321   26.2200 C.3     1  UNL1        0.1082
     14 N          -8.5975  -16.4142   24.8822 N.pl3   1  UNL1       -0.3034
     15 C          -7.9787  -15.1156   24.6007 C.3     1  UNL1        0.1082
     16 C          -7.0042  -14.7511   25.7218 C.3     1  UNL1        0.0941
     17 C          -6.7732  -14.3930   28.1166 C.3     1  UNL1        0.1154
     18 N          -6.8913  -11.0348   29.8455 N.am    1  UNL1       -0.0442
     19 C          -6.4312  -12.1542   29.2127 C.2     1  UNL1        0.2969
     20 C          -7.3135  -13.1557   28.7946 C.2     1  UNL1        0.1684
     21 C          -8.6796  -12.9813   29.0593 C.2     1  UNL1        0.4261
     22 O          -9.5182  -13.8577   28.7141 O.2     1  UNL1       -0.2139
     23 N          -9.1061  -11.8616   29.7000 N.am    1  UNL1       -0.0486
     24 C          -8.2317  -10.8979   30.0981 C.2     1  UNL1        0.6659
     25 O          -8.6695   -9.8814   30.7047 O.2     1  UNL1       -0.1527
     26 H         -10.1262  -11.7416   29.8978 H       1  UNL1        0.4575
     27 C          -5.0341  -10.5903   31.3984 C.3     1  UNL1        0.0920
     28 C          -5.9244  -10.0218   30.2983 C.3     1  UNL1        0.3234
     29 C          -4.7121  -18.6505   21.7404 C.ar    1  UNL1        0.0339
     30 C          -3.7900  -17.7704   22.3275 C.ar    1  UNL1        0.0027
     31 C          -2.4244  -17.8723   22.0496 C.ar    1  UNL1       -0.0042
     32 C          -1.9324  -18.8624   21.1690 C.ar    1  UNL1       -0.0228
     33 C          -2.8700  -19.7395   20.5824 C.ar    1  UNL1       -0.0042
     34 C          -4.2348  -19.6359   20.8621 C.ar    1  UNL1        0.0027
     35 C          -0.4340  -19.0118   20.8328 C.3     1  UNL1        0.0189
     36 C          -0.0968  -20.5059   20.6360 C.3     1  UNL1        0.0044
     37 C          -0.1185  -18.2394   19.5333 C.3     1  UNL1        0.0044
     38 C           0.4949  -18.4631   21.9426 C.3     1  UNL1        0.0044
     39 O          -9.8521  -19.9923   20.6345 O.3     1  UNL1       -0.4699
     40 C         -10.2521  -19.5837   19.3312 C.3     1  UNL1        0.2525
@<TRIPOS>BOND
     1    27    28    1
     2    28    18    1
     3    18    19    1
     4    19    20    2
     5    20    17    1
     6    17    11    1
     7    11    12    1
     8    12    13    1
     9    13    14    1
    10    14     1    1
    11     1     2   ar
    12     2     3   ar
    13     3     4   ar
    14     4    39    1
    15    39    40    1
    16     4     5   ar
    17     5     6   ar
    18     6     7   ar
    19     7    29    1
    20    29    30   ar
    21    30    31   ar
    22    31    32   ar
    23    32    35    1
    24    35    36    1
    25    35    37    1
    26    35    38    1
    27    32    33   ar
    28    33    34   ar
    29     7     8   ar
    30     8     9   ar
    31    14    15    1
    32    15    16    1
    33    20    21    1
    34    21    22    2
    35    21    23    1
    36    23    24    1
    37    24    25    2
    38    24    18    1
    39    16    11    1
    40     9     1   ar
    41     9     5   ar
    42    34    29   ar
    43     6    10    1
    44    23    26    1
@<TRIPOS>MOLECULE
*****
 40 44 0 0 0
SMALL
GASTEIGER

@<TRIPOS>ATOM
      1 C          -5.8120  -11.3165   29.1909 C.ar    1  UNL1        0.0675
      2 C          -4.8166  -10.3168   29.2437 C.ar    1  UNL1        0.0193
      3 C          -4.7927   -9.3765   30.2975 C.ar    1  UNL1        0.0398
      4 C          -5.7703   -9.4178   31.3203 C.ar    1  UNL1        0.1557
      5 C          -6.7382  -10.4180   31.2337 C.ar    1  UNL1        0.1112
      6 N          -7.7641  -10.6514   32.0632 N.ar    1  UNL1       -0.3349
      7 C          -8.3997  -11.7197   31.5129 C.ar    1  UNL1        0.1406
      8 N          -7.8071  -12.1609   30.3709 N.ar    1  UNL1       -0.2257
      9 C          -6.7617  -11.3284   30.2195 C.ar    1  UNL1        0.1146
     10 H          -7.9980  -10.1215   32.9309 H       1  UNL1        0.1675
     11 N          -5.6832  -14.3467   26.1994 N.3     1  UNL1       -0.2655
     12 C          -4.4849  -13.5387   26.5050 C.3     1  UNL1        0.0941
     13 C          -4.8932  -12.1513   27.0047 C.3     1  UNL1        0.1082
     14 N          -5.8343  -12.2794   28.1210 N.pl3   1  UNL1       -0.3034
     15 C          -6.9731  -13.1875   27.9569 C.3     1  UNL1        0.1082
     16 C          -6.4881  -14.5372   27.4255 C.3     1  UNL1        0.0941
     17 C          -5.2838  -15.6498   25.6287 C.3     1  UNL1        0.1154
     18 N          -4.1502  -16.0478   22.0458 N.am    1  UNL1       -0.0442
     19 C          -4.1910  -16.1098   23.4096 C.2     1  UNL1        0.2969
     20 C          -5.2766  -15.5864   24.1193 C.2     1  UNL1        0.1684
     21 C          -6.3109  -14.9836   23.3889 C.2     1  UNL1        0.4261
     22 O          -7.3085  -14.4857   23.9783 O.2     1  UNL1       -0.2139
     23 N          -6.2371  -14.9277   22.0333 N.am    1  UNL1       -0.0486
     24 C          -5.1726  -15.4438   21.3609 C.2     1  UNL1        0.6659
     25 O          -5.1373  -15.3556   20.1023 O.2     1  UNL1       -0.1527
     26 H          -7.0106  -14.4721   21.4964 H       1  UNL1        0.4575
     27 C          -2.1977  -17.5331   22.2461 C.3     1  UNL1        0.0920
     28 C          -2.9731  -16.5811   21.3413 C.3     1  UNL1        0.3234
     29 C          -9.6140  -12.3594   32.0803 C.ar    1  UNL1        0.0339
     30 C         -10.5986  -12.8728   31.2220 C.ar    1  UNL1        0.0027
     31 C         -11.7496  -13.4790   31.7323 C.ar    1  UNL1       -0.0042
     32 C         -11.9565  -13.5912   33.1260 C.ar    1  UNL1       -0.0228
     33 C         -10.9606  -13.0682   33.9788 C.ar    1  UNL1       -0.0042
     34 C          -9.8106  -12.4630   33.4662 C.ar    1  UNL1        0.0027
     35 C         -13.2113  -14.2518   33.7340 C.3     1  UNL1        0.0189
     36 C         -13.1015  -14.2456   35.2743 C.3     1  UNL1        0.0044
     37 C         -14.4674  -13.4618   33.3062 C.3     1  UNL1        0.0044
     38 C         -13.4036  -15.7199   33.2829 C.3     1  UNL1        0.0044
     39 O          -5.8010   -8.5113   32.3895 O.3     1  UNL1       -0.4699
     40 C          -6.4492   -7.2450   32.3434 C.3     1  UNL1        0.2525
@<TRIPOS>BOND
     1    27    28    1
     2    28    18    1
     3    18    19    1
     4    19    20    2
     5    20    17    1
     6    17    11    1
     7    11    12    1
     8    12    13    1
     9    13    14    1
    10    14     1    1
    11     1     2   ar
    12     2     3   ar
    13     3     4   ar
    14     4    39    1
    15    39    40    1
    16     4     5   ar
    17     5     6   ar
    18     6     7   ar
    19     7    29    1
    20    29    30   ar
    21    30    31   ar
    22    31    32   ar
    23    32    35    1
    24    35    36    1
    25    35    37    1
    26    35    38    1
    27    32    33   ar
    28    33    34   ar
    29     7     8   ar
    30     8     9   ar
    31    14    15    1
    32    15    16    1
    33    20    21    1
    34    21    22    2
    35    21    23    1
    36    23    24    1
    37    24    25    2
    38    24    18    1
    39    16    11    1
    40     9     1   ar
    41     9     5   ar
    42    34    29   ar
    43     6    10    1
    44    23    26    1
@<TRIPOS>MOLECULE
*****
 40 44 0 0 0
SMALL
GASTEIGER

@<TRIPOS>ATOM
      1 C          -5.9135  -10.9397   29.6067 C.ar    1  UNL1        0.0675
      2 C          -4.9727   -9.8971   29.7503 C.ar    1  UNL1        0.0193
      3 C          -5.0262   -9.0237   30.8592 C.ar    1  UNL1        0.0398
      4 C          -6.0283   -9.1766   31.8471 C.ar    1  UNL1        0.1557
      5 C          -6.9409  -10.2163   31.6705 C.ar    1  UNL1        0.1112
      6 N          -7.9759  -10.5512   32.4524 N.ar    1  UNL1       -0.3349
      7 C          -8.5403  -11.6136   31.8193 C.ar    1  UNL1        0.1406
      8 N          -7.8945  -11.9533   30.6715 N.ar    1  UNL1       -0.2257
      9 C          -6.8895  -11.0623   30.6029 C.ar    1  UNL1        0.1146
     10 H          -8.2607  -10.0882   33.3429 H       1  UNL1        0.1675
     11 N          -5.5327  -13.7594   26.4361 N.3     1  UNL1       -0.2655
     12 C          -4.4122  -12.8621   26.7846 C.3     1  UNL1        0.0941
     13 C          -4.9433  -11.5517   27.3695 C.3     1  UNL1        0.1082
     14 N          -5.8567  -11.8345   28.4804 N.pl3   1  UNL1       -0.3034
     15 C          -6.9071  -12.8342   28.2668 C.3     1  UNL1        0.1082
     16 C          -6.3035  -14.0980   27.6522 C.3     1  UNL1        0.0941
     17 C          -5.0190  -14.9826   25.7855 C.3     1  UNL1        0.1154
     18 N          -8.0779  -15.9966   23.8118 N.am    1  UNL1       -0.0442
     19 C          -7.2616  -15.6216   24.8406 C.2     1  UNL1        0.2969
     20 C          -5.9021  -15.3747   24.6241 C.2     1  UNL1        0.1684
     21 C          -5.4025  -15.5394   23.3241 C.2     1  UNL1        0.4261
     22 O          -4.1824  -15.3407   23.0743 O.2     1  UNL1       -0.2139
     23 N          -6.2372  -15.9236   22.3231 N.am    1  UNL1       -0.0486
     24 C          -7.5575  -16.1582   22.5539 C.2     1  UNL1        0.6659
     25 O          -8.2936  -16.5292   21.5982 O.2     1  UNL1       -0.1527
     26 H          -5.8554  -16.0488   21.3573 H       1  UNL1        0.4575
     27 C          -9.6661  -17.7146   24.5764 C.3     1  UNL1        0.0920
     28 C          -9.4952  -16.2789   24.0910 C.3     1  UNL1        0.3234
     29 C          -9.7355  -12.3465   32.3094 C.ar    1  UNL1        0.0339
     30 C         -10.6823  -12.8301   31.3933 C.ar    1  UNL1        0.0027
     31 C         -11.8146  -13.5225   31.8305 C.ar    1  UNL1       -0.0042
     32 C         -12.0401  -13.7545   33.2064 C.ar    1  UNL1       -0.0228
     33 C         -11.0822  -13.2605   34.1180 C.ar    1  UNL1       -0.0042
     34 C          -9.9508  -12.5689   33.6785 C.ar    1  UNL1        0.0027
     35 C         -13.2754  -14.5132   33.7345 C.3     1  UNL1        0.0189
     36 C         -13.2600  -14.5109   35.2787 C.3     1  UNL1        0.0044
     37 C         -14.5598  -13.8175   33.2334 C.3     1  UNL1        0.0044
     38 C         -13.3275  -15.9880   33.2677 C.3     1  UNL1        0.0044
     39 O          -6.1352   -8.3407   32.9676 O.3     1  UNL1       -0.4699
     40 C          -6.7226   -7.0445   32.9428 C.3     1  UNL1        0.2525
@<TRIPOS>BOND
     1    27    28    1
     2    28    18    1
     3    18    19    1
     4    19    20    2
     5    20    17    1
     6    17    11    1
     7    11    12    1
     8    12    13    1
     9    13    14    1
    10    14     1    1
    11     1     2   ar
    12     2     3   ar
    13     3     4   ar
    14     4    39    1
    15    39    40    1
    16     4     5   ar
    17     5     6   ar
    18     6     7   ar
    19     7    29    1
    20    29    30   ar
    21    30    31   ar
    22    31    32   ar
    23    32    35    1
    24    35    36    1
    25    35    37    1
    26    35    38    1
    27    32    33   ar
    28    33    34   ar
    29     7     8   ar
    30     8     9   ar
    31    14    15    1
    32    15    16    1
    33    20    21    1
    34    21    22    2
    35    21    23    1
    36    23    24    1
    37    24    25    2
    38    24    18    1
    39    16    11    1
    40     9     1   ar
    41     9     5   ar
    42    34    29   ar
    43     6    10    1
    44    23    26    1
@<TRIPOS>MOLECULE
*****
 40 44 0 0 0
SMALL
GASTEIGER

@<TRIPOS>ATOM
      1 C          -5.8366  -12.2831   27.8809 C.ar    1  UNL1        0.0675
      2 C          -4.8794  -11.3018   27.5437 C.ar    1  UNL1        0.0193
      3 C          -4.8307  -10.0721   28.2371 C.ar    1  UNL1        0.0398
      4 C          -5.7449   -9.7997   29.2829 C.ar    1  UNL1        0.1557
      5 C          -6.6768  -10.7918   29.5864 C.ar    1  UNL1        0.1112
      6 N          -7.6429  -10.7645   30.5141 N.ar    1  UNL1       -0.3349
      7 C          -8.2675  -11.9643   30.3787 C.ar    1  UNL1        0.1406
      8 N          -7.7256  -12.7387   29.4007 N.ar    1  UNL1       -0.2257
      9 C          -6.7238  -11.9805   28.9208 C.ar    1  UNL1        0.1146
     10 H          -7.8464   -9.9879   31.1803 H       1  UNL1        0.1675
     11 N          -6.1095  -15.8459   25.5614 N.3     1  UNL1       -0.2655
     12 C          -7.3277  -15.1846   26.0722 C.3     1  UNL1        0.0941
     13 C          -7.0223  -14.4415   27.3743 C.3     1  UNL1        0.1082
     14 N          -5.8837  -13.5393   27.1794 N.pl3   1  UNL1       -0.3034
     15 C          -4.6842  -14.0791   26.5327 C.3     1  UNL1        0.1082
     16 C          -5.0751  -14.8324   25.2602 C.3     1  UNL1        0.0941
     17 C          -6.4305  -16.6389   24.3566 C.3     1  UNL1        0.1154
     18 N         -10.1279  -17.3693   24.0799 N.am    1  UNL1       -0.0442
     19 C          -8.8053  -17.4685   24.4059 C.2     1  UNL1        0.2969
     20 C          -7.8911  -16.4911   23.9997 C.2     1  UNL1        0.1684
     21 C          -8.3717  -15.4177   23.2359 C.2     1  UNL1        0.4261
     22 O          -7.5897  -14.5138   22.8337 O.2     1  UNL1       -0.2139
     23 N          -9.6913  -15.3518   22.9184 N.am    1  UNL1       -0.0486
     24 C         -10.5653  -16.3126   23.3241 C.2     1  UNL1        0.6659
     25 O         -11.7797  -16.2203   22.9928 O.2     1  UNL1       -0.1527
     26 H         -10.0407  -14.5503   22.3442 H       1  UNL1        0.4575
     27 C         -10.2698  -19.6887   24.8916 C.3     1  UNL1        0.0920
     28 C         -11.0491  -18.4377   24.4995 C.3     1  UNL1        0.3234
     29 C          -9.4211  -12.4091   31.2015 C.ar    1  UNL1        0.0339
     30 C          -9.4160  -12.1900   32.5877 C.ar    1  UNL1        0.0027
     31 C         -10.4898  -12.5994   33.3825 C.ar    1  UNL1       -0.0042
     32 C         -11.6105  -13.2470   32.8148 C.ar    1  UNL1       -0.0228
     33 C         -11.6025  -13.4645   31.4201 C.ar    1  UNL1       -0.0042
     34 C         -10.5279  -13.0538   30.6275 C.ar    1  UNL1        0.0027
     35 C         -12.8178  -13.7165   33.6530 C.3     1  UNL1        0.0189
     36 C         -13.7689  -12.5249   33.8986 C.3     1  UNL1        0.0044
     37 C         -13.5732  -14.8269   32.8907 C.3     1  UNL1        0.0044
     38 C         -12.4132  -14.2866   35.0340 C.3     1  UNL1        0.0044
     39 O          -5.7486   -8.5981   30.0053 O.3     1  UNL1       -0.4699
     40 C          -6.6513   -7.5246   29.7635 C.3     1  UNL1        0.2525
@<TRIPOS>BOND
     1    27    28    1
     2    28    18    1
     3    18    19    1
     4    19    20    2
     5    20    17    1
     6    17    11    1
     7    11    12    1
     8    12    13    1
     9    13    14    1
    10    14     1    1
    11     1     2   ar
    12     2     3   ar
    13     3     4   ar
    14     4    39    1
    15    39    40    1
    16     4     5   ar
    17     5     6   ar
    18     6     7   ar
    19     7    29    1
    20    29    30   ar
    21    30    31   ar
    22    31    32   ar
    23    32    35    1
    24    35    36    1
    25    35    37    1
    26    35    38    1
    27    32    33   ar
    28    33    34   ar
    29     7     8   ar
    30     8     9   ar
    31    14    15    1
    32    15    16    1
    33    20    21    1
    34    21    22    2
    35    21    23    1
    36    23    24    1
    37    24    25    2
    38    24    18    1
    39    16    11    1
    40     9     1   ar
    41     9     5   ar
    42    34    29   ar
    43     6    10    1
    44    23    26    1
