@<TRIPOS>MOLECULE
*****
 37 42 0 0 0
SMALL
GASTEIGER

@<TRIPOS>ATOM
      1 C          49.3517   10.3529  -26.7252 C.ar    1  UNL1        0.1095
      2 N          49.0014    9.3384  -27.5552 N.ar    1  UNL1       -0.1677
      3 N          50.0639    9.0130  -28.2813 N.ar    1  UNL1       -0.2319
      4 C          50.0513    8.0333  -29.3593 C.3     1  UNL1        0.1554
      5 C          51.0730    9.8309  -27.9460 C.ar    1  UNL1        0.1654
      6 N          52.2970    9.8933  -28.5223 N.ar    1  UNL1       -0.2050
      7 C          53.1791   10.8254  -28.0581 C.ar    1  UNL1        0.2014
      8 N          52.8349   11.6510  -27.0208 N.ar    1  UNL1       -0.2089
      9 C          51.6003   11.5995  -26.4344 C.ar    1  UNL1        0.1379
     10 C          50.6859   10.6743  -26.9490 C.ar    1  UNL1        0.0865
     11 C          47.2678   11.8317  -26.3946 C.ar    1  UNL1        0.0809
     12 C          48.3610   11.1029  -25.9436 C.ar    1  UNL1        0.0577
     13 C          48.2701   11.1201  -24.5675 C.ar    1  UNL1        0.1231
     14 N          47.1914   11.8375  -24.2030 N.ar    1  UNL1       -0.1676
     15 N          46.5854   12.2577  -25.3036 N.ar    1  UNL1       -0.2488
     16 C          45.3352   13.0107  -25.2688 C.3     1  UNL1        0.1537
     17 C          45.5577   12.4170  -31.9126 C.3     1  UNL1        0.0310
     18 C          46.0168   12.2684  -30.4927 C.ar    1  UNL1       -0.0218
     19 C          46.3719   11.0089  -29.9907 C.ar    1  UNL1       -0.0042
     20 C          46.7696   10.8671  -28.6586 C.ar    1  UNL1        0.0012
     21 C          46.8234   11.9834  -27.8053 C.ar    1  UNL1        0.0174
     22 C          46.4387   13.2376  -28.3070 C.ar    1  UNL1        0.0012
     23 C          46.0280   13.3765  -29.6358 C.ar    1  UNL1       -0.0042
     24 N          51.3388   12.3737  -25.2539 N.pl3   1  UNL1       -0.2917
     25 C          52.0479   12.1241  -24.0049 C.3     1  UNL1        0.0937
     26 C          51.8001   13.3488  -23.1346 C.3     1  UNL1        0.0391
     27 C          51.4403   14.4558  -24.1241 C.3     1  UNL1        0.0790
     28 C          50.8224   13.7338  -25.3235 C.3     1  UNL1        0.1081
     29 N          50.6166   15.5249  -23.4988 N.3     1  UNL1       -0.2723
     30 C          49.3572   15.1606  -22.8049 C.3     1  UNL1        0.0721
     31 C          48.0872   15.3651  -23.6592 C.3     1  UNL1        0.0174
     32 C          48.0758   16.7224  -24.3804 C.3     1  UNL1        0.0028
     33 C          49.3819   16.8849  -25.1774 C.3     1  UNL1        0.0174
     34 C          50.5761   16.8088  -24.2270 C.3     1  UNL1        0.0721
     35 C          46.7861   16.9098  -25.2406 C.3     1  UNL1        0.0001
     36 C          46.3215   18.3743  -25.2448 C.3     1  UNL1        0.0000
     37 C          46.9137   16.3976  -26.6872 C.3     1  UNL1        0.0000
@<TRIPOS>BOND
     1    17    18    1
     2    18    19   ar
     3    19    20   ar
     4    20    21   ar
     5    21    11    1
     6    11    12   ar
     7    12     1    1
     8     1     2   ar
     9     2     3   ar
    10     3     4    1
    11     3     5   ar
    12     5     6   ar
    13     6     7   ar
    14     7     8   ar
    15     8     9   ar
    16     9    24    1
    17    24    25    1
    18    25    26    1
    19    26    27    1
    20    27    29    1
    21    29    30    1
    22    30    31    1
    23    31    32    1
    24    32    35    1
    25    35    36    1
    26    35    37    1
    27    32    33    1
    28    33    34    1
    29    27    28    1
    30     9    10   ar
    31    12    13   ar
    32    13    14   ar
    33    14    15   ar
    34    15    16    1
    35    21    22   ar
    36    22    23   ar
    37    23    18   ar
    38    15    11   ar
    39    10     1   ar
    40    10     5   ar
    41    28    24    1
    42    34    29    1
@<TRIPOS>MOLECULE
*****
 37 42 0 0 0
SMALL
GASTEIGER

@<TRIPOS>ATOM
      1 C          47.9513   15.5385  -24.0954 C.ar    1  UNL1        0.1095
      2 N          46.8212   16.1666  -24.5068 N.ar    1  UNL1       -0.1677
      3 N          47.1706   17.3090  -25.0855 N.ar    1  UNL1       -0.2319
      4 C          46.2250   18.3090  -25.5627 C.3     1  UNL1        0.1554
      5 C          48.5050   17.4285  -25.0157 C.ar    1  UNL1        0.1654
      6 N          49.2489   18.4925  -25.4017 N.ar    1  UNL1       -0.2050
      7 C          50.5993   18.4345  -25.2135 C.ar    1  UNL1        0.2014
      8 N          51.1777   17.3165  -24.6735 N.ar    1  UNL1       -0.2089
      9 C          50.4357   16.2383  -24.2764 C.ar    1  UNL1        0.1379
     10 C          49.0479   16.3263  -24.4280 C.ar    1  UNL1        0.0865
     11 C          47.6163   13.0433  -23.5473 C.ar    1  UNL1        0.0809
     12 C          47.9182   14.3595  -23.2216 C.ar    1  UNL1        0.0577
     13 C          48.3088   14.3291  -21.8991 C.ar    1  UNL1        0.1231
     14 N          48.2289   13.0659  -21.4418 N.ar    1  UNL1       -0.1676
     15 N          47.8201   12.2929  -22.4370 N.ar    1  UNL1       -0.2488
     16 C          47.6921   10.8451  -22.3005 C.3     1  UNL1        0.1537
     17 C          46.3390   10.9592  -28.8143 C.3     1  UNL1        0.0310
     18 C          46.6707   11.4803  -27.4477 C.ar    1  UNL1       -0.0218
     19 C          45.6556   11.6952  -26.5054 C.ar    1  UNL1       -0.0042
     20 C          45.9627   12.2103  -25.2431 C.ar    1  UNL1        0.0012
     21 C          47.2913   12.5158  -24.8989 C.ar    1  UNL1        0.0174
     22 C          48.2997   12.3249  -25.8578 C.ar    1  UNL1        0.0012
     23 C          47.9902   11.8225  -27.1249 C.ar    1  UNL1       -0.0042
     24 N          51.0955   15.0326  -23.8614 N.pl3   1  UNL1       -0.2917
     25 C          51.2563   14.6969  -22.4519 C.3     1  UNL1        0.0937
     26 C          51.6290   13.2210  -22.4162 C.3     1  UNL1        0.0391
     27 C          51.1186   12.6645  -23.7443 C.3     1  UNL1        0.0790
     28 C          51.1459   13.8506  -24.7109 C.3     1  UNL1        0.1081
     29 N          51.8618   11.4479  -24.1685 N.3     1  UNL1       -0.2723
     30 C          52.9296   11.5674  -25.1911 C.3     1  UNL1        0.0721
     31 C          52.4781   11.1887  -26.6184 C.3     1  UNL1        0.0174
     32 C          51.6734    9.8795  -26.6528 C.3     1  UNL1        0.0028
     33 C          50.5120    9.9708  -25.6477 C.3     1  UNL1        0.0174
     34 C          51.0659   10.2064  -24.2432 C.3     1  UNL1        0.0721
     35 C          51.2238    9.5146  -28.1030 C.3     1  UNL1        0.0001
     36 C          52.4031    9.0038  -28.9450 C.3     1  UNL1        0.0000
     37 C          50.0605    8.5076  -28.1672 C.3     1  UNL1        0.0000
@<TRIPOS>BOND
     1    17    18    1
     2    18    19   ar
     3    19    20   ar
     4    20    21   ar
     5    21    11    1
     6    11    12   ar
     7    12     1    1
     8     1     2   ar
     9     2     3   ar
    10     3     4    1
    11     3     5   ar
    12     5     6   ar
    13     6     7   ar
    14     7     8   ar
    15     8     9   ar
    16     9    24    1
    17    24    25    1
    18    25    26    1
    19    26    27    1
    20    27    29    1
    21    29    30    1
    22    30    31    1
    23    31    32    1
    24    32    35    1
    25    35    36    1
    26    35    37    1
    27    32    33    1
    28    33    34    1
    29    27    28    1
    30     9    10   ar
    31    12    13   ar
    32    13    14   ar
    33    14    15   ar
    34    15    16    1
    35    21    22   ar
    36    22    23   ar
    37    23    18   ar
    38    15    11   ar
    39    10     1   ar
    40    10     5   ar
    41    28    24    1
    42    34    29    1
@<TRIPOS>MOLECULE
*****
 37 42 0 0 0
SMALL
GASTEIGER

@<TRIPOS>ATOM
      1 C          51.1041   14.3469  -22.5943 C.ar    1  UNL1        0.1095
      2 N          52.3814   14.0065  -22.2887 N.ar    1  UNL1       -0.1677
      3 N          52.3915   13.4983  -21.0625 N.ar    1  UNL1       -0.2319
      4 C          53.5991   13.1130  -20.3447 C.3     1  UNL1        0.1554
      5 C          51.1427   13.5439  -20.5746 C.ar    1  UNL1        0.1654
      6 N          50.7444   13.2131  -19.3231 N.ar    1  UNL1       -0.2050
      7 C          49.4253   13.3643  -19.0075 C.ar    1  UNL1        0.2014
      8 N          48.5340   13.8131  -19.9458 N.ar    1  UNL1       -0.2089
      9 C          48.9260   14.1540  -21.2110 C.ar    1  UNL1        0.1379
     10 C          50.2879   14.0422  -21.5106 C.ar    1  UNL1        0.0865
     11 C          50.6183   14.7154  -25.0977 C.ar    1  UNL1        0.0809
     12 C          50.7679   15.1394  -23.7834 C.ar    1  UNL1        0.0577
     13 C          50.4139   16.4724  -23.7860 C.ar    1  UNL1        0.1231
     14 N          50.0866   16.8421  -25.0380 N.ar    1  UNL1       -0.1676
     15 N          50.2023   15.7818  -25.8238 N.ar    1  UNL1       -0.2488
     16 C          49.8543   15.8175  -27.2411 C.3     1  UNL1        0.1537
     17 C          51.0523    9.2737  -27.0764 C.3     1  UNL1        0.0310
     18 C          50.9364   10.6850  -26.5824 C.ar    1  UNL1       -0.0218
     19 C          52.0580   11.5254  -26.5683 C.ar    1  UNL1       -0.0042
     20 C          51.9555   12.8302  -26.0786 C.ar    1  UNL1        0.0012
     21 C          50.7281   13.3196  -25.5978 C.ar    1  UNL1        0.0174
     22 C          49.6152   12.4628  -25.5883 C.ar    1  UNL1        0.0012
     23 C          49.7215   11.1534  -26.0656 C.ar    1  UNL1       -0.0042
     24 N          47.9374   14.4702  -22.2029 N.pl3   1  UNL1       -0.2917
     25 C          47.7584   15.8305  -22.6956 C.3     1  UNL1        0.0937
     26 C          46.9318   15.7061  -23.9683 C.3     1  UNL1        0.0391
     27 C          47.1575   14.2684  -24.4330 C.3     1  UNL1        0.0790
     28 C          47.4590   13.4791  -23.1570 C.3     1  UNL1        0.1081
     29 N          46.0381   13.7653  -25.2734 N.3     1  UNL1       -0.2723
     30 C          45.8159   12.3033  -25.3896 C.3     1  UNL1        0.0721
     31 C          46.4069   11.6778  -26.6718 C.3     1  UNL1        0.0174
     32 C          46.0814   12.4980  -27.9302 C.3     1  UNL1        0.0028
     33 C          46.5096   13.9592  -27.7089 C.3     1  UNL1        0.0174
     34 C          45.7668   14.5349  -26.5040 C.3     1  UNL1        0.0721
     35 C          46.6890   11.8517  -29.2153 C.3     1  UNL1        0.0001
     36 C          46.7763   10.3230  -29.0879 C.3     1  UNL1        0.0000
     37 C          45.9554   12.2268  -30.5163 C.3     1  UNL1        0.0000
@<TRIPOS>BOND
     1    17    18    1
     2    18    19   ar
     3    19    20   ar
     4    20    21   ar
     5    21    11    1
     6    11    12   ar
     7    12     1    1
     8     1     2   ar
     9     2     3   ar
    10     3     4    1
    11     3     5   ar
    12     5     6   ar
    13     6     7   ar
    14     7     8   ar
    15     8     9   ar
    16     9    24    1
    17    24    25    1
    18    25    26    1
    19    26    27    1
    20    27    29    1
    21    29    30    1
    22    30    31    1
    23    31    32    1
    24    32    35    1
    25    35    36    1
    26    35    37    1
    27    32    33    1
    28    33    34    1
    29    27    28    1
    30     9    10   ar
    31    12    13   ar
    32    13    14   ar
    33    14    15   ar
    34    15    16    1
    35    21    22   ar
    36    22    23   ar
    37    23    18   ar
    38    15    11   ar
    39    10     1   ar
    40    10     5   ar
    41    28    24    1
    42    34    29    1
@<TRIPOS>MOLECULE
*****
 37 42 0 0 0
SMALL
GASTEIGER

@<TRIPOS>ATOM
      1 C          47.5926   12.8836  -24.1422 C.ar    1  UNL1        0.1095
      2 N          46.7642   12.9743  -25.2130 N.ar    1  UNL1       -0.1677
      3 N          46.4917   14.2574  -25.4170 N.ar    1  UNL1       -0.2319
      4 C          45.5512   14.7469  -26.4159 C.3     1  UNL1        0.1554
      5 C          47.1095   14.9778  -24.4688 C.ar    1  UNL1        0.1654
      6 N          47.0078   16.3127  -24.2642 N.ar    1  UNL1       -0.2050
      7 C          47.6921   16.8561  -23.2159 C.ar    1  UNL1        0.2014
      8 N          48.4774   16.0685  -22.4165 N.ar    1  UNL1       -0.2089
      9 C          48.5840   14.7189  -22.6114 C.ar    1  UNL1        0.1379
     10 C          47.8407   14.1633  -23.6581 C.ar    1  UNL1        0.0865
     11 C          48.9457   10.7178  -23.7993 C.ar    1  UNL1        0.0809
     12 C          47.9131   11.5997  -23.5067 C.ar    1  UNL1        0.0577
     13 C          47.2931   11.0800  -22.3896 C.ar    1  UNL1        0.1231
     14 N          47.9040    9.9342  -22.0358 N.ar    1  UNL1       -0.1676
     15 N          48.9027    9.7225  -22.8801 N.ar    1  UNL1       -0.2488
     16 C          49.8192    8.5949  -22.7398 C.3     1  UNL1        0.1537
     17 C          53.1053   11.4188  -27.7894 C.3     1  UNL1        0.0310
     18 C          52.0406   11.2240  -26.7514 C.ar    1  UNL1       -0.0218
     19 C          50.9841   10.3314  -26.9785 C.ar    1  UNL1       -0.0042
     20 C          49.9761   10.1743  -26.0235 C.ar    1  UNL1        0.0012
     21 C          50.0086   10.9040  -24.8221 C.ar    1  UNL1        0.0174
     22 C          51.0547   11.8178  -24.6136 C.ar    1  UNL1        0.0012
     23 C          52.0555   11.9846  -25.5751 C.ar    1  UNL1       -0.0042
     24 N          49.5357   13.9613  -21.8489 N.pl3   1  UNL1       -0.2917
     25 C          50.9653   14.2372  -21.9222 C.3     1  UNL1        0.0937
     26 C          51.5870   13.5288  -20.7262 C.3     1  UNL1        0.0391
     27 C          50.4339   13.3608  -19.7383 C.3     1  UNL1        0.0790
     28 C          49.1729   13.2996  -20.6032 C.3     1  UNL1        0.1081
     29 N          50.6522   12.2232  -18.8052 N.3     1  UNL1       -0.2723
     30 C          49.4914   11.6296  -18.0978 C.3     1  UNL1        0.0721
     31 C          49.3095   12.1388  -16.6514 C.3     1  UNL1        0.0174
     32 C          50.6285   12.1519  -15.8622 C.3     1  UNL1        0.0028
     33 C          51.6883   12.9342  -16.6574 C.3     1  UNL1        0.0174
     34 C          51.9007   12.2726  -18.0184 C.3     1  UNL1        0.0721
     35 C          50.4250   12.6718  -14.4039 C.3     1  UNL1        0.0001
     36 C          51.7190   13.2759  -13.8371 C.3     1  UNL1        0.0000
     37 C          49.2676   13.6757  -14.2486 C.3     1  UNL1        0.0000
@<TRIPOS>BOND
     1    17    18    1
     2    18    19   ar
     3    19    20   ar
     4    20    21   ar
     5    21    11    1
     6    11    12   ar
     7    12     1    1
     8     1     2   ar
     9     2     3   ar
    10     3     4    1
    11     3     5   ar
    12     5     6   ar
    13     6     7   ar
    14     7     8   ar
    15     8     9   ar
    16     9    24    1
    17    24    25    1
    18    25    26    1
    19    26    27    1
    20    27    29    1
    21    29    30    1
    22    30    31    1
    23    31    32    1
    24    32    35    1
    25    35    36    1
    26    35    37    1
    27    32    33    1
    28    33    34    1
    29    27    28    1
    30     9    10   ar
    31    12    13   ar
    32    13    14   ar
    33    14    15   ar
    34    15    16    1
    35    21    22   ar
    36    22    23   ar
    37    23    18   ar
    38    15    11   ar
    39    10     1   ar
    40    10     5   ar
    41    28    24    1
    42    34    29    1
@<TRIPOS>MOLECULE
*****
 37 42 0 0 0
SMALL
GASTEIGER

@<TRIPOS>ATOM
      1 C          47.8567   16.6929  -25.3868 C.ar    1  UNL1        0.1095
      2 N          47.2044   17.7637  -25.9054 N.ar    1  UNL1       -0.1677
      3 N          48.1120   18.6375  -26.3237 N.ar    1  UNL1       -0.2319
      4 C          47.7966   19.9597  -26.8472 C.3     1  UNL1        0.1554
      5 C          49.3301   18.1490  -26.0459 C.ar    1  UNL1        0.1654
      6 N          50.5184   18.7745  -26.2225 N.ar    1  UNL1       -0.2050
      7 C          51.6528   18.1185  -25.8411 C.ar    1  UNL1        0.2014
      8 N          51.5816   16.8535  -25.3207 N.ar    1  UNL1       -0.2089
      9 C          50.3869   16.2143  -25.1341 C.ar    1  UNL1        0.1379
     10 C          49.2263   16.9134  -25.4823 C.ar    1  UNL1        0.0865
     11 C          46.4673   14.5399  -25.1168 C.ar    1  UNL1        0.0809
     12 C          47.1615   15.6419  -24.6338 C.ar    1  UNL1        0.0577
     13 C          47.1749   15.4941  -23.2626 C.ar    1  UNL1        0.1231
     14 N          46.5075   14.3735  -22.9306 N.ar    1  UNL1       -0.1676
     15 N          46.0898   13.7969  -24.0478 N.ar    1  UNL1       -0.2488
     16 C          45.3871   12.5173  -24.0516 C.3     1  UNL1        0.1537
     17 C          45.8072   13.0116  -30.6796 C.3     1  UNL1        0.0310
     18 C          45.9605   13.4010  -29.2394 C.ar    1  UNL1       -0.0218
     19 C          45.6219   14.6930  -28.8146 C.ar    1  UNL1       -0.0042
     20 C          45.7947   15.0639  -27.4784 C.ar    1  UNL1        0.0012
     21 C          46.3054   14.1480  -26.5419 C.ar    1  UNL1        0.0174
     22 C          46.6694   12.8642  -26.9802 C.ar    1  UNL1        0.0012
     23 C          46.5091   12.4980  -28.3196 C.ar    1  UNL1       -0.0042
     24 N          50.3707   14.8361  -24.7323 N.pl3   1  UNL1       -0.2917
     25 C          50.7094   13.7659  -25.6626 C.3     1  UNL1        0.0937
     26 C          50.9579   12.5328  -24.8046 C.3     1  UNL1        0.0391
     27 C          51.2947   13.0891  -23.4222 C.3     1  UNL1        0.0790
     28 C          50.5708   14.4353  -23.3465 C.3     1  UNL1        0.1081
     29 N          50.9993   12.1168  -22.3360 N.3     1  UNL1       -0.2723
     30 C          49.9479   11.0913  -22.5439 C.3     1  UNL1        0.0721
     31 C          48.5838   11.4539  -21.9176 C.3     1  UNL1        0.0174
     32 C          48.7181   11.9809  -20.4800 C.3     1  UNL1        0.0028
     33 C          49.7295   13.1402  -20.4565 C.3     1  UNL1        0.0174
     34 C          51.0855   12.6487  -20.9612 C.3     1  UNL1        0.0721
     35 C          47.3296   12.3443  -19.8649 C.3     1  UNL1        0.0001
     36 C          46.1882   11.6012  -20.5760 C.3     1  UNL1        0.0000
     37 C          47.2349   12.1162  -18.3449 C.3     1  UNL1        0.0000
@<TRIPOS>BOND
     1    17    18    1
     2    18    19   ar
     3    19    20   ar
     4    20    21   ar
     5    21    11    1
     6    11    12   ar
     7    12     1    1
     8     1     2   ar
     9     2     3   ar
    10     3     4    1
    11     3     5   ar
    12     5     6   ar
    13     6     7   ar
    14     7     8   ar
    15     8     9   ar
    16     9    24    1
    17    24    25    1
    18    25    26    1
    19    26    27    1
    20    27    29    1
    21    29    30    1
    22    30    31    1
    23    31    32    1
    24    32    35    1
    25    35    36    1
    26    35    37    1
    27    32    33    1
    28    33    34    1
    29    27    28    1
    30     9    10   ar
    31    12    13   ar
    32    13    14   ar
    33    14    15   ar
    34    15    16    1
    35    21    22   ar
    36    22    23   ar
    37    23    18   ar
    38    15    11   ar
    39    10     1   ar
    40    10     5   ar
    41    28    24    1
    42    34    29    1
@<TRIPOS>MOLECULE
*****
 37 42 0 0 0
SMALL
GASTEIGER

@<TRIPOS>ATOM
      1 C          50.2174   12.6236  -21.3932 C.ar    1  UNL1        0.1095
      2 N          49.9814   12.9432  -20.0959 N.ar    1  UNL1       -0.1677
      3 N          49.4724   11.8756  -19.4932 N.ar    1  UNL1       -0.2319
      4 C          48.9936   11.8611  -18.1176 C.3     1  UNL1        0.1554
      5 C          49.3515   10.8945  -20.4002 C.ar    1  UNL1        0.1654
      6 N          48.7851    9.6784  -20.2141 N.ar    1  UNL1       -0.2050
      7 C          48.7259    8.8273  -21.2793 C.ar    1  UNL1        0.2014
      8 N          49.2515    9.1930  -22.4902 N.ar    1  UNL1       -0.2089
      9 C          49.8218   10.4199  -22.6903 C.ar    1  UNL1        0.1379
     10 C          49.8341   11.3040  -21.6062 C.ar    1  UNL1        0.0865
     11 C          49.8305   14.0732  -23.4879 C.ar    1  UNL1        0.0809
     12 C          50.5705   13.6347  -22.3972 C.ar    1  UNL1        0.0577
     13 C          51.6897   14.4400  -22.3662 C.ar    1  UNL1        0.1231
     14 N          51.6411   15.3069  -23.3945 N.ar    1  UNL1       -0.1676
     15 N          50.5181   15.0899  -24.0630 N.ar    1  UNL1       -0.2488
     16 C          50.1169   15.9079  -25.2037 C.3     1  UNL1        0.1537
     17 C          44.4868   12.3327  -24.9476 C.3     1  UNL1        0.0310
     18 C          45.8704   12.7655  -24.5637 C.ar    1  UNL1       -0.0218
     19 C          46.1150   13.3177  -23.2989 C.ar    1  UNL1       -0.0042
     20 C          47.3986   13.7493  -22.9541 C.ar    1  UNL1        0.0012
     21 C          48.4619   13.6327  -23.8666 C.ar    1  UNL1        0.0174
     22 C          48.2038   13.1048  -25.1424 C.ar    1  UNL1        0.0012
     23 C          46.9168   12.6858  -25.4916 C.ar    1  UNL1       -0.0042
     24 N          50.4956   10.6999  -23.9267 N.pl3   1  UNL1       -0.2917
     25 C          51.9290   10.9615  -23.9726 C.3     1  UNL1        0.0937
     26 C          52.3297   10.8250  -25.4352 C.3     1  UNL1        0.0391
     27 C          51.2357    9.9557  -26.0528 C.3     1  UNL1        0.0790
     28 C          49.9892   10.2208  -25.2055 C.3     1  UNL1        0.1081
     29 N          51.0997   10.1767  -27.5175 N.3     1  UNL1       -0.2723
     30 C          50.0980    9.3935  -28.2813 C.3     1  UNL1        0.0721
     31 C          50.6861    8.1712  -29.0193 C.3     1  UNL1        0.0174
     32 C          51.9797    8.5085  -29.7778 C.3     1  UNL1        0.0028
     33 C          52.9743    9.1773  -28.8130 C.3     1  UNL1        0.0174
     34 C          52.3565   10.4528  -28.2416 C.3     1  UNL1        0.0721
     35 C          52.5603    7.2604  -30.5151 C.3     1  UNL1        0.0001
     36 C          52.0353    7.1644  -31.9559 C.3     1  UNL1        0.0000
     37 C          54.0985    7.1866  -30.5132 C.3     1  UNL1        0.0000
@<TRIPOS>BOND
     1    17    18    1
     2    18    19   ar
     3    19    20   ar
     4    20    21   ar
     5    21    11    1
     6    11    12   ar
     7    12     1    1
     8     1     2   ar
     9     2     3   ar
    10     3     4    1
    11     3     5   ar
    12     5     6   ar
    13     6     7   ar
    14     7     8   ar
    15     8     9   ar
    16     9    24    1
    17    24    25    1
    18    25    26    1
    19    26    27    1
    20    27    29    1
    21    29    30    1
    22    30    31    1
    23    31    32    1
    24    32    35    1
    25    35    36    1
    26    35    37    1
    27    32    33    1
    28    33    34    1
    29    27    28    1
    30     9    10   ar
    31    12    13   ar
    32    13    14   ar
    33    14    15   ar
    34    15    16    1
    35    21    22   ar
    36    22    23   ar
    37    23    18   ar
    38    15    11   ar
    39    10     1   ar
    40    10     5   ar
    41    28    24    1
    42    34    29    1
@<TRIPOS>MOLECULE
*****
 37 42 0 0 0
SMALL
GASTEIGER

@<TRIPOS>ATOM
      1 C          49.4054   10.7072  -26.0605 C.ar    1  UNL1        0.1095
      2 N          49.1597    9.5294  -26.6878 N.ar    1  UNL1       -0.1677
      3 N          50.2170    9.2294  -27.4323 N.ar    1  UNL1       -0.2319
      4 C          50.2866    8.0884  -28.3352 C.3     1  UNL1        0.1554
      5 C          51.1151   10.2185  -27.3111 C.ar    1  UNL1        0.1654
      6 N          52.2845   10.3439  -27.9826 N.ar    1  UNL1       -0.2050
      7 C          53.0477   11.4497  -27.7431 C.ar    1  UNL1        0.2014
      8 N          52.6454   12.3860  -26.8279 N.ar    1  UNL1       -0.2089
      9 C          51.4645   12.2716  -26.1474 C.ar    1  UNL1        0.1379
     10 C          50.6656   11.1598  -26.4352 C.ar    1  UNL1        0.0865
     11 C          47.2660   12.1268  -25.8447 C.ar    1  UNL1        0.0809
     12 C          48.3611   11.4408  -25.3351 C.ar    1  UNL1        0.0577
     13 C          48.2131   11.4811  -23.9644 C.ar    1  UNL1        0.1231
     14 N          47.0991   12.1716  -23.6586 N.ar    1  UNL1       -0.1676
     15 N          46.5267   12.5520  -24.7912 N.ar    1  UNL1       -0.2488
     16 C          45.2541   13.2666  -24.8223 C.3     1  UNL1        0.1537
     17 C          45.7163   12.5690  -31.4231 C.3     1  UNL1        0.0310
     18 C          46.0989   12.4526  -29.9777 C.ar    1  UNL1       -0.0218
     19 C          46.1520   13.5930  -29.1645 C.ar    1  UNL1       -0.0042
     20 C          46.5389   13.4872  -27.8259 C.ar    1  UNL1        0.0012
     21 C          46.8758   12.2381  -27.2751 C.ar    1  UNL1        0.0174
     22 C          46.8480   11.1039  -28.1030 C.ar    1  UNL1        0.0012
     23 C          46.4741   11.2123  -29.4455 C.ar    1  UNL1       -0.0042
     24 N          51.1589   13.1929  -25.0896 N.pl3   1  UNL1       -0.2917
     25 C          50.1698   14.2501  -25.2603 C.3     1  UNL1        0.0937
     26 C          49.8465   14.7470  -23.8577 C.3     1  UNL1        0.0391
     27 C          50.2371   13.5889  -22.9412 C.3     1  UNL1        0.0790
     28 C          51.3475   12.8461  -23.6877 C.3     1  UNL1        0.1081
     29 N          50.5571   14.0447  -21.5620 N.3     1  UNL1       -0.2723
     30 C          51.5788   13.3140  -20.7731 C.3     1  UNL1        0.0721
     31 C          50.9902   12.2974  -19.7708 C.3     1  UNL1        0.0174
     32 C          49.8213   12.8799  -18.9603 C.3     1  UNL1        0.0028
     33 C          48.7749   13.4633  -19.9257 C.3     1  UNL1        0.0174
     34 C          49.4161   14.5578  -20.7776 C.3     1  UNL1        0.0721
     35 C          49.2381   11.8373  -17.9548 C.3     1  UNL1        0.0001
     36 C          49.4173   12.2985  -16.5002 C.3     1  UNL1        0.0000
     37 C          47.7638   11.4726  -18.2097 C.3     1  UNL1        0.0000
@<TRIPOS>BOND
     1    17    18    1
     2    18    19   ar
     3    19    20   ar
     4    20    21   ar
     5    21    11    1
     6    11    12   ar
     7    12     1    1
     8     1     2   ar
     9     2     3   ar
    10     3     4    1
    11     3     5   ar
    12     5     6   ar
    13     6     7   ar
    14     7     8   ar
    15     8     9   ar
    16     9    24    1
    17    24    25    1
    18    25    26    1
    19    26    27    1
    20    27    29    1
    21    29    30    1
    22    30    31    1
    23    31    32    1
    24    32    35    1
    25    35    36    1
    26    35    37    1
    27    32    33    1
    28    33    34    1
    29    27    28    1
    30     9    10   ar
    31    12    13   ar
    32    13    14   ar
    33    14    15   ar
    34    15    16    1
    35    21    22   ar
    36    22    23   ar
    37    23    18   ar
    38    15    11   ar
    39    10     1   ar
    40    10     5   ar
    41    28    24    1
    42    34    29    1
@<TRIPOS>MOLECULE
*****
 37 42 0 0 0
SMALL
GASTEIGER

@<TRIPOS>ATOM
      1 C          46.6962   11.5828  -27.4790 C.ar    1  UNL1        0.1095
      2 N          47.1149   10.4053  -28.0074 N.ar    1  UNL1       -0.1677
      3 N          47.0556   10.5016  -29.3300 N.ar    1  UNL1       -0.2319
      4 C          47.3286    9.4015  -30.2450 C.3     1  UNL1        0.1554
      5 C          46.5727   11.7128  -29.6455 C.ar    1  UNL1        0.1654
      6 N          46.2674   12.1711  -30.8828 N.ar    1  UNL1       -0.2050
      7 C          45.7492   13.4288  -30.9925 C.ar    1  UNL1        0.2014
      8 N          45.5724   14.2064  -29.8788 N.ar    1  UNL1       -0.2089
      9 C          45.8733   13.7521  -28.6243 C.ar    1  UNL1        0.1379
     10 C          46.3579   12.4443  -28.5168 C.ar    1  UNL1        0.0865
     11 C          47.3286   11.8548  -24.9961 C.ar    1  UNL1        0.0809
     12 C          46.4251   11.7455  -26.0455 C.ar    1  UNL1        0.0577
     13 C          45.1823   11.9430  -25.4809 C.ar    1  UNL1        0.1231
     14 N          45.3228   12.1414  -24.1572 N.ar    1  UNL1       -0.1676
     15 N          46.6151   12.0961  -23.8691 N.ar    1  UNL1       -0.2488
     16 C          47.1252   12.3424  -22.5236 C.3     1  UNL1        0.1537
     17 C          53.1223   11.9230  -25.3754 C.3     1  UNL1        0.0310
     18 C          51.6271   11.9105  -25.2598 C.ar    1  UNL1       -0.0218
     19 C          50.9572   10.7480  -24.8547 C.ar    1  UNL1       -0.0042
     20 C          49.5620   10.7286  -24.7776 C.ar    1  UNL1        0.0012
     21 C          48.8116   11.8731  -25.1003 C.ar    1  UNL1        0.0174
     22 C          49.4878   13.0256  -25.5330 C.ar    1  UNL1        0.0012
     23 C          50.8826   13.0402  -25.6230 C.ar    1  UNL1       -0.0042
     24 N          45.8181   14.6527  -27.5076 N.pl3   1  UNL1       -0.2917
     25 C          44.7200   14.6141  -26.5495 C.3     1  UNL1        0.0937
     26 C          45.1942   15.4110  -25.3417 C.3     1  UNL1        0.0391
     27 C          46.7185   15.3857  -25.4402 C.3     1  UNL1        0.0790
     28 C          47.0198   15.2428  -26.9337 C.3     1  UNL1        0.1081
     29 N          47.3475   16.5409  -24.7457 N.3     1  UNL1       -0.2723
     30 C          47.6419   17.7771  -25.5110 C.3     1  UNL1        0.0721
     31 C          49.1090   17.8920  -25.9788 C.3     1  UNL1        0.0174
     32 C          50.1104   17.5504  -24.8639 C.3     1  UNL1        0.0028
     33 C          49.7627   16.1727  -24.2736 C.3     1  UNL1        0.0174
     34 C          48.3427   16.1993  -23.7098 C.3     1  UNL1        0.0721
     35 C          51.5875   17.6698  -25.3563 C.3     1  UNL1        0.0001
     36 C          51.6550   18.0141  -26.8522 C.3     1  UNL1        0.0000
     37 C          52.4413   18.6670  -24.5513 C.3     1  UNL1        0.0000
@<TRIPOS>BOND
     1    17    18    1
     2    18    19   ar
     3    19    20   ar
     4    20    21   ar
     5    21    11    1
     6    11    12   ar
     7    12     1    1
     8     1     2   ar
     9     2     3   ar
    10     3     4    1
    11     3     5   ar
    12     5     6   ar
    13     6     7   ar
    14     7     8   ar
    15     8     9   ar
    16     9    24    1
    17    24    25    1
    18    25    26    1
    19    26    27    1
    20    27    29    1
    21    29    30    1
    22    30    31    1
    23    31    32    1
    24    32    35    1
    25    35    36    1
    26    35    37    1
    27    32    33    1
    28    33    34    1
    29    27    28    1
    30     9    10   ar
    31    12    13   ar
    32    13    14   ar
    33    14    15   ar
    34    15    16    1
    35    21    22   ar
    36    22    23   ar
    37    23    18   ar
    38    15    11   ar
    39    10     1   ar
    40    10     5   ar
    41    28    24    1
    42    34    29    1
@<TRIPOS>MOLECULE
*****
 37 42 0 0 0
SMALL
GASTEIGER

@<TRIPOS>ATOM
      1 C          46.7837   11.6867  -27.3343 C.ar    1  UNL1        0.1095
      2 N          46.9641   10.5439  -28.0432 N.ar    1  UNL1       -0.1677
      3 N          46.7459   10.8136  -29.3245 N.ar    1  UNL1       -0.2319
      4 C          46.7432    9.8137  -30.3838 C.3     1  UNL1        0.1554
      5 C          46.3965   12.1044  -29.4323 C.ar    1  UNL1        0.1654
      6 N          45.9974   12.7494  -30.5543 N.ar    1  UNL1       -0.2050
      7 C          45.6468   14.0641  -30.4495 C.ar    1  UNL1        0.2014
      8 N          45.7258   14.7097  -29.2441 N.ar    1  UNL1       -0.2089
      9 C          46.1233   14.0670  -28.1040 C.ar    1  UNL1        0.1379
     10 C          46.4338   12.7073  -28.2115 C.ar    1  UNL1        0.0865
     11 C          47.7745   11.6380  -24.9564 C.ar    1  UNL1        0.0809
     12 C          46.7277   11.6978  -25.8675 C.ar    1  UNL1        0.0577
     13 C          45.5926   11.8943  -25.1090 C.ar    1  UNL1        0.1231
     14 N          45.9303   11.9317  -23.8067 N.ar    1  UNL1       -0.1676
     15 N          47.2440   11.7855  -23.7177 N.ar    1  UNL1       -0.2488
     16 C          47.9529   11.8484  -22.4431 C.3     1  UNL1        0.1537
     17 C          53.4376   11.4543  -26.2255 C.3     1  UNL1        0.0310
     18 C          51.9710   11.4974  -25.9151 C.ar    1  UNL1       -0.0218
     19 C          51.2483   12.6881  -26.0708 C.ar    1  UNL1       -0.0042
     20 C          49.8886   12.7347  -25.7514 C.ar    1  UNL1        0.0012
     21 C          49.2261   11.5899  -25.2744 C.ar    1  UNL1        0.0174
     22 C          49.9628   10.4078  -25.0937 C.ar    1  UNL1        0.0012
     23 C          51.3259   10.3655  -25.4004 C.ar    1  UNL1       -0.0042
     24 N          46.3389   14.8188  -26.9000 N.pl3   1  UNL1       -0.2917
     25 C          45.3276   14.8883  -25.8523 C.3     1  UNL1        0.0937
     26 C          46.0437   15.4209  -24.6185 C.3     1  UNL1        0.0391
     27 C          47.5171   15.0991  -24.8616 C.3     1  UNL1        0.0790
     28 C          47.6756   15.0793  -26.3836 C.3     1  UNL1        0.1081
     29 N          48.4240   16.0106  -24.1137 N.3     1  UNL1       -0.2723
     30 C          49.7841   16.2779  -24.6419 C.3     1  UNL1        0.0721
     31 C          50.8930   15.4321  -23.9790 C.3     1  UNL1        0.0174
     32 C          50.7731   15.4018  -22.4470 C.3     1  UNL1        0.0028
     33 C          49.3516   14.9600  -22.0576 C.3     1  UNL1        0.0174
     34 C          48.3322   15.9370  -22.6418 C.3     1  UNL1        0.0721
     35 C          51.9008   14.5404  -21.7953 C.3     1  UNL1        0.0001
     36 C          51.4409   13.9275  -20.4635 C.3     1  UNL1        0.0000
     37 C          52.4608   13.4375  -22.7126 C.3     1  UNL1        0.0000
@<TRIPOS>BOND
     1    17    18    1
     2    18    19   ar
     3    19    20   ar
     4    20    21   ar
     5    21    11    1
     6    11    12   ar
     7    12     1    1
     8     1     2   ar
     9     2     3   ar
    10     3     4    1
    11     3     5   ar
    12     5     6   ar
    13     6     7   ar
    14     7     8   ar
    15     8     9   ar
    16     9    24    1
    17    24    25    1
    18    25    26    1
    19    26    27    1
    20    27    29    1
    21    29    30    1
    22    30    31    1
    23    31    32    1
    24    32    35    1
    25    35    36    1
    26    35    37    1
    27    32    33    1
    28    33    34    1
    29    27    28    1
    30     9    10   ar
    31    12    13   ar
    32    13    14   ar
    33    14    15   ar
    34    15    16    1
    35    21    22   ar
    36    22    23   ar
    37    23    18   ar
    38    15    11   ar
    39    10     1   ar
    40    10     5   ar
    41    28    24    1
    42    34    29    1
