@<TRIPOS>MOLECULE
*****
 53 58 0 0 0
SMALL
GASTEIGER

@<TRIPOS>ATOM
      1 C           8.5268   75.8044   24.5036 C.ar    1  UNL1        0.0811
      2 C           7.6058   74.8097   24.8623 C.ar    1  UNL1        0.0080
      3 C           6.4662   74.5880   24.0910 C.ar    1  UNL1        0.0150
      4 C           6.2148   75.3631   22.9514 C.ar    1  UNL1        0.0564
      5 C           7.1213   76.3835   22.5854 C.ar    1  UNL1        0.1162
      6 C           8.2725   76.6000   23.3688 C.ar    1  UNL1        0.1518
      7 F           9.1419   77.5842   23.0251 F       1  UNL1       -0.2038
      8 N           5.0079   75.1438   22.2014 N.pl3   1  UNL1       -0.3038
      9 C           3.7594   75.7518   22.6700 C.3     1  UNL1        0.1123
     10 C           2.8507   76.0854   21.4844 C.3     1  UNL1        0.1136
     11 N           2.7717   74.9446   20.5608 N.pl3   1  UNL1       -0.2897
     12 C           4.0300   74.3406   20.1034 C.3     1  UNL1        0.1136
     13 C           4.9163   73.9938   21.2986 C.3     1  UNL1        0.1123
     14 C           1.5378   74.6086   19.8942 C.ar    1  UNL1        0.1318
     15 C           1.0271   73.3005   19.9194 C.ar    1  UNL1        0.0343
     16 C          -0.1718   73.0156   19.2642 C.ar    1  UNL1        0.0083
     17 C          -0.8560   74.0252   18.5712 C.ar    1  UNL1        0.0906
     18 C          -0.3303   75.3260   18.5990 C.ar    1  UNL1        0.1041
     19 N           0.8383   75.5800   19.2450 N.ar    1  UNL1       -0.2292
     20 C          -2.1773   73.7418   17.9032 C.3     1  UNL1        0.4200
     21 F          -2.0635   73.8561   16.5284 F       1  UNL1       -0.1658
     22 F          -3.1190   74.6475   18.3543 F       1  UNL1       -0.1658
     23 F          -2.6074   72.4594   18.1971 F       1  UNL1       -0.1658
     24 O          10.6260   75.0983   25.3443 O.2     1  UNL1       -0.2701
     25 C           9.7428   75.9991   25.3263 C.2     1  UNL1        0.2483
     26 N           9.9469   77.2158   26.0631 N.am    1  UNL1       -0.2945
     27 H           9.3598   78.0409   25.8087 H       1  UNL1        0.1501
     28 C          11.1379   77.4363   26.8922 C.3     1  UNL1        0.1535
     29 C          12.1821   78.2064   26.1247 C.2     1  UNL1        0.2443
     30 O          11.9782   79.4167   25.8315 O.2     1  UNL1       -0.2730
     31 N          13.4383   77.5846   25.8120 N.am    1  UNL1       -0.2825
     32 H          13.6793   76.6976   26.3098 H       1  UNL1        0.1549
     33 C          14.4332   78.1679   24.9540 C.ar    1  UNL1        0.0535
     34 C          14.8426   77.4774   23.8050 C.ar    1  UNL1        0.0353
     35 C          15.7934   78.0494   22.9566 C.ar    1  UNL1        0.1002
     36 N          16.3060   79.2770   23.2358 N.ar    1  UNL1       -0.2422
     37 C          15.9142   79.9794   24.3315 C.ar    1  UNL1        0.1002
     38 C          14.9663   79.4433   25.2069 C.ar    1  UNL1        0.0353
     39 C          10.7755   78.1329   28.2204 C.3     1  UNL1        0.0569
     40 C           9.4649   77.6750   28.8025 C.ar    1  UNL1       -0.0017
     41 C           8.3489   78.4677   29.0576 C.ar    1  UNL1        0.0681
     42 N           7.3323   77.7139   29.5346 N.ar    1  UNL1       -0.3523
     43 C           7.7953   76.4529   29.5827 C.ar    1  UNL1        0.0563
     44 C           7.1047   75.3150   29.9975 C.ar    1  UNL1        0.0170
     45 C           7.7828   74.0829   29.9579 C.ar    1  UNL1        0.0015
     46 C           9.1216   74.0170   29.5124 C.ar    1  UNL1        0.0001
     47 C           9.7941   75.1822   29.1024 C.ar    1  UNL1        0.0012
     48 C           9.0942   76.3886   29.1466 C.ar    1  UNL1        0.0131
     49 H           6.3797   78.0472   29.8024 H       1  UNL1        0.1660
     50 C           6.8957   77.1958   21.3674 C.2     1  UNL1        0.3415
     51 O           7.6962   77.1112   20.3988 O.2     1  UNL1       -0.2450
     52 O           5.8047   78.0561   21.2671 O.3     1  UNL1       -0.4770
     53 H           5.0886   78.0936   21.9821 H       1  UNL1        0.2954
@<TRIPOS>BOND
     1    24    25    2
     2    25    26   am
     3    26    28    1
     4    28    39    1
     5    39    40    1
     6    40    41   ar
     7    41    42   ar
     8    42    43   ar
     9    43    44   ar
    10    44    45   ar
    11    45    46   ar
    12    46    47   ar
    13    47    48   ar
    14    28    29    1
    15    29    30    2
    16    29    31   am
    17    31    33    1
    18    33    34   ar
    19    34    35   ar
    20    35    36   ar
    21    36    37   ar
    22    37    38   ar
    23    25     1    1
    24     1     2   ar
    25     2     3   ar
    26     3     4   ar
    27     4     8    1
    28     8     9    1
    29     9    10    1
    30    10    11    1
    31    11    14    1
    32    14    15   ar
    33    15    16   ar
    34    16    17   ar
    35    17    20    1
    36    20    21    1
    37    20    22    1
    38    20    23    1
    39    17    18   ar
    40    18    19   ar
    41    11    12    1
    42    12    13    1
    43     4     5   ar
    44     5    50    1
    45    50    51    2
    46    50    52    1
    47     5     6   ar
    48     6     7    1
    49    48    40   ar
    50    38    33   ar
    51     6     1   ar
    52    48    43   ar
    53    13     8    1
    54    19    14   ar
    55    26    27    1
    56    42    49    1
    57    31    32    1
    58    52    53    1
@<TRIPOS>MOLECULE
*****
 53 58 0 0 0
SMALL
GASTEIGER

@<TRIPOS>ATOM
      1 C           8.0869   76.6046   25.2671 C.ar    1  UNL1        0.0811
      2 C           6.9852   75.8782   25.7414 C.ar    1  UNL1        0.0080
      3 C           5.9374   75.5415   24.8862 C.ar    1  UNL1        0.0150
      4 C           5.9606   75.9335   23.5414 C.ar    1  UNL1        0.0564
      5 C           7.0530   76.6833   23.0501 C.ar    1  UNL1        0.1162
      6 C           8.1099   77.0177   23.9202 C.ar    1  UNL1        0.1518
      7 F           9.1574   77.7444   23.4542 F       1  UNL1       -0.2038
      8 N           4.8444   75.6129   22.6939 N.pl3   1  UNL1       -0.3038
      9 C           3.5690   76.3029   22.9067 C.3     1  UNL1        0.1123
     10 C           2.8174   76.4554   21.5822 C.3     1  UNL1        0.1136
     11 N           2.8122   75.1835   20.8451 N.pl3   1  UNL1       -0.2897
     12 C           4.0962   74.4992   20.6438 C.3     1  UNL1        0.1136
     13 C           4.8239   74.3354   21.9771 C.3     1  UNL1        0.1123
     14 C           1.6557   74.7612   20.0942 C.ar    1  UNL1        0.1318
     15 C           0.9179   75.6695   19.3177 C.ar    1  UNL1        0.0343
     16 C          -0.1940   75.2215   18.6029 C.ar    1  UNL1        0.0083
     17 C          -0.5827   73.8754   18.6709 C.ar    1  UNL1        0.0906
     18 C           0.2010   72.9933   19.4305 C.ar    1  UNL1        0.1041
     19 N           1.2806   73.4523   20.1170 N.ar    1  UNL1       -0.2292
     20 C          -1.7506   73.3688   17.8636 C.3     1  UNL1        0.4200
     21 F          -2.9381   73.8993   18.3372 F       1  UNL1       -0.1658
     22 F          -1.8042   71.9907   17.9557 F       1  UNL1       -0.1658
     23 F          -1.6161   73.7273   16.5334 F       1  UNL1       -0.1658
     24 O          10.3749   76.5893   25.8814 O.2     1  UNL1       -0.2701
     25 C           9.1987   76.9242   26.1918 C.2     1  UNL1        0.2483
     26 N           8.9590   77.6483   27.4097 N.am    1  UNL1       -0.2945
     27 H           8.0510   78.1554   27.5015 H       1  UNL1        0.1501
     28 C          10.0383   77.9746   28.3495 C.3     1  UNL1        0.1535
     29 C           9.8663   79.3720   28.8886 C.2     1  UNL1        0.2443
     30 O           9.9801   80.3609   28.1130 O.2     1  UNL1       -0.2730
     31 N           9.4850   79.5638   30.2599 N.am    1  UNL1       -0.2825
     32 H           9.1265   78.7346   30.7857 H       1  UNL1        0.1549
     33 C           9.4495   80.8436   30.9134 C.ar    1  UNL1        0.0535
     34 C           8.9074   80.9443   32.2020 C.ar    1  UNL1        0.0353
     35 C           8.8899   82.1816   32.8500 C.ar    1  UNL1        0.1002
     36 N           9.4113   83.2786   32.2397 N.ar    1  UNL1       -0.2422
     37 C           9.9616   83.2085   30.9989 C.ar    1  UNL1        0.1002
     38 C           9.9984   81.9906   30.3151 C.ar    1  UNL1        0.0353
     39 C          10.1289   76.9320   29.4833 C.3     1  UNL1        0.0569
     40 C           8.9986   75.9378   29.4789 C.ar    1  UNL1       -0.0017
     41 C           9.0509   74.6251   29.0173 C.ar    1  UNL1        0.0681
     42 N           7.8640   74.0071   29.2136 N.ar    1  UNL1       -0.3523
     43 C           7.0629   74.9165   29.7949 C.ar    1  UNL1        0.0563
     44 C           5.7405   74.7408   30.2002 C.ar    1  UNL1        0.0170
     45 C           5.0863   75.8315   30.8015 C.ar    1  UNL1        0.0015
     46 C           5.7597   77.0603   30.9795 C.ar    1  UNL1        0.0001
     47 C           7.0933   77.2093   30.5582 C.ar    1  UNL1        0.0012
     48 C           7.7183   76.1086   29.9709 C.ar    1  UNL1        0.0131
     49 H           7.6253   73.0205   28.9686 H       1  UNL1        0.1660
     50 C           7.1176   77.0826   21.6251 C.2     1  UNL1        0.3415
     51 O           6.2721   77.8922   21.1607 O.2     1  UNL1       -0.2450
     52 O           8.1055   76.5811   20.7805 O.3     1  UNL1       -0.4770
     53 H           8.8565   75.9972   21.1273 H       1  UNL1        0.2954
@<TRIPOS>BOND
     1    24    25    2
     2    25    26   am
     3    26    28    1
     4    28    39    1
     5    39    40    1
     6    40    41   ar
     7    41    42   ar
     8    42    43   ar
     9    43    44   ar
    10    44    45   ar
    11    45    46   ar
    12    46    47   ar
    13    47    48   ar
    14    28    29    1
    15    29    30    2
    16    29    31   am
    17    31    33    1
    18    33    34   ar
    19    34    35   ar
    20    35    36   ar
    21    36    37   ar
    22    37    38   ar
    23    25     1    1
    24     1     2   ar
    25     2     3   ar
    26     3     4   ar
    27     4     8    1
    28     8     9    1
    29     9    10    1
    30    10    11    1
    31    11    14    1
    32    14    15   ar
    33    15    16   ar
    34    16    17   ar
    35    17    20    1
    36    20    21    1
    37    20    22    1
    38    20    23    1
    39    17    18   ar
    40    18    19   ar
    41    11    12    1
    42    12    13    1
    43     4     5   ar
    44     5    50    1
    45    50    51    2
    46    50    52    1
    47     5     6   ar
    48     6     7    1
    49    48    40   ar
    50    38    33   ar
    51     6     1   ar
    52    48    43   ar
    53    13     8    1
    54    19    14   ar
    55    26    27    1
    56    42    49    1
    57    31    32    1
    58    52    53    1
@<TRIPOS>MOLECULE
*****
 53 58 0 0 0
SMALL
GASTEIGER

@<TRIPOS>ATOM
      1 C          12.7320   81.5791   24.9347 C.ar    1  UNL1        0.0811
      2 C          11.4279   81.9364   25.3059 C.ar    1  UNL1        0.0080
      3 C          10.5340   80.9727   25.7694 C.ar    1  UNL1        0.0150
      4 C          10.9187   79.6286   25.8605 C.ar    1  UNL1        0.0564
      5 C          12.2225   79.2463   25.4720 C.ar    1  UNL1        0.1162
      6 C          13.1214   80.2269   25.0068 C.ar    1  UNL1        0.1518
      7 F          14.3722   79.8626   24.6253 F       1  UNL1       -0.2038
      8 N           9.9614   78.6490   26.2973 N.pl3   1  UNL1       -0.3038
      9 C           8.9401   78.1834   25.3548 C.3     1  UNL1        0.1123
     10 C           8.5650   76.7292   25.6500 C.3     1  UNL1        0.1136
     11 N           8.3293   76.5414   27.0887 N.pl3   1  UNL1       -0.2897
     12 C           9.3578   77.0177   28.0229 C.3     1  UNL1        0.1136
     13 C           9.7055   78.4762   27.7294 C.3     1  UNL1        0.1123
     14 C           7.2834   75.6706   27.5658 C.ar    1  UNL1        0.1318
     15 C           6.8448   74.5729   26.8075 C.ar    1  UNL1        0.0343
     16 C           5.8317   73.7518   27.3049 C.ar    1  UNL1        0.0083
     17 C           5.2435   74.0289   28.5478 C.ar    1  UNL1        0.0906
     18 C           5.7337   75.1146   29.2896 C.ar    1  UNL1        0.1041
     19 N           6.7222   75.8994   28.7853 N.ar    1  UNL1       -0.2292
     20 C           4.1847   73.1205   29.1189 C.3     1  UNL1        0.4200
     21 F           2.9348   73.4607   28.6311 F       1  UNL1       -0.1658
     22 F           4.1784   73.2381   30.4961 F       1  UNL1       -0.1658
     23 F           4.4380   71.8026   28.7797 F       1  UNL1       -0.1658
     24 O          14.8900   82.3458   24.3285 O.2     1  UNL1       -0.2701
     25 C          13.6689   82.6287   24.4721 C.2     1  UNL1        0.2483
     26 N          13.1961   83.9452   24.1430 N.am    1  UNL1       -0.2945
     27 H          12.1702   84.0687   23.9938 H       1  UNL1        0.1501
     28 C          14.1001   85.0086   23.6882 C.3     1  UNL1        0.1535
     29 C          14.3358   84.9036   22.2030 C.2     1  UNL1        0.2443
     30 O          15.1813   84.0784   21.7597 O.2     1  UNL1       -0.2730
     31 N          13.5327   85.6779   21.2985 N.am    1  UNL1       -0.2825
     32 H          12.6669   86.1247   21.6773 H       1  UNL1        0.1549
     33 C          13.7778   85.7736   19.8854 C.ar    1  UNL1        0.0535
     34 C          13.7101   87.0248   19.2575 C.ar    1  UNL1        0.0353
     35 C          13.9684   87.1264   17.8885 C.ar    1  UNL1        0.1002
     36 N          14.3002   86.0193   17.1731 N.ar    1  UNL1       -0.2422
     37 C          14.3932   84.7957   17.7575 C.ar    1  UNL1        0.1002
     38 C          14.1417   84.6497   19.1242 C.ar    1  UNL1        0.0353
     39 C          13.5711   86.4024   24.0857 C.3     1  UNL1        0.0569
     40 C          14.4788   87.1443   25.0301 C.ar    1  UNL1       -0.0017
     41 C          14.2008   87.4851   26.3512 C.ar    1  UNL1        0.0681
     42 N          15.2640   88.1033   26.9139 N.ar    1  UNL1       -0.3523
     43 C          16.2107   88.1558   25.9612 C.ar    1  UNL1        0.0563
     44 C          17.4923   88.6935   26.0729 C.ar    1  UNL1        0.0170
     45 C          18.3312   88.6339   24.9450 C.ar    1  UNL1        0.0015
     46 C          17.8747   88.0476   23.7438 C.ar    1  UNL1        0.0001
     47 C          16.5755   87.5155   23.6596 C.ar    1  UNL1        0.0012
     48 C          15.7684   87.5832   24.7959 C.ar    1  UNL1        0.0131
     49 H          15.3335   88.4590   27.8932 H       1  UNL1        0.1660
     50 C          12.6650   77.8375   25.5888 C.2     1  UNL1        0.3415
     51 O          12.8455   77.1476   24.5508 O.2     1  UNL1       -0.2450
     52 O          12.8925   77.2547   26.8336 O.3     1  UNL1       -0.4770
     53 H          12.8448   77.7927   27.6901 H       1  UNL1        0.2954
@<TRIPOS>BOND
     1    24    25    2
     2    25    26   am
     3    26    28    1
     4    28    39    1
     5    39    40    1
     6    40    41   ar
     7    41    42   ar
     8    42    43   ar
     9    43    44   ar
    10    44    45   ar
    11    45    46   ar
    12    46    47   ar
    13    47    48   ar
    14    28    29    1
    15    29    30    2
    16    29    31   am
    17    31    33    1
    18    33    34   ar
    19    34    35   ar
    20    35    36   ar
    21    36    37   ar
    22    37    38   ar
    23    25     1    1
    24     1     2   ar
    25     2     3   ar
    26     3     4   ar
    27     4     8    1
    28     8     9    1
    29     9    10    1
    30    10    11    1
    31    11    14    1
    32    14    15   ar
    33    15    16   ar
    34    16    17   ar
    35    17    20    1
    36    20    21    1
    37    20    22    1
    38    20    23    1
    39    17    18   ar
    40    18    19   ar
    41    11    12    1
    42    12    13    1
    43     4     5   ar
    44     5    50    1
    45    50    51    2
    46    50    52    1
    47     5     6   ar
    48     6     7    1
    49    48    40   ar
    50    38    33   ar
    51     6     1   ar
    52    48    43   ar
    53    13     8    1
    54    19    14   ar
    55    26    27    1
    56    42    49    1
    57    31    32    1
    58    52    53    1
@<TRIPOS>MOLECULE
*****
 53 58 0 0 0
SMALL
GASTEIGER

@<TRIPOS>ATOM
      1 C           8.7030   75.8363   24.3041 C.ar    1  UNL1        0.0811
      2 C           7.7790   74.8530   24.6856 C.ar    1  UNL1        0.0080
      3 C           6.6217   74.6404   23.9385 C.ar    1  UNL1        0.0150
      4 C           6.3554   75.4135   22.8010 C.ar    1  UNL1        0.0564
      5 C           7.2651   76.4227   22.4123 C.ar    1  UNL1        0.1162
      6 C           8.4342   76.6299   23.1713 C.ar    1  UNL1        0.1518
      7 F           9.3068   77.6034   22.8059 F       1  UNL1       -0.2038
      8 N           5.1313   75.2041   22.0765 N.pl3   1  UNL1       -0.3038
      9 C           3.9242   75.9205   22.4983 C.3     1  UNL1        0.1123
     10 C           3.0259   76.2079   21.2930 C.3     1  UNL1        0.1136
     11 N           2.8729   75.0016   20.4670 N.pl3   1  UNL1       -0.2897
     12 C           4.0901   74.2897   20.0560 C.3     1  UNL1        0.1136
     13 C           4.9653   73.9911   21.2721 C.3     1  UNL1        0.1123
     14 C           1.6158   74.6845   19.8354 C.ar    1  UNL1        0.1318
     15 C           0.8712   75.6643   19.1585 C.ar    1  UNL1        0.0343
     16 C          -0.3397   75.3173   18.5576 C.ar    1  UNL1        0.0083
     17 C          -0.8193   74.0018   18.6416 C.ar    1  UNL1        0.0906
     18 C          -0.0290   73.0452   19.2973 C.ar    1  UNL1        0.1041
     19 N           1.1478   73.4063   19.8737 N.ar    1  UNL1       -0.2292
     20 C          -2.0998   73.6029   17.9535 C.3     1  UNL1        0.4200
     21 F          -3.1746   74.2963   18.4827 F       1  UNL1       -0.1658
     22 F          -2.3077   72.2476   18.1283 F       1  UNL1       -0.1658
     23 F          -2.0317   73.8781   16.5986 F       1  UNL1       -0.1658
     24 O          10.9657   75.3503   24.8104 O.2     1  UNL1       -0.2701
     25 C           9.9375   76.0212   25.1011 C.2     1  UNL1        0.2483
     26 N           9.9895   76.9846   26.1661 N.am    1  UNL1       -0.2945
     27 H           9.2422   77.7129   26.1979 H       1  UNL1        0.1501
     28 C          11.1955   77.1867   26.9781 C.3     1  UNL1        0.1535
     29 C          12.2001   78.0286   26.2334 C.2     1  UNL1        0.2443
     30 O          11.9841   79.2606   26.0668 O.2     1  UNL1       -0.2730
     31 N          13.4369   77.4422   25.7984 N.am    1  UNL1       -0.2825
     32 H          13.7013   76.5128   26.1970 H       1  UNL1        0.1549
     33 C          14.3870   78.1064   24.9486 C.ar    1  UNL1        0.0535
     34 C          14.8920   79.3582   25.3262 C.ar    1  UNL1        0.0353
     35 C          15.8316   79.9983   24.5146 C.ar    1  UNL1        0.1002
     36 N          16.2658   79.4017   23.3731 N.ar    1  UNL1       -0.2422
     37 C          15.8097   78.1797   22.9907 C.ar    1  UNL1        0.1002
     38 C          14.8685   77.5055   23.7731 C.ar    1  UNL1        0.0353
     39 C          10.8499   77.7932   28.3542 C.3     1  UNL1        0.0569
     40 C           9.4775   78.4088   28.4134 C.ar    1  UNL1       -0.0017
     41 C           9.1033   79.6507   27.9069 C.ar    1  UNL1        0.0681
     42 N           7.7799   79.8583   28.0933 N.ar    1  UNL1       -0.3523
     43 C           7.3148   78.7595   28.7123 C.ar    1  UNL1        0.0563
     44 C           6.0012   78.5024   29.1027 C.ar    1  UNL1        0.0170
     45 C           5.7306   77.2737   29.7322 C.ar    1  UNL1        0.0015
     46 C           6.7674   76.3414   29.9575 C.ar    1  UNL1        0.0001
     47 C           8.0840   76.6292   29.5551 C.ar    1  UNL1        0.0012
     48 C           8.3212   77.8528   28.9276 C.ar    1  UNL1        0.0131
     49 H           7.2330   80.7001   27.8059 H       1  UNL1        0.1660
     50 C           7.0235   77.2324   21.1957 C.2     1  UNL1        0.3415
     51 O           6.7577   76.6627   20.1044 O.2     1  UNL1       -0.2450
     52 O           7.0798   78.6238   21.2336 O.3     1  UNL1       -0.4770
     53 H           7.2038   79.1283   22.1027 H       1  UNL1        0.2954
@<TRIPOS>BOND
     1    24    25    2
     2    25    26   am
     3    26    28    1
     4    28    39    1
     5    39    40    1
     6    40    41   ar
     7    41    42   ar
     8    42    43   ar
     9    43    44   ar
    10    44    45   ar
    11    45    46   ar
    12    46    47   ar
    13    47    48   ar
    14    28    29    1
    15    29    30    2
    16    29    31   am
    17    31    33    1
    18    33    34   ar
    19    34    35   ar
    20    35    36   ar
    21    36    37   ar
    22    37    38   ar
    23    25     1    1
    24     1     2   ar
    25     2     3   ar
    26     3     4   ar
    27     4     8    1
    28     8     9    1
    29     9    10    1
    30    10    11    1
    31    11    14    1
    32    14    15   ar
    33    15    16   ar
    34    16    17   ar
    35    17    20    1
    36    20    21    1
    37    20    22    1
    38    20    23    1
    39    17    18   ar
    40    18    19   ar
    41    11    12    1
    42    12    13    1
    43     4     5   ar
    44     5    50    1
    45    50    51    2
    46    50    52    1
    47     5     6   ar
    48     6     7    1
    49    48    40   ar
    50    38    33   ar
    51     6     1   ar
    52    48    43   ar
    53    13     8    1
    54    19    14   ar
    55    26    27    1
    56    42    49    1
    57    31    32    1
    58    52    53    1
@<TRIPOS>MOLECULE
*****
 53 58 0 0 0
SMALL
GASTEIGER

@<TRIPOS>ATOM
      1 C           8.5675   75.8511   24.5890 C.ar    1  UNL1        0.0811
      2 C           8.6302   75.4333   23.2519 C.ar    1  UNL1        0.0080
      3 C           7.4646   75.2698   22.5054 C.ar    1  UNL1        0.0150
      4 C           6.2099   75.5078   23.0813 C.ar    1  UNL1        0.0564
      5 C           6.1257   75.9103   24.4333 C.ar    1  UNL1        0.1162
      6 C           7.3088   76.0758   25.1809 C.ar    1  UNL1        0.1518
      7 F           7.2319   76.4548   26.4821 F       1  UNL1       -0.2038
      8 N           5.0224   75.2859   22.3017 N.pl3   1  UNL1       -0.3038
      9 C           3.9652   76.3009   22.3122 C.3     1  UNL1        0.1123
     10 C           3.2326   76.3220   20.9685 C.3     1  UNL1        0.1136
     11 N           2.8889   74.9557   20.5493 N.pl3   1  UNL1       -0.2897
     12 C           3.9561   73.9466   20.5490 C.3     1  UNL1        0.1136
     13 C           4.6631   73.9228   21.9031 C.3     1  UNL1        0.1123
     14 C           1.6402   74.6707   19.8864 C.ar    1  UNL1        0.1318
     15 C           0.9452   75.6656   19.1796 C.ar    1  UNL1        0.0343
     16 C          -0.2591   75.3496   18.5489 C.ar    1  UNL1        0.0083
     17 C          -0.7813   74.0504   18.6325 C.ar    1  UNL1        0.0906
     18 C          -0.0393   73.0771   19.3190 C.ar    1  UNL1        0.1041
     19 N           1.1320   73.4078   19.9242 N.ar    1  UNL1       -0.2292
     20 C          -2.0544   73.6839   17.9132 C.3     1  UNL1        0.4200
     21 F          -2.3145   72.3303   18.0406 F       1  UNL1       -0.1658
     22 F          -1.9251   73.9937   16.5724 F       1  UNL1       -0.1658
     23 F          -3.1287   74.3825   18.4364 F       1  UNL1       -0.1658
     24 O          10.7549   75.2010   25.2253 O.2     1  UNL1       -0.2701
     25 C           9.8237   76.0432   25.3496 C.2     1  UNL1        0.2483
     26 N          10.0091   77.1962   26.1869 N.am    1  UNL1       -0.2945
     27 H           9.3610   78.0034   26.0507 H       1  UNL1        0.1501
     28 C          11.2393   77.4118   26.9580 C.3     1  UNL1        0.1535
     29 C          12.2424   78.1920   26.1472 C.2     1  UNL1        0.2443
     30 O          11.9718   79.3686   25.7800 O.2     1  UNL1       -0.2730
     31 N          13.5338   77.6249   25.8760 N.am    1  UNL1       -0.2825
     32 H          13.8219   76.7851   26.4277 H       1  UNL1        0.1549
     33 C          14.4988   78.2107   24.9861 C.ar    1  UNL1        0.0535
     34 C          14.9148   77.4964   23.8542 C.ar    1  UNL1        0.0353
     35 C          15.8363   78.0698   22.9748 C.ar    1  UNL1        0.1002
     36 N          16.3138   79.3209   23.2077 N.ar    1  UNL1       -0.2422
     37 C          15.9143   80.0460   24.2858 C.ar    1  UNL1        0.1002
     38 C          14.9950   79.5094   25.1909 C.ar    1  UNL1        0.0353
     39 C          10.9418   78.0946   28.3093 C.3     1  UNL1        0.0569
     40 C           9.5993   77.7310   28.8851 C.ar    1  UNL1       -0.0017
     41 C           8.5544   78.6064   29.1691 C.ar    1  UNL1        0.0681
     42 N           7.4797   77.9266   29.6296 N.ar    1  UNL1       -0.3523
     43 C           7.8356   76.6305   29.6388 C.ar    1  UNL1        0.0563
     44 C           7.0534   75.5426   30.0243 C.ar    1  UNL1        0.0170
     45 C           7.6259   74.2599   29.9453 C.ar    1  UNL1        0.0015
     46 C           8.9530   74.0953   29.4907 C.ar    1  UNL1        0.0001
     47 C           9.7195   75.2117   29.1109 C.ar    1  UNL1        0.0012
     48 C           9.1233   76.4706   29.1939 C.ar    1  UNL1        0.0131
     49 H           6.5591   78.3304   29.9122 H       1  UNL1        0.1660
     50 C           4.8136   76.1996   25.0570 C.2     1  UNL1        0.3415
     51 O           4.1706   75.2771   25.6241 O.2     1  UNL1       -0.2450
     52 O           4.2723   77.4830   25.0338 O.3     1  UNL1       -0.4770
     53 H           4.7895   78.2725   24.6672 H       1  UNL1        0.2954
@<TRIPOS>BOND
     1    24    25    2
     2    25    26   am
     3    26    28    1
     4    28    39    1
     5    39    40    1
     6    40    41   ar
     7    41    42   ar
     8    42    43   ar
     9    43    44   ar
    10    44    45   ar
    11    45    46   ar
    12    46    47   ar
    13    47    48   ar
    14    28    29    1
    15    29    30    2
    16    29    31   am
    17    31    33    1
    18    33    34   ar
    19    34    35   ar
    20    35    36   ar
    21    36    37   ar
    22    37    38   ar
    23    25     1    1
    24     1     2   ar
    25     2     3   ar
    26     3     4   ar
    27     4     8    1
    28     8     9    1
    29     9    10    1
    30    10    11    1
    31    11    14    1
    32    14    15   ar
    33    15    16   ar
    34    16    17   ar
    35    17    20    1
    36    20    21    1
    37    20    22    1
    38    20    23    1
    39    17    18   ar
    40    18    19   ar
    41    11    12    1
    42    12    13    1
    43     4     5   ar
    44     5    50    1
    45    50    51    2
    46    50    52    1
    47     5     6   ar
    48     6     7    1
    49    48    40   ar
    50    38    33   ar
    51     6     1   ar
    52    48    43   ar
    53    13     8    1
    54    19    14   ar
    55    26    27    1
    56    42    49    1
    57    31    32    1
    58    52    53    1
@<TRIPOS>MOLECULE
*****
 53 58 0 0 0
SMALL
GASTEIGER

@<TRIPOS>ATOM
      1 C           9.8309   77.7069   24.7595 C.ar    1  UNL1        0.0811
      2 C           9.1385   78.9168   24.9112 C.ar    1  UNL1        0.0080
      3 C           9.8318   80.1112   25.0987 C.ar    1  UNL1        0.0150
      4 C          11.2317   80.1222   25.1514 C.ar    1  UNL1        0.0564
      5 C          11.9463   78.9100   25.0204 C.ar    1  UNL1        0.1162
      6 C          11.2382   77.7068   24.8286 C.ar    1  UNL1        0.1518
      7 F          11.9204   76.5392   24.7101 F       1  UNL1       -0.2038
      8 N          11.9189   81.3618   25.3928 N.pl3   1  UNL1       -0.3038
      9 C          12.1065   81.8132   26.7745 C.3     1  UNL1        0.1123
     10 C          13.4066   82.6104   26.9034 C.3     1  UNL1        0.1136
     11 N          13.5115   83.6004   25.8219 N.pl3   1  UNL1       -0.2897
     12 C          13.3155   83.1362   24.4422 C.3     1  UNL1        0.1136
     13 C          12.0040   82.3614   24.3252 C.3     1  UNL1        0.1123
     14 C          14.0698   84.9086   26.0597 C.ar    1  UNL1        0.1318
     15 C          14.3567   85.7838   24.9993 C.ar    1  UNL1        0.0343
     16 C          14.8941   87.0430   25.2706 C.ar    1  UNL1        0.0083
     17 C          15.1611   87.4277   26.5929 C.ar    1  UNL1        0.0906
     18 C          14.8282   86.5379   27.6257 C.ar    1  UNL1        0.1041
     19 N          14.3043   85.3173   27.3374 N.ar    1  UNL1       -0.2292
     20 C          15.6932   88.8037   26.9025 C.3     1  UNL1        0.4200
     21 F          14.8131   89.4956   27.7165 F       1  UNL1       -0.1658
     22 F          15.8605   89.5034   25.7222 F       1  UNL1       -0.1658
     23 F          16.9115   88.7202   27.5543 F       1  UNL1       -0.1658
     24 O           9.2515   75.4756   25.3052 O.2     1  UNL1       -0.2701
     25 C           9.0688   76.4572   24.5339 C.2     1  UNL1        0.2483
     26 N           8.0959   76.3676   23.4801 N.am    1  UNL1       -0.2945
     27 H           7.7611   77.2592   23.0523 H       1  UNL1        0.1501
     28 C           7.3295   75.1416   23.2271 C.3     1  UNL1        0.1535
     29 C           5.8502   75.4095   23.3389 C.2     1  UNL1        0.2443
     30 O           5.0252   74.5648   22.8938 O.2     1  UNL1       -0.2730
     31 N           5.3894   76.5802   24.0317 N.am    1  UNL1       -0.2825
     32 H           6.0779   77.0973   24.6244 H       1  UNL1        0.1549
     33 C           4.0184   77.0114   24.0588 C.ar    1  UNL1        0.0535
     34 C           3.3660   77.3096   22.8547 C.ar    1  UNL1        0.0353
     35 C           2.0275   77.7085   22.8739 C.ar    1  UNL1        0.1002
     36 N           1.3572   77.7905   24.0536 N.ar    1  UNL1       -0.2422
     37 C           1.9568   77.4888   25.2354 C.ar    1  UNL1        0.1002
     38 C           3.2948   77.0868   25.2611 C.ar    1  UNL1        0.0353
     39 C           7.6965   74.5224   21.8623 C.3     1  UNL1        0.0569
     40 C           8.6321   73.3477   21.9660 C.ar    1  UNL1       -0.0017
     41 C           8.2871   72.0020   21.8700 C.ar    1  UNL1        0.0681
     42 N           9.3894   71.2236   21.9601 N.ar    1  UNL1       -0.3523
     43 C          10.4270   72.0645   22.1115 C.ar    1  UNL1        0.0563
     44 C          11.7747   71.7292   22.2357 C.ar    1  UNL1        0.0170
     45 C          12.7031   72.7769   22.3758 C.ar    1  UNL1        0.0015
     46 C          12.2685   74.1208   22.3913 C.ar    1  UNL1        0.0001
     47 C          10.9020   74.4290   22.2667 C.ar    1  UNL1        0.0012
     48 C          10.0052   73.3697   22.1229 C.ar    1  UNL1        0.0131
     49 H           9.4235   70.1810   21.9130 H       1  UNL1        0.1660
     50 C          13.4274   78.8980   25.0402 C.2     1  UNL1        0.3415
     51 O          14.0391   78.0842   25.7815 O.2     1  UNL1       -0.2450
     52 O          14.1655   79.7726   24.2458 O.3     1  UNL1       -0.4770
     53 H          13.7211   80.3835   23.5717 H       1  UNL1        0.2954
@<TRIPOS>BOND
     1    24    25    2
     2    25    26   am
     3    26    28    1
     4    28    39    1
     5    39    40    1
     6    40    41   ar
     7    41    42   ar
     8    42    43   ar
     9    43    44   ar
    10    44    45   ar
    11    45    46   ar
    12    46    47   ar
    13    47    48   ar
    14    28    29    1
    15    29    30    2
    16    29    31   am
    17    31    33    1
    18    33    34   ar
    19    34    35   ar
    20    35    36   ar
    21    36    37   ar
    22    37    38   ar
    23    25     1    1
    24     1     2   ar
    25     2     3   ar
    26     3     4   ar
    27     4     8    1
    28     8     9    1
    29     9    10    1
    30    10    11    1
    31    11    14    1
    32    14    15   ar
    33    15    16   ar
    34    16    17   ar
    35    17    20    1
    36    20    21    1
    37    20    22    1
    38    20    23    1
    39    17    18   ar
    40    18    19   ar
    41    11    12    1
    42    12    13    1
    43     4     5   ar
    44     5    50    1
    45    50    51    2
    46    50    52    1
    47     5     6   ar
    48     6     7    1
    49    48    40   ar
    50    38    33   ar
    51     6     1   ar
    52    48    43   ar
    53    13     8    1
    54    19    14   ar
    55    26    27    1
    56    42    49    1
    57    31    32    1
    58    52    53    1
@<TRIPOS>MOLECULE
*****
 53 58 0 0 0
SMALL
GASTEIGER

@<TRIPOS>ATOM
      1 C          11.8637   81.5192   25.1282 C.ar    1  UNL1        0.0811
      2 C          11.5950   81.3066   26.4879 C.ar    1  UNL1        0.0080
      3 C          10.7294   80.2903   26.8886 C.ar    1  UNL1        0.0150
      4 C          10.1032   79.4718   25.9396 C.ar    1  UNL1        0.0564
      5 C          10.3461   79.6838   24.5637 C.ar    1  UNL1        0.1162
      6 C          11.2245   80.7117   24.1665 C.ar    1  UNL1        0.1518
      7 F          11.4546   80.9237   22.8456 F       1  UNL1       -0.2038
      8 N           9.1791   78.4619   26.3791 N.pl3   1  UNL1       -0.3038
      9 C           7.9132   78.8749   26.9916 C.3     1  UNL1        0.1123
     10 C           6.8149   77.8534   26.6870 C.3     1  UNL1        0.1136
     11 N           7.3006   76.4880   26.9332 N.pl3   1  UNL1       -0.2897
     12 C           8.5734   76.0887   26.3185 C.3     1  UNL1        0.1136
     13 C           9.6639   77.1062   26.6495 C.3     1  UNL1        0.1123
     14 C           6.4398   75.4817   27.5042 C.ar    1  UNL1        0.1318
     15 C           6.5516   74.1309   27.1362 C.ar    1  UNL1        0.0343
     16 C           5.7017   73.1863   27.7134 C.ar    1  UNL1        0.0083
     17 C           4.7306   73.5843   28.6442 C.ar    1  UNL1        0.0906
     18 C           4.6742   74.9378   29.0106 C.ar    1  UNL1        0.1041
     19 N           5.5135   75.8395   28.4361 N.ar    1  UNL1       -0.2292
     20 C           3.8413   72.5671   29.3127 C.3     1  UNL1        0.4200
     21 F           4.1203   71.2938   28.8469 F       1  UNL1       -0.1658
     22 F           2.5202   72.8676   29.0391 F       1  UNL1       -0.1658
     23 F           4.0322   72.5783   30.6836 F       1  UNL1       -0.1658
     24 O          14.0118   82.2914   24.4947 O.2     1  UNL1       -0.2701
     25 C          12.8090   82.5886   24.7331 C.2     1  UNL1        0.2483
     26 N          12.3625   83.9452   24.5748 N.am    1  UNL1       -0.2945
     27 H          11.3348   84.1111   24.4948 H       1  UNL1        0.1501
     28 C          13.2758   85.0283   24.1908 C.3     1  UNL1        0.1535
     29 C          13.9167   85.6381   25.4115 C.2     1  UNL1        0.2443
     30 O          14.4397   84.8910   26.2836 O.2     1  UNL1       -0.2730
     31 N          14.0077   87.0666   25.5289 N.am    1  UNL1       -0.2825
     32 H          13.8261   87.6377   24.6724 H       1  UNL1        0.1549
     33 C          14.4515   87.7497   26.7132 C.ar    1  UNL1        0.0535
     34 C          15.6587   88.4613   26.6867 C.ar    1  UNL1        0.0353
     35 C          16.0839   89.1445   27.8284 C.ar    1  UNL1        0.1002
     36 N          15.3217   89.1324   28.9538 N.ar    1  UNL1       -0.2422
     37 C          14.1370   88.4681   29.0040 C.ar    1  UNL1        0.1002
     38 C          13.6754   87.7708   27.8846 C.ar    1  UNL1        0.0353
     39 C          14.3301   84.5393   23.1759 C.3     1  UNL1        0.0569
     40 C          14.8078   85.6157   22.2381 C.ar    1  UNL1       -0.0017
     41 C          14.2826   85.9154   20.9838 C.ar    1  UNL1        0.0681
     42 N          14.9256   86.9751   20.4427 N.ar    1  UNL1       -0.3523
     43 C          15.8513   87.3477   21.3433 C.ar    1  UNL1        0.0563
     44 C          16.7540   88.4052   21.2384 C.ar    1  UNL1        0.0170
     45 C          17.6365   88.6256   22.3117 C.ar    1  UNL1        0.0015
     46 C          17.5994   87.7921   23.4514 C.ar    1  UNL1        0.0001
     47 C          16.6796   86.7310   23.5283 C.ar    1  UNL1        0.0012
     48 C          15.8127   86.5404   22.4515 C.ar    1  UNL1        0.0131
     49 H          14.7331   87.4162   19.5160 H       1  UNL1        0.1660
     50 C           9.7222   78.8121   23.5414 C.2     1  UNL1        0.3415
     51 O           8.8229   79.2713   22.7886 O.2     1  UNL1       -0.2450
     52 O          10.1152   77.4843   23.3899 O.3     1  UNL1       -0.4770
     53 H          10.8915   77.0959   23.9111 H       1  UNL1        0.2954
@<TRIPOS>BOND
     1    24    25    2
     2    25    26   am
     3    26    28    1
     4    28    39    1
     5    39    40    1
     6    40    41   ar
     7    41    42   ar
     8    42    43   ar
     9    43    44   ar
    10    44    45   ar
    11    45    46   ar
    12    46    47   ar
    13    47    48   ar
    14    28    29    1
    15    29    30    2
    16    29    31   am
    17    31    33    1
    18    33    34   ar
    19    34    35   ar
    20    35    36   ar
    21    36    37   ar
    22    37    38   ar
    23    25     1    1
    24     1     2   ar
    25     2     3   ar
    26     3     4   ar
    27     4     8    1
    28     8     9    1
    29     9    10    1
    30    10    11    1
    31    11    14    1
    32    14    15   ar
    33    15    16   ar
    34    16    17   ar
    35    17    20    1
    36    20    21    1
    37    20    22    1
    38    20    23    1
    39    17    18   ar
    40    18    19   ar
    41    11    12    1
    42    12    13    1
    43     4     5   ar
    44     5    50    1
    45    50    51    2
    46    50    52    1
    47     5     6   ar
    48     6     7    1
    49    48    40   ar
    50    38    33   ar
    51     6     1   ar
    52    48    43   ar
    53    13     8    1
    54    19    14   ar
    55    26    27    1
    56    42    49    1
    57    31    32    1
    58    52    53    1
@<TRIPOS>MOLECULE
*****
 53 58 0 0 0
SMALL
GASTEIGER

@<TRIPOS>ATOM
      1 C           9.5529   76.9821   26.1326 C.ar    1  UNL1        0.0811
      2 C          10.5003   77.5383   27.0041 C.ar    1  UNL1        0.0080
      3 C          11.1864   78.7006   26.6563 C.ar    1  UNL1        0.0150
      4 C          10.9506   79.3263   25.4253 C.ar    1  UNL1        0.0564
      5 C          10.0140   78.7694   24.5254 C.ar    1  UNL1        0.1162
      6 C           9.3225   77.5954   24.8852 C.ar    1  UNL1        0.1518
      7 F           8.4277   77.0529   24.0205 F       1  UNL1       -0.2038
      8 N          11.7066   80.4975   25.0730 N.pl3   1  UNL1       -0.3038
      9 C          10.9914   81.7391   24.7651 C.3     1  UNL1        0.1123
     10 C          11.8305   82.9529   25.1715 C.3     1  UNL1        0.1136
     11 N          13.2135   82.8037   24.6960 N.pl3   1  UNL1       -0.2897
     12 C          13.9170   81.5522   25.0062 C.3     1  UNL1        0.1136
     13 C          13.0766   80.3513   24.5752 C.3     1  UNL1        0.1123
     14 C          13.9592   83.9357   24.2035 C.ar    1  UNL1        0.1318
     15 C          14.0740   85.1169   24.9545 C.ar    1  UNL1        0.0343
     16 C          14.8067   86.1897   24.4445 C.ar    1  UNL1        0.0083
     17 C          15.4125   86.0959   23.1828 C.ar    1  UNL1        0.0906
     18 C          15.3029   84.8865   22.4795 C.ar    1  UNL1        0.1041
     19 N          14.5853   83.8547   22.9969 N.ar    1  UNL1       -0.2292
     20 C          16.2489   87.2282   22.6435 C.3     1  UNL1        0.4200
     21 F          16.5409   87.0250   21.3058 F       1  UNL1       -0.1658
     22 F          17.4306   87.3012   23.3568 F       1  UNL1       -0.1658
     23 F          15.5752   88.4316   22.7618 F       1  UNL1       -0.1658
     24 O           9.1480   75.1715   27.6057 O.2     1  UNL1       -0.2701
     25 C           8.8191   75.7620   26.5404 C.2     1  UNL1        0.2483
     26 N           7.7131   75.2734   25.7639 N.am    1  UNL1       -0.2945
     27 H           7.2853   75.9229   25.0673 H       1  UNL1        0.1501
     28 C           6.9701   74.0640   26.1379 C.3     1  UNL1        0.1535
     29 C           6.1782   74.2981   27.3991 C.2     1  UNL1        0.2443
     30 O           5.4355   73.3835   27.8513 O.2     1  UNL1       -0.2730
     31 N           6.3439   75.5257   28.1259 N.am    1  UNL1       -0.2825
     32 H           7.1635   76.1276   27.8837 H       1  UNL1        0.1549
     33 C           5.5279   75.9155   29.2432 C.ar    1  UNL1        0.0535
     34 C           6.0513   75.8328   30.5408 C.ar    1  UNL1        0.0353
     35 C           5.2699   76.2305   31.6282 C.ar    1  UNL1        0.1002
     36 N           4.0145   76.7109   31.4264 N.ar    1  UNL1       -0.2422
     37 C           3.4867   76.8215   30.1788 C.ar    1  UNL1        0.1002
     38 C           4.2341   76.4338   29.0636 C.ar    1  UNL1        0.0353
     39 C           6.0721   73.5773   24.9814 C.3     1  UNL1        0.0569
     40 C           5.6832   74.6689   24.0206 C.ar    1  UNL1       -0.0017
     41 C           6.1421   74.8270   22.7155 C.ar    1  UNL1        0.0681
     42 N           5.5429   75.8881   22.1288 N.ar    1  UNL1       -0.3523
     43 C           4.7098   76.4012   23.0504 C.ar    1  UNL1        0.0563
     44 C           3.8641   77.5003   22.9058 C.ar    1  UNL1        0.0170
     45 C           3.0631   77.8630   24.0041 C.ar    1  UNL1        0.0015
     46 C           3.1266   77.1293   25.2093 C.ar    1  UNL1        0.0001
     47 C           3.9913   76.0264   25.3272 C.ar    1  UNL1        0.0012
     48 C           4.7690   75.6864   24.2196 C.ar    1  UNL1        0.0131
     49 H           5.6941   76.2308   21.1541 H       1  UNL1        0.1660
     50 C           9.7225   79.4288   23.2314 C.2     1  UNL1        0.3415
     51 O          10.1160   78.9040   22.1563 O.2     1  UNL1       -0.2450
     52 O           9.0119   80.6257   23.1768 O.3     1  UNL1       -0.4770
     53 H           8.6013   81.0395   24.0047 H       1  UNL1        0.2954
@<TRIPOS>BOND
     1    24    25    2
     2    25    26   am
     3    26    28    1
     4    28    39    1
     5    39    40    1
     6    40    41   ar
     7    41    42   ar
     8    42    43   ar
     9    43    44   ar
    10    44    45   ar
    11    45    46   ar
    12    46    47   ar
    13    47    48   ar
    14    28    29    1
    15    29    30    2
    16    29    31   am
    17    31    33    1
    18    33    34   ar
    19    34    35   ar
    20    35    36   ar
    21    36    37   ar
    22    37    38   ar
    23    25     1    1
    24     1     2   ar
    25     2     3   ar
    26     3     4   ar
    27     4     8    1
    28     8     9    1
    29     9    10    1
    30    10    11    1
    31    11    14    1
    32    14    15   ar
    33    15    16   ar
    34    16    17   ar
    35    17    20    1
    36    20    21    1
    37    20    22    1
    38    20    23    1
    39    17    18   ar
    40    18    19   ar
    41    11    12    1
    42    12    13    1
    43     4     5   ar
    44     5    50    1
    45    50    51    2
    46    50    52    1
    47     5     6   ar
    48     6     7    1
    49    48    40   ar
    50    38    33   ar
    51     6     1   ar
    52    48    43   ar
    53    13     8    1
    54    19    14   ar
    55    26    27    1
    56    42    49    1
    57    31    32    1
    58    52    53    1
@<TRIPOS>MOLECULE
*****
 53 58 0 0 0
SMALL
GASTEIGER

@<TRIPOS>ATOM
      1 C           9.5247   76.9203   26.0827 C.ar    1  UNL1        0.0811
      2 C          10.4679   77.4727   26.9611 C.ar    1  UNL1        0.0080
      3 C          11.1539   78.6378   26.6228 C.ar    1  UNL1        0.0150
      4 C          10.9223   79.2703   25.3944 C.ar    1  UNL1        0.0564
      5 C           9.9900   78.7174   24.4876 C.ar    1  UNL1        0.1162
      6 C           9.2985   77.5405   24.8379 C.ar    1  UNL1        0.1518
      7 F           8.4078   77.0019   23.9665 F       1  UNL1       -0.2038
      8 N          11.6782   80.4443   25.0519 N.pl3   1  UNL1       -0.3038
      9 C          10.9626   81.6856   24.7432 C.3     1  UNL1        0.1123
     10 C          11.7961   82.8997   25.1600 C.3     1  UNL1        0.1136
     11 N          13.1828   82.7552   24.6942 N.pl3   1  UNL1       -0.2897
     12 C          13.8867   81.5042   25.0050 C.3     1  UNL1        0.1136
     13 C          13.0522   80.3030   24.5636 C.3     1  UNL1        0.1123
     14 C          13.9295   83.8905   24.2112 C.ar    1  UNL1        0.1318
     15 C          14.0334   85.0705   24.9658 C.ar    1  UNL1        0.0343
     16 C          14.7676   86.1468   24.4651 C.ar    1  UNL1        0.0083
     17 C          15.3857   86.0576   23.2090 C.ar    1  UNL1        0.0906
     18 C          15.2866   84.8493   22.5021 C.ar    1  UNL1        0.1041
     19 N          14.5674   83.8141   23.0105 N.ar    1  UNL1       -0.2292
     20 C          16.2236   87.1936   22.6801 C.3     1  UNL1        0.4200
     21 F          16.4440   87.0462   21.3216 F       1  UNL1       -0.1658
     22 F          17.4406   87.2052   23.3354 F       1  UNL1       -0.1658
     23 F          15.5881   88.4058   22.8868 F       1  UNL1       -0.1658
     24 O           9.1447   75.0760   27.5201 O.2     1  UNL1       -0.2701
     25 C           8.7907   75.6970   26.4805 C.2     1  UNL1        0.2483
     26 N           7.6574   75.2393   25.7248 N.am    1  UNL1       -0.2945
     27 H           7.2160   75.9107   25.0582 H       1  UNL1        0.1501
     28 C           6.9135   74.0276   26.0894 C.3     1  UNL1        0.1535
     29 C           6.1512   74.2405   27.3725 C.2     1  UNL1        0.2443
     30 O           5.3843   73.3356   27.8030 O.2     1  UNL1       -0.2730
     31 N           6.3723   75.4329   28.1421 N.am    1  UNL1       -0.2825
     32 H           7.2085   76.0148   27.9081 H       1  UNL1        0.1549
     33 C           5.5891   75.8077   29.2876 C.ar    1  UNL1        0.0535
     34 C           6.1593   75.7349   30.5659 C.ar    1  UNL1        0.0353
     35 C           5.4096   76.1181   31.6804 C.ar    1  UNL1        0.1002
     36 N           4.1392   76.5752   31.5233 N.ar    1  UNL1       -0.2422
     37 C           3.5657   76.6758   30.2951 C.ar    1  UNL1        0.1002
     38 C           4.2803   76.3019   29.1541 C.ar    1  UNL1        0.0353
     39 C           5.9866   73.5723   24.9430 C.3     1  UNL1        0.0569
     40 C           6.6405   73.6129   23.5877 C.ar    1  UNL1       -0.0017
     41 C           7.9942   73.4347   23.3146 C.ar    1  UNL1        0.0681
     42 N           8.2187   73.4865   21.9820 N.ar    1  UNL1       -0.3523
     43 C           7.0199   73.6953   21.4108 C.ar    1  UNL1        0.0563
     44 C           6.7415   73.8093   20.0494 C.ar    1  UNL1        0.0170
     45 C           5.4038   74.0182   19.6668 C.ar    1  UNL1        0.0015
     46 C           4.3865   74.1103   20.6424 C.ar    1  UNL1        0.0001
     47 C           4.6976   73.9940   22.0091 C.ar    1  UNL1        0.0012
     48 C           6.0317   73.7810   22.3582 C.ar    1  UNL1        0.0131
     49 H           9.1378   73.3778   21.4985 H       1  UNL1        0.1660
     50 C           9.7029   79.3838   23.1963 C.2     1  UNL1        0.3415
     51 O           9.0756   80.4758   23.1787 O.2     1  UNL1       -0.2450
     52 O          10.1194   78.8262   21.9895 O.3     1  UNL1       -0.4770
     53 H          10.7000   77.9971   21.9583 H       1  UNL1        0.2954
@<TRIPOS>BOND
     1    24    25    2
     2    25    26   am
     3    26    28    1
     4    28    39    1
     5    39    40    1
     6    40    41   ar
     7    41    42   ar
     8    42    43   ar
     9    43    44   ar
    10    44    45   ar
    11    45    46   ar
    12    46    47   ar
    13    47    48   ar
    14    28    29    1
    15    29    30    2
    16    29    31   am
    17    31    33    1
    18    33    34   ar
    19    34    35   ar
    20    35    36   ar
    21    36    37   ar
    22    37    38   ar
    23    25     1    1
    24     1     2   ar
    25     2     3   ar
    26     3     4   ar
    27     4     8    1
    28     8     9    1
    29     9    10    1
    30    10    11    1
    31    11    14    1
    32    14    15   ar
    33    15    16   ar
    34    16    17   ar
    35    17    20    1
    36    20    21    1
    37    20    22    1
    38    20    23    1
    39    17    18   ar
    40    18    19   ar
    41    11    12    1
    42    12    13    1
    43     4     5   ar
    44     5    50    1
    45    50    51    2
    46    50    52    1
    47     5     6   ar
    48     6     7    1
    49    48    40   ar
    50    38    33   ar
    51     6     1   ar
    52    48    43   ar
    53    13     8    1
    54    19    14   ar
    55    26    27    1
    56    42    49    1
    57    31    32    1
    58    52    53    1
