@<TRIPOS>MOLECULE
*****
 39 43 0 0 0
SMALL
GASTEIGER

@<TRIPOS>ATOM
      1 C          -7.3511  -11.8953   29.4495 C.ar    1  UNL1        0.1317
      2 C          -6.2414  -11.0468   29.6238 C.ar    1  UNL1        0.0286
      3 C          -5.0436  -11.2915   28.9273 C.ar    1  UNL1        0.0777
      4 C          -4.9621  -12.3839   28.0528 C.ar    1  UNL1        0.2964
      5 N          -6.0549  -13.1807   27.9116 N.ar    1  UNL1       -0.1291
      6 C          -6.2640  -14.2461   27.1171 C.ar    1  UNL1        0.2547
      7 C          -7.5892  -14.6380   27.3039 C.ar    1  UNL1        0.1238
      8 N          -8.1886  -13.8277   28.2085 N.ar    1  UNL1       -0.2945
      9 C          -7.2132  -12.9651   28.5597 C.ar    1  UNL1        0.3119
     10 H          -9.1174  -13.8607   28.5332 H       1  UNL1        0.1718
     11 N         -10.8150  -11.4918   31.8384 N.3     1  UNL1       -0.2647
     12 C          -9.5483  -10.8415   32.2333 C.3     1  UNL1        0.0941
     13 C          -8.7435  -10.4737   30.9874 C.3     1  UNL1        0.1084
     14 N          -8.5871  -11.6595   30.1409 N.pl3   1  UNL1       -0.2988
     15 C          -9.7839  -12.4366   29.8106 C.3     1  UNL1        0.1084
     16 C         -10.5635  -12.7406   31.0924 C.3     1  UNL1        0.0941
     17 C         -11.7346  -11.6907   32.9807 C.3     1  UNL1        0.1199
     18 C         -12.7440  -15.1101   33.4042 C.ar    1  UNL1        0.1165
     19 N         -12.8564  -13.9305   32.7575 N.ar    1  UNL1       -0.2344
     20 C         -11.9378  -13.1404   33.3505 C.ar    1  UNL1        0.0878
     21 C         -11.2866  -13.8594   34.3392 C.ar    1  UNL1        0.0499
     22 C         -10.2329  -13.3717   35.2837 C.3     1  UNL1        0.0511
     23 N         -11.8137  -15.0937   34.3787 N.ar    1  UNL1       -0.3443
     24 H         -11.5678  -15.8688   35.0343 H       1  UNL1        0.1668
     25 C         -13.0724  -17.1312   32.0029 C.3     1  UNL1        0.0084
     26 C         -13.6380  -16.2785   33.1319 C.3     1  UNL1        0.0637
     27 C          -8.3085  -15.7184   26.6059 C.ar    1  UNL1        0.0213
     28 C          -8.7134  -15.5397   25.2791 C.ar    1  UNL1        0.0013
     29 C          -9.4050  -16.5509   24.6085 C.ar    1  UNL1       -0.0042
     30 C          -9.7360  -17.7629   25.2543 C.ar    1  UNL1       -0.0228
     31 C          -9.3410  -17.9167   26.6046 C.ar    1  UNL1       -0.0042
     32 C          -8.6413  -16.9054   27.2685 C.ar    1  UNL1        0.0013
     33 C         -10.5025  -18.8541   24.4787 C.3     1  UNL1        0.0189
     34 C         -12.0207  -18.6514   24.6733 C.3     1  UNL1        0.0044
     35 C         -10.2157  -18.8322   22.9580 C.3     1  UNL1        0.0044
     36 C         -10.0989  -20.2464   25.0115 C.3     1  UNL1        0.0044
     37 C          -5.3018  -14.7286   26.0647 C.3     1  UNL1        0.2371
     38 O          -5.8075  -14.4473   24.7891 O.3     1  UNL1       -0.3725
     39 H          -6.5353  -15.1023   24.6229 H       1  UNL1        0.2111
@<TRIPOS>BOND
     1    25    26    1
     2    26    18    1
     3    18    19   ar
     4    19    20   ar
     5    20    17    1
     6    17    11    1
     7    11    12    1
     8    12    13    1
     9    13    14    1
    10    14     1    1
    11     1     2   ar
    12     2     3   ar
    13     3     4   ar
    14     4     5   ar
    15     5     6   ar
    16     6    37    1
    17    37    38    1
    18     6     7   ar
    19     7    27    1
    20    27    28   ar
    21    28    29   ar
    22    29    30   ar
    23    30    33    1
    24    33    34    1
    25    33    35    1
    26    33    36    1
    27    30    31   ar
    28    31    32   ar
    29     7     8   ar
    30     8     9   ar
    31    14    15    1
    32    15    16    1
    33    20    21   ar
    34    21    22    1
    35    21    23   ar
    36    23    18   ar
    37    16    11    1
    38     9     1   ar
    39     9     5   ar
    40    32    27   ar
    41    38    39    1
    42    23    24    1
    43     8    10    1
@<TRIPOS>MOLECULE
*****
 39 43 0 0 0
SMALL
GASTEIGER

@<TRIPOS>ATOM
      1 C          -9.0500   -6.1167   30.9411 C.ar    1  UNL1        0.1317
      2 C          -9.3499   -4.7984   30.5490 C.ar    1  UNL1        0.0286
      3 C         -10.6650   -4.4436   30.1968 C.ar    1  UNL1        0.0777
      4 C         -11.6790   -5.4104   30.2436 C.ar    1  UNL1        0.2964
      5 N         -11.3499   -6.6729   30.6267 N.ar    1  UNL1       -0.1291
      6 C         -12.1196   -7.7620   30.8039 C.ar    1  UNL1        0.2547
      7 C         -11.2886   -8.7724   31.2868 C.ar    1  UNL1        0.1238
      8 N         -10.0193   -8.3135   31.3996 N.ar    1  UNL1       -0.2945
      9 C         -10.1029   -7.0362   30.9748 C.ar    1  UNL1        0.3119
     10 H          -9.2233   -8.7982   31.7169 H       1  UNL1        0.1718
     11 N          -5.2700   -7.7066   31.9665 N.3     1  UNL1       -0.2647
     12 C          -5.7307   -7.7062   30.5626 C.3     1  UNL1        0.0941
     13 C          -6.6452   -6.5068   30.3170 C.3     1  UNL1        0.1084
     14 N          -7.7178   -6.4996   31.3153 N.pl3   1  UNL1       -0.2988
     15 C          -7.3500   -6.6283   32.7272 C.3     1  UNL1        0.1084
     16 C          -6.4070   -7.8216   32.9010 C.3     1  UNL1        0.0941
     17 C          -4.2224   -8.7201   32.2229 C.3     1  UNL1        0.1199
     18 C          -5.4847  -11.6268   30.5353 C.ar    1  UNL1        0.1165
     19 N          -5.4611  -10.2865   30.6944 N.ar    1  UNL1       -0.2344
     20 C          -4.5516  -10.0860   31.6701 C.ar    1  UNL1        0.0878
     21 C          -4.0412  -11.3076   32.0771 C.ar    1  UNL1        0.0499
     22 C          -3.0490  -11.5691   33.1668 C.3     1  UNL1        0.0511
     23 N          -4.6481  -12.2743   31.3700 N.ar    1  UNL1       -0.3443
     24 H          -4.5136  -13.3063   31.4590 H       1  UNL1        0.1668
     25 C          -7.8386  -11.7819   29.7666 C.3     1  UNL1        0.0084
     26 C          -6.4235  -12.3215   29.6001 C.3     1  UNL1        0.0637
     27 C         -11.6803  -10.1333   31.6945 C.ar    1  UNL1        0.0213
     28 C         -12.2964  -10.3374   32.9334 C.ar    1  UNL1        0.0013
     29 C         -12.6636  -11.6229   33.3374 C.ar    1  UNL1       -0.0042
     30 C         -12.4015  -12.7479   32.5242 C.ar    1  UNL1       -0.0228
     31 C         -11.7545  -12.5261   31.2851 C.ar    1  UNL1       -0.0042
     32 C         -11.3969  -11.2368   30.8816 C.ar    1  UNL1        0.0013
     33 C         -12.8215  -14.1513   33.0078 C.3     1  UNL1        0.0189
     34 C         -12.3670  -14.3474   34.4703 C.3     1  UNL1        0.0044
     35 C         -14.3515  -14.3781   32.9558 C.3     1  UNL1        0.0044
     36 C         -12.1583  -15.2244   32.1169 C.3     1  UNL1        0.0044
     37 C         -13.6227   -7.7678   30.7226 C.3     1  UNL1        0.2371
     38 O         -14.1444   -6.6782   31.4317 O.3     1  UNL1       -0.3725
     39 H         -14.0564   -6.9002   32.3957 H       1  UNL1        0.2111
@<TRIPOS>BOND
     1    25    26    1
     2    26    18    1
     3    18    19   ar
     4    19    20   ar
     5    20    17    1
     6    17    11    1
     7    11    12    1
     8    12    13    1
     9    13    14    1
    10    14     1    1
    11     1     2   ar
    12     2     3   ar
    13     3     4   ar
    14     4     5   ar
    15     5     6   ar
    16     6    37    1
    17    37    38    1
    18     6     7   ar
    19     7    27    1
    20    27    28   ar
    21    28    29   ar
    22    29    30   ar
    23    30    33    1
    24    33    34    1
    25    33    35    1
    26    33    36    1
    27    30    31   ar
    28    31    32   ar
    29     7     8   ar
    30     8     9   ar
    31    14    15    1
    32    15    16    1
    33    20    21   ar
    34    21    22    1
    35    21    23   ar
    36    23    18   ar
    37    16    11    1
    38     9     1   ar
    39     9     5   ar
    40    32    27   ar
    41    38    39    1
    42    23    24    1
    43     8    10    1
@<TRIPOS>MOLECULE
*****
 39 43 0 0 0
SMALL
GASTEIGER

@<TRIPOS>ATOM
      1 C          -9.3117   -6.2021   31.0348 C.ar    1  UNL1        0.1317
      2 C          -9.6793   -4.9057   30.6275 C.ar    1  UNL1        0.0286
      3 C         -11.0147   -4.6188   30.2900 C.ar    1  UNL1        0.0777
      4 C         -11.9810   -5.6314   30.3667 C.ar    1  UNL1        0.2964
      5 N         -11.5871   -6.8708   30.7638 N.ar    1  UNL1       -0.1291
      6 C         -12.3018   -7.9920   30.9691 C.ar    1  UNL1        0.2547
      7 C         -11.4171   -8.9544   31.4545 C.ar    1  UNL1        0.1238
      8 N         -10.1694   -8.4346   31.5411 N.ar    1  UNL1       -0.2945
      9 C         -10.3194   -7.1695   31.0984 C.ar    1  UNL1        0.3119
     10 H          -9.3469   -8.8762   31.8536 H       1  UNL1        0.1718
     11 N          -5.4131   -7.5754   31.9193 N.3     1  UNL1       -0.2647
     12 C          -5.8274   -7.3351   30.5215 C.3     1  UNL1        0.0941
     13 C          -6.8605   -6.2101   30.4726 C.3     1  UNL1        0.1084
     14 N          -7.9577   -6.5160   31.3945 N.pl3   1  UNL1       -0.2988
     15 C          -7.6217   -6.8922   32.7696 C.3     1  UNL1        0.1084
     16 C          -6.5589   -7.9937   32.7509 C.3     1  UNL1        0.0941
     17 C          -4.2687   -8.5081   32.0228 C.3     1  UNL1        0.1199
     18 C          -4.4389  -10.6194   29.1239 C.ar    1  UNL1        0.1165
     19 N          -4.4118   -9.3853   29.6702 N.ar    1  UNL1       -0.2344
     20 C          -4.2918   -9.6132   30.9943 C.ar    1  UNL1        0.0878
     21 C          -4.2443  -10.9789   31.2204 C.ar    1  UNL1        0.0499
     22 C          -4.1675  -11.6878   32.5364 C.3     1  UNL1        0.0511
     23 N          -4.3563  -11.6056   30.0383 N.ar    1  UNL1       -0.3443
     24 H          -4.3894  -12.6353   29.8657 H       1  UNL1        0.1668
     25 C          -4.9188   -9.5476   26.9382 C.3     1  UNL1        0.0084
     26 C          -4.6465  -10.8605   27.6619 C.3     1  UNL1        0.0637
     27 C         -11.7381  -10.3257   31.8886 C.ar    1  UNL1        0.0213
     28 C         -11.3293  -11.4143   31.1115 C.ar    1  UNL1        0.0013
     29 C         -11.6354  -12.7188   31.5052 C.ar    1  UNL1       -0.0042
     30 C         -12.3837  -12.9728   32.6761 C.ar    1  UNL1       -0.0228
     31 C         -12.8112  -11.8586   33.4368 C.ar    1  UNL1       -0.0042
     32 C         -12.4947  -10.5555   33.0433 C.ar    1  UNL1        0.0013
     33 C         -12.7024  -14.4285   33.0751 C.3     1  UNL1        0.0189
     34 C         -12.1238  -14.7146   34.4777 C.3     1  UNL1        0.0044
     35 C         -14.2205  -14.7260   33.1224 C.3     1  UNL1        0.0044
     36 C         -12.0672  -15.3953   32.0518 C.3     1  UNL1        0.0044
     37 C         -13.8040   -8.0698   30.9107 C.3     1  UNL1        0.2371
     38 O         -14.3585   -6.8086   31.1634 O.3     1  UNL1       -0.3725
     39 H         -14.2653   -6.6492   32.1393 H       1  UNL1        0.2111
@<TRIPOS>BOND
     1    25    26    1
     2    26    18    1
     3    18    19   ar
     4    19    20   ar
     5    20    17    1
     6    17    11    1
     7    11    12    1
     8    12    13    1
     9    13    14    1
    10    14     1    1
    11     1     2   ar
    12     2     3   ar
    13     3     4   ar
    14     4     5   ar
    15     5     6   ar
    16     6    37    1
    17    37    38    1
    18     6     7   ar
    19     7    27    1
    20    27    28   ar
    21    28    29   ar
    22    29    30   ar
    23    30    33    1
    24    33    34    1
    25    33    35    1
    26    33    36    1
    27    30    31   ar
    28    31    32   ar
    29     7     8   ar
    30     8     9   ar
    31    14    15    1
    32    15    16    1
    33    20    21   ar
    34    21    22    1
    35    21    23   ar
    36    23    18   ar
    37    16    11    1
    38     9     1   ar
    39     9     5   ar
    40    32    27   ar
    41    38    39    1
    42    23    24    1
    43     8    10    1
@<TRIPOS>MOLECULE
*****
 39 43 0 0 0
SMALL
GASTEIGER

@<TRIPOS>ATOM
      1 C          -7.4034   -8.9868   29.6335 C.ar    1  UNL1        0.1317
      2 C          -7.1357   -7.6087   29.5290 C.ar    1  UNL1        0.0286
      3 C          -8.0556   -6.6665   30.0244 C.ar    1  UNL1        0.0777
      4 C          -9.2407   -7.1078   30.6291 C.ar    1  UNL1        0.2964
      5 N          -9.4639   -8.4467   30.7108 N.ar    1  UNL1       -0.1291
      6 C         -10.4750   -9.1323   31.2746 C.ar    1  UNL1        0.2547
      7 C         -10.1664  -10.4865   31.1501 C.ar    1  UNL1        0.1238
      8 N          -8.9817  -10.6346   30.5107 N.ar    1  UNL1       -0.2945
      9 C          -8.5984   -9.3677   30.2518 C.ar    1  UNL1        0.3119
     10 H          -8.5113  -11.4701   30.2875 H       1  UNL1        0.1718
     11 N          -4.9883  -11.9512   27.8316 N.3     1  UNL1       -0.2647
     12 C          -5.1416  -10.6219   27.2050 C.3     1  UNL1        0.0941
     13 C          -5.3609   -9.5619   28.2836 C.3     1  UNL1        0.1084
     14 N          -6.4750   -9.9669   29.1451 N.pl3   1  UNL1       -0.2988
     15 C          -6.4620  -11.3214   29.7023 C.3     1  UNL1        0.1084
     16 C          -6.2022  -12.3308   28.5811 C.3     1  UNL1        0.0941
     17 C          -4.5710  -12.9924   26.8662 C.3     1  UNL1        0.1199
     18 C          -7.2358  -15.3963   26.9676 C.ar    1  UNL1        0.1165
     19 N          -6.5441  -14.3939   27.5498 N.ar    1  UNL1       -0.2344
     20 C          -5.6172  -14.0551   26.6302 C.ar    1  UNL1        0.0878
     21 C          -5.7706  -14.8558   25.5104 C.ar    1  UNL1        0.0499
     22 C          -4.9329  -14.8670   24.2701 C.3     1  UNL1        0.0511
     23 N          -6.7807  -15.7104   25.7389 N.ar    1  UNL1       -0.3443
     24 H          -7.1280  -16.4667   25.1077 H       1  UNL1        0.1668
     25 C          -8.9553  -17.1684   26.7240 C.3     1  UNL1        0.0084
     26 C          -8.3264  -16.1474   27.6641 C.3     1  UNL1        0.0637
     27 C         -10.9360  -11.6301   31.6714 C.ar    1  UNL1        0.0213
     28 C         -10.4156  -12.3993   32.7172 C.ar    1  UNL1        0.0013
     29 C         -11.1291  -13.4921   33.2142 C.ar    1  UNL1       -0.0042
     30 C         -12.3746  -13.8649   32.6616 C.ar    1  UNL1       -0.0228
     31 C         -12.8743  -13.0911   31.5872 C.ar    1  UNL1       -0.0042
     32 C         -12.1606  -11.9930   31.0992 C.ar    1  UNL1        0.0013
     33 C         -13.1302  -15.0800   33.2382 C.3     1  UNL1        0.0189
     34 C         -12.8719  -15.1710   34.7577 C.3     1  UNL1        0.0044
     35 C         -14.6610  -14.9994   33.0248 C.3     1  UNL1        0.0044
     36 C         -12.6293  -16.3713   32.5550 C.3     1  UNL1        0.0044
     37 C         -11.5780   -8.5114   32.0894 C.3     1  UNL1        0.2371
     38 O         -12.6721   -8.2152   31.2665 O.3     1  UNL1       -0.3725
     39 H         -12.4199   -7.4123   30.7391 H       1  UNL1        0.2111
@<TRIPOS>BOND
     1    25    26    1
     2    26    18    1
     3    18    19   ar
     4    19    20   ar
     5    20    17    1
     6    17    11    1
     7    11    12    1
     8    12    13    1
     9    13    14    1
    10    14     1    1
    11     1     2   ar
    12     2     3   ar
    13     3     4   ar
    14     4     5   ar
    15     5     6   ar
    16     6    37    1
    17    37    38    1
    18     6     7   ar
    19     7    27    1
    20    27    28   ar
    21    28    29   ar
    22    29    30   ar
    23    30    33    1
    24    33    34    1
    25    33    35    1
    26    33    36    1
    27    30    31   ar
    28    31    32   ar
    29     7     8   ar
    30     8     9   ar
    31    14    15    1
    32    15    16    1
    33    20    21   ar
    34    21    22    1
    35    21    23   ar
    36    23    18   ar
    37    16    11    1
    38     9     1   ar
    39     9     5   ar
    40    32    27   ar
    41    38    39    1
    42    23    24    1
    43     8    10    1
@<TRIPOS>MOLECULE
*****
 39 43 0 0 0
SMALL
GASTEIGER

@<TRIPOS>ATOM
      1 C          -7.3129  -11.9147   29.3844 C.ar    1  UNL1        0.1317
      2 C          -6.1707  -11.1153   29.5795 C.ar    1  UNL1        0.0286
      3 C          -4.9611  -11.4351   28.9360 C.ar    1  UNL1        0.0777
      4 C          -4.9000  -12.5535   28.0931 C.ar    1  UNL1        0.2964
      5 N          -6.0240  -13.3014   27.9304 N.ar    1  UNL1       -0.1291
      6 C          -6.2547  -14.3769   27.1558 C.ar    1  UNL1        0.2547
      7 C          -7.6033  -14.7005   27.3014 C.ar    1  UNL1        0.1238
      8 N          -8.1960  -13.8384   28.1615 N.ar    1  UNL1       -0.2945
      9 C          -7.1938  -13.0137   28.5280 C.ar    1  UNL1        0.3119
     10 H          -9.1368  -13.8186   28.4511 H       1  UNL1        0.1718
     11 N         -10.9117  -10.5318   31.1173 N.3     1  UNL1       -0.2647
     12 C         -10.7745  -10.6363   29.6499 C.3     1  UNL1        0.0941
     13 C          -9.8226  -11.7788   29.2978 C.3     1  UNL1        0.1084
     14 N          -8.5608  -11.6021   30.0216 N.pl3   1  UNL1       -0.2988
     15 C          -8.6189  -11.3622   31.4654 C.3     1  UNL1        0.1084
     16 C          -9.6137  -10.2353   31.7548 C.3     1  UNL1        0.0941
     17 C         -11.9719   -9.5831   31.5251 C.3     1  UNL1        0.1199
     18 C         -10.7915   -6.4697   30.1821 C.ar    1  UNL1        0.1165
     19 N         -10.6700   -7.8081   30.3089 N.ar    1  UNL1       -0.2344
     20 C         -11.7215   -8.1637   31.0754 C.ar    1  UNL1        0.0878
     21 C         -12.4588   -7.0346   31.3918 C.ar    1  UNL1        0.0499
     22 C         -13.6740   -6.9476   32.2613 C.3     1  UNL1        0.0511
     23 N         -11.8554   -5.9694   30.8405 N.ar    1  UNL1       -0.3443
     24 H         -12.1393   -4.9672   30.9188 H       1  UNL1        0.1668
     25 C          -8.5275   -5.4634   30.3162 C.3     1  UNL1        0.0084
     26 C          -9.7846   -5.6225   29.4700 C.3     1  UNL1        0.0637
     27 C          -8.3476  -15.7642   26.6040 C.ar    1  UNL1        0.0213
     28 C          -8.7398  -15.5807   25.2741 C.ar    1  UNL1        0.0013
     29 C          -9.4546  -16.5758   24.6039 C.ar    1  UNL1       -0.0042
     30 C          -9.8220  -17.7755   25.2530 C.ar    1  UNL1       -0.0228
     31 C          -9.4391  -17.9338   26.6063 C.ar    1  UNL1       -0.0042
     32 C          -8.7162  -16.9387   27.2698 C.ar    1  UNL1        0.0013
     33 C         -10.6133  -18.8491   24.4777 C.3     1  UNL1        0.0189
     34 C         -10.3602  -18.6800   22.9641 C.3     1  UNL1        0.0044
     35 C         -10.2137  -20.2937   24.8634 C.3     1  UNL1        0.0044
     36 C         -12.1219  -18.6876   24.7662 C.3     1  UNL1        0.0044
     37 C          -5.2785  -14.9327   26.1537 C.3     1  UNL1        0.2371
     38 O          -5.6136  -14.4951   24.8659 O.3     1  UNL1       -0.3725
     39 H          -6.4109  -15.0182   24.5883 H       1  UNL1        0.2111
@<TRIPOS>BOND
     1    25    26    1
     2    26    18    1
     3    18    19   ar
     4    19    20   ar
     5    20    17    1
     6    17    11    1
     7    11    12    1
     8    12    13    1
     9    13    14    1
    10    14     1    1
    11     1     2   ar
    12     2     3   ar
    13     3     4   ar
    14     4     5   ar
    15     5     6   ar
    16     6    37    1
    17    37    38    1
    18     6     7   ar
    19     7    27    1
    20    27    28   ar
    21    28    29   ar
    22    29    30   ar
    23    30    33    1
    24    33    34    1
    25    33    35    1
    26    33    36    1
    27    30    31   ar
    28    31    32   ar
    29     7     8   ar
    30     8     9   ar
    31    14    15    1
    32    15    16    1
    33    20    21   ar
    34    21    22    1
    35    21    23   ar
    36    23    18   ar
    37    16    11    1
    38     9     1   ar
    39     9     5   ar
    40    32    27   ar
    41    38    39    1
    42    23    24    1
    43     8    10    1
@<TRIPOS>MOLECULE
*****
 39 43 0 0 0
SMALL
GASTEIGER

@<TRIPOS>ATOM
      1 C          -8.8052   -6.8646   30.5184 C.ar    1  UNL1        0.1317
      2 C          -8.9804   -5.4756   30.3714 C.ar    1  UNL1        0.0286
      3 C         -10.2441   -4.8929   30.5788 C.ar    1  UNL1        0.0777
      4 C         -11.3295   -5.7035   30.9389 C.ar    1  UNL1        0.2964
      5 N         -11.1208   -7.0408   31.0707 N.ar    1  UNL1       -0.1291
      6 C         -11.9581   -8.0239   31.4479 C.ar    1  UNL1        0.2547
      7 C         -11.2086   -9.1988   31.4976 C.ar    1  UNL1        0.1238
      8 N          -9.9250   -8.9443   31.1483 N.ar    1  UNL1       -0.2945
      9 C          -9.9223   -7.6216   30.8850 C.ar    1  UNL1        0.3119
     10 H          -9.1715   -9.5760   31.0984 H       1  UNL1        0.1718
     11 N          -5.2735   -9.0985   29.8825 N.3     1  UNL1       -0.2647
     12 C          -6.1976   -8.8169   28.7645 C.3     1  UNL1        0.0941
     13 C          -6.9002   -7.4798   28.9962 C.3     1  UNL1        0.1084
     14 N          -7.5231   -7.4803   30.3226 N.pl3   1  UNL1       -0.2988
     15 C          -6.7049   -7.8758   31.4712 C.3     1  UNL1        0.1084
     16 C          -6.0008   -9.1997   31.1632 C.3     1  UNL1        0.0941
     17 C          -4.4108  -10.2737   29.6276 C.3     1  UNL1        0.1199
     18 C          -5.7051  -13.0803   27.8005 C.ar    1  UNL1        0.1165
     19 N          -4.7504  -12.1429   27.9797 N.ar    1  UNL1       -0.2344
     20 C          -5.1557  -11.4639   29.0726 C.ar    1  UNL1        0.0878
     21 C          -6.3434  -12.0074   29.5337 C.ar    1  UNL1        0.0499
     22 C          -7.1781  -11.5417   30.6856 C.3     1  UNL1        0.0511
     23 N          -6.6919  -13.0133   28.7155 N.ar    1  UNL1       -0.3443
     24 H          -7.5510  -13.6053   28.7668 H       1  UNL1        0.1668
     25 C          -6.6282  -15.2102   26.9245 C.3     1  UNL1        0.0084
     26 C          -5.7139  -14.0250   26.6403 C.3     1  UNL1        0.0637
     27 C         -11.6665  -10.5339   31.9215 C.ar    1  UNL1        0.0213
     28 C         -10.9746  -11.2199   32.9248 C.ar    1  UNL1        0.0013
     29 C         -11.3910  -12.4901   33.3293 C.ar    1  UNL1       -0.0042
     30 C         -12.4981  -13.1244   32.7230 C.ar    1  UNL1       -0.0228
     31 C         -13.1710  -12.4266   31.6918 C.ar    1  UNL1       -0.0042
     32 C         -12.7558  -11.1520   31.2968 C.ar    1  UNL1        0.0013
     33 C         -12.9248  -14.5289   33.1975 C.3     1  UNL1        0.0189
     34 C         -14.4535  -14.6802   33.0433 C.3     1  UNL1        0.0044
     35 C         -12.2552  -15.6699   32.3943 C.3     1  UNL1        0.0044
     36 C         -12.5389  -14.7118   34.6817 C.3     1  UNL1        0.0044
     37 C         -13.3604   -7.8057   31.9499 C.3     1  UNL1        0.2371
     38 O         -14.0817   -7.0310   31.0326 O.3     1  UNL1       -0.3725
     39 H         -13.7527   -6.0990   31.1294 H       1  UNL1        0.2111
@<TRIPOS>BOND
     1    25    26    1
     2    26    18    1
     3    18    19   ar
     4    19    20   ar
     5    20    17    1
     6    17    11    1
     7    11    12    1
     8    12    13    1
     9    13    14    1
    10    14     1    1
    11     1     2   ar
    12     2     3   ar
    13     3     4   ar
    14     4     5   ar
    15     5     6   ar
    16     6    37    1
    17    37    38    1
    18     6     7   ar
    19     7    27    1
    20    27    28   ar
    21    28    29   ar
    22    29    30   ar
    23    30    33    1
    24    33    34    1
    25    33    35    1
    26    33    36    1
    27    30    31   ar
    28    31    32   ar
    29     7     8   ar
    30     8     9   ar
    31    14    15    1
    32    15    16    1
    33    20    21   ar
    34    21    22    1
    35    21    23   ar
    36    23    18   ar
    37    16    11    1
    38     9     1   ar
    39     9     5   ar
    40    32    27   ar
    41    38    39    1
    42    23    24    1
    43     8    10    1
@<TRIPOS>MOLECULE
*****
 39 43 0 0 0
SMALL
GASTEIGER

@<TRIPOS>ATOM
      1 C          -7.4799   -9.1896   31.8882 C.ar    1  UNL1        0.1317
      2 C          -6.6731   -8.0915   32.2418 C.ar    1  UNL1        0.0286
      3 C          -5.4076   -7.9202   31.6513 C.ar    1  UNL1        0.0777
      4 C          -4.9550   -8.8476   30.7027 C.ar    1  UNL1        0.2964
      5 N          -5.7627   -9.8953   30.3878 N.ar    1  UNL1       -0.1291
      6 C          -5.6015  -10.8857   29.4916 C.ar    1  UNL1        0.2547
      7 C          -6.7704  -11.6457   29.5117 C.ar    1  UNL1        0.1238
      8 N          -7.6400  -11.1339   30.4151 N.ar    1  UNL1       -0.2945
      9 C          -6.9786  -10.0783   30.9319 C.ar    1  UNL1        0.3119
     10 H          -8.5423  -11.4564   30.6412 H       1  UNL1        0.1718
     11 N         -11.3731  -10.0972   33.2615 N.3     1  UNL1       -0.2647
     12 C         -10.2552  -11.0350   33.4942 C.3     1  UNL1        0.0941
     13 C          -8.9461  -10.2584   33.6296 C.3     1  UNL1        0.1084
     14 N          -8.7790   -9.3794   32.4691 N.pl3   1  UNL1       -0.2988
     15 C          -9.8959   -8.5096   32.0932 C.3     1  UNL1        0.1084
     16 C         -11.1807   -9.3377   32.0104 C.3     1  UNL1        0.0941
     17 C         -12.6954  -10.7591   33.3238 C.3     1  UNL1        0.1199
     18 C         -12.8359  -14.3302   32.9798 C.ar    1  UNL1        0.1165
     19 N         -13.0640  -13.2169   33.7084 N.ar    1  UNL1       -0.2344
     20 C         -12.6682  -12.2092   32.9039 C.ar    1  UNL1        0.0878
     21 C         -12.2138  -12.7332   31.7050 C.ar    1  UNL1        0.0499
     22 C         -11.6330  -11.9912   30.5420 C.3     1  UNL1        0.0511
     23 N         -12.3056  -14.0712   31.7685 N.ar    1  UNL1       -0.3443
     24 H         -12.0134  -14.7632   31.0426 H       1  UNL1        0.1668
     25 C         -12.9126  -16.7402   32.3951 C.3     1  UNL1        0.0084
     26 C         -13.0533  -15.7120   33.5107 C.3     1  UNL1        0.0637
     27 C          -7.0998  -12.8016   28.6588 C.ar    1  UNL1        0.0213
     28 C          -8.3864  -13.3488   28.6964 C.ar    1  UNL1        0.0013
     29 C          -8.7097  -14.4506   27.9014 C.ar    1  UNL1       -0.0042
     30 C          -7.7468  -15.0555   27.0632 C.ar    1  UNL1       -0.0228
     31 C          -6.4431  -14.5047   27.0568 C.ar    1  UNL1       -0.0042
     32 C          -6.1270  -13.3966   27.8476 C.ar    1  UNL1        0.0013
     33 C          -8.1439  -16.2723   26.2021 C.3     1  UNL1        0.0189
     34 C          -6.8720  -16.9254   25.6193 C.3     1  UNL1        0.0044
     35 C          -8.9069  -17.3569   27.0000 C.3     1  UNL1        0.0044
     36 C          -9.0585  -15.8106   25.0464 C.3     1  UNL1        0.0044
     37 C          -4.4675  -10.9684   28.5050 C.3     1  UNL1        0.2371
     38 O          -4.9090  -10.5766   27.2347 O.3     1  UNL1       -0.3725
     39 H          -5.4556  -11.3269   26.8817 H       1  UNL1        0.2111
@<TRIPOS>BOND
     1    25    26    1
     2    26    18    1
     3    18    19   ar
     4    19    20   ar
     5    20    17    1
     6    17    11    1
     7    11    12    1
     8    12    13    1
     9    13    14    1
    10    14     1    1
    11     1     2   ar
    12     2     3   ar
    13     3     4   ar
    14     4     5   ar
    15     5     6   ar
    16     6    37    1
    17    37    38    1
    18     6     7   ar
    19     7    27    1
    20    27    28   ar
    21    28    29   ar
    22    29    30   ar
    23    30    33    1
    24    33    34    1
    25    33    35    1
    26    33    36    1
    27    30    31   ar
    28    31    32   ar
    29     7     8   ar
    30     8     9   ar
    31    14    15    1
    32    15    16    1
    33    20    21   ar
    34    21    22    1
    35    21    23   ar
    36    23    18   ar
    37    16    11    1
    38     9     1   ar
    39     9     5   ar
    40    32    27   ar
    41    38    39    1
    42    23    24    1
    43     8    10    1
