@<TRIPOS>MOLECULE
*****
 62 67 0 0 0
SMALL
GASTEIGER

@<TRIPOS>ATOM
      1 C         -61.2564  -43.1686  -24.2146 C.ar    1  UNL1        0.0001
      2 C         -60.2847  -43.3907  -23.2242 C.ar    1  UNL1        0.0013
      3 C         -60.6182  -43.3029  -21.8701 C.ar    1  UNL1        0.0147
      4 C         -61.9344  -42.9990  -21.4781 C.ar    1  UNL1        0.0503
      5 C         -62.8997  -42.7610  -22.4674 C.ar    1  UNL1        0.0147
      6 C         -62.5680  -42.8523  -23.8219 C.ar    1  UNL1        0.0013
      7 C         -60.3461  -43.4923  -28.4091 C.ar    1  UNL1        0.0503
      8 C         -60.3072  -44.6293  -27.5843 C.ar    1  UNL1        0.0147
      9 C         -60.5952  -44.5225  -26.2209 C.ar    1  UNL1        0.0013
     10 C         -60.9023  -43.2749  -25.6512 C.ar    1  UNL1        0.0001
     11 C         -60.8860  -42.1319  -26.4680 C.ar    1  UNL1        0.0013
     12 C         -60.6081  -42.2416  -27.8323 C.ar    1  UNL1        0.0147
     13 C         -59.9806  -44.8041  -30.5555 C.2     1  UNL1        0.2442
     14 O         -59.6997  -45.8816  -29.9668 O.2     1  UNL1       -0.2730
     15 N         -60.1033  -43.5708  -29.8239 N.am    1  UNL1       -0.2826
     16 H         -60.2536  -42.6991  -30.3805 H       1  UNL1        0.1549
     17 C         -62.5213  -43.7279  -31.9996 C.2     1  UNL1        0.2482
     18 O         -63.1630  -42.6635  -32.2171 O.2     1  UNL1       -0.2727
     19 N         -61.1581  -43.8241  -32.4653 N.am    1  UNL1       -0.2714
     20 C         -60.6284  -42.9135  -33.4670 C.3     1  UNL1        0.0939
     21 C         -59.2856  -43.4924  -33.8878 C.3     1  UNL1        0.0237
     22 C         -58.8797  -44.4553  -32.7772 C.3     1  UNL1        0.0310
     23 C         -60.1764  -44.8212  -32.0485 C.3     1  UNL1        0.1521
     24 C         -63.2139  -44.8708  -31.2790 C.3     1  UNL1        0.1743
     25 C         -63.5360  -44.5211  -29.8385 C.ar    1  UNL1        0.0044
     26 C         -63.8033  -43.1861  -29.4819 C.ar    1  UNL1       -0.0022
     27 C         -64.0516  -42.8423  -28.1498 C.ar    1  UNL1       -0.0003
     28 C         -64.0145  -43.8211  -27.1554 C.ar    1  UNL1       -0.0000
     29 C         -63.7261  -45.1456  -27.4910 C.ar    1  UNL1       -0.0003
     30 C         -63.4799  -45.4951  -28.8224 C.ar    1  UNL1       -0.0022
     31 C         -65.0444  -46.5398  -31.8415 C.2     1  UNL1        0.4023
     32 O         -64.4693  -47.4392  -31.1683 O.2     1  UNL1       -0.2264
     33 N         -64.4485  -45.2441  -31.9778 N.am    1  UNL1       -0.2606
     34 H         -65.0007  -44.5133  -32.4812 H       1  UNL1        0.1535
     35 C         -66.6892  -48.1064  -32.8205 C.3     1  UNL1        0.2573
     36 O         -66.2710  -46.7953  -32.4606 O.3     1  UNL1       -0.4306
     37 N         -62.3002  -42.8757  -20.0912 N.am    1  UNL1       -0.2826
     38 C         -62.6416  -41.6279  -19.4619 C.2     1  UNL1        0.2442
     39 O         -62.1503  -40.5569  -19.9101 O.2     1  UNL1       -0.2730
     40 H         -62.2087  -43.7237  -19.4882 H       1  UNL1        0.1549
     41 C         -63.4686  -41.5714  -18.1901 C.3     1  UNL1        0.1527
     42 C         -64.3652  -42.7899  -17.9610 C.3     1  UNL1        0.0319
     43 C         -65.5442  -42.2593  -17.1563 C.3     1  UNL1        0.0331
     44 C         -65.6690  -40.7879  -17.5526 C.3     1  UNL1        0.1203
     45 S         -65.9956  -39.7546  -16.0788 S.3     1  UNL1       -0.1491
     46 N         -64.3947  -40.4430  -18.1778 N.am    1  UNL1       -0.2639
     47 C         -64.0005  -39.0912  -18.4648 C.2     1  UNL1        0.2488
     48 O         -63.1925  -38.5135  -17.6883 O.2     1  UNL1       -0.2727
     49 H         -66.2722  -38.6025  -16.8358 H       1  UNL1        0.1038
     50 C         -64.3972  -38.4291  -19.7667 C.3     1  UNL1        0.1743
     51 C         -63.4935  -37.2604  -20.0994 C.ar    1  UNL1        0.0044
     52 C         -63.7064  -36.0134  -19.4842 C.ar    1  UNL1       -0.0022
     53 C         -62.8505  -34.9398  -19.7454 C.ar    1  UNL1       -0.0003
     54 C         -61.7705  -35.1006  -20.6164 C.ar    1  UNL1       -0.0000
     55 C         -61.5420  -36.3369  -21.2249 C.ar    1  UNL1       -0.0003
     56 C         -62.3945  -37.4142  -20.9666 C.ar    1  UNL1       -0.0022
     57 N         -64.4061  -39.3978  -20.8697 N.am    1  UNL1       -0.2606
     58 C         -65.6157  -39.8007  -21.5219 C.2     1  UNL1        0.4023
     59 O         -66.7322  -39.3780  -21.1122 O.2     1  UNL1       -0.2264
     60 H         -63.5009  -39.7124  -21.2879 H       1  UNL1        0.1535
     61 O         -65.5453  -40.6639  -22.6188 O.3     1  UNL1       -0.4306
     62 C         -65.3243  -40.2006  -23.9454 C.3     1  UNL1        0.2573
@<TRIPOS>BOND
     1    35    36    1
     2    36    31    1
     3    31    32    2
     4    31    33   am
     5    33    24    1
     6    24    17    1
     7    17    18    2
     8    17    19   am
     9    19    20    1
    10    20    21    1
    11    21    22    1
    12    22    23    1
    13    23    13    1
    14    13    14    2
    15    13    15   am
    16    15     7    1
    17     7     8   ar
    18     8     9   ar
    19     9    10   ar
    20    10     1    1
    21     1     2   ar
    22     2     3   ar
    23     3     4   ar
    24     4    37    1
    25    37    38   am
    26    38    39    2
    27    38    41    1
    28    41    42    1
    29    42    43    1
    30    43    44    1
    31    44    45    1
    32    44    46    1
    33    46    47   am
    34    47    48    2
    35    47    50    1
    36    50    57    1
    37    57    58   am
    38    58    59    2
    39    58    61    1
    40    61    62    1
    41    50    51    1
    42    51    52   ar
    43    52    53   ar
    44    53    54   ar
    45    54    55   ar
    46    55    56   ar
    47     4     5   ar
    48     5     6   ar
    49    10    11   ar
    50    11    12   ar
    51    24    25    1
    52    25    26   ar
    53    26    27   ar
    54    27    28   ar
    55    28    29   ar
    56    29    30   ar
    57    23    19    1
    58    12     7   ar
    59    30    25   ar
    60     6     1   ar
    61    46    41    1
    62    56    51   ar
    63    33    34    1
    64    15    16    1
    65    37    40    1
    66    45    49    1
    67    57    60    1
@<TRIPOS>MOLECULE
*****
 62 67 0 0 0
SMALL
GASTEIGER

@<TRIPOS>ATOM
      1 C         -61.2972  -43.1820  -24.2441 C.ar    1  UNL1        0.0001
      2 C         -60.6787  -42.2245  -23.4224 C.ar    1  UNL1        0.0013
      3 C         -61.0146  -42.1265  -22.0697 C.ar    1  UNL1        0.0147
      4 C         -61.9715  -42.9911  -21.5080 C.ar    1  UNL1        0.0503
      5 C         -62.6004  -43.9353  -22.3327 C.ar    1  UNL1        0.0147
      6 C         -62.2624  -44.0366  -23.6849 C.ar    1  UNL1        0.0013
      7 C         -60.3468  -43.5171  -28.4288 C.ar    1  UNL1        0.0503
      8 C         -60.3112  -44.6510  -27.5996 C.ar    1  UNL1        0.0147
      9 C         -60.6123  -44.5405  -26.2393 C.ar    1  UNL1        0.0013
     10 C         -60.9293  -43.2920  -25.6769 C.ar    1  UNL1        0.0001
     11 C         -60.9098  -42.1519  -26.4977 C.ar    1  UNL1        0.0013
     12 C         -60.6188  -42.2654  -27.8589 C.ar    1  UNL1        0.0147
     13 C         -59.9860  -44.8347  -30.5724 C.2     1  UNL1        0.2442
     14 O         -59.7341  -45.9183  -29.9818 O.2     1  UNL1       -0.2730
     15 N         -60.0905  -43.5997  -29.8409 N.am    1  UNL1       -0.2826
     16 H         -60.2165  -42.7245  -30.3983 H       1  UNL1        0.1549
     17 C         -62.5132  -43.7571  -32.0391 C.2     1  UNL1        0.2482
     18 O         -63.1542  -42.6929  -32.2594 O.2     1  UNL1       -0.2727
     19 N         -61.1450  -43.8495  -32.4908 N.am    1  UNL1       -0.2714
     20 C         -60.6063  -42.9343  -33.4836 C.3     1  UNL1        0.0939
     21 C         -59.2582  -43.5096  -33.8923 C.3     1  UNL1        0.0237
     22 C         -58.8625  -44.4760  -32.7811 C.3     1  UNL1        0.0310
     23 C         -60.1661  -44.8466  -32.0674 C.3     1  UNL1        0.1521
     24 C         -63.2114  -44.9038  -31.3299 C.3     1  UNL1        0.1743
     25 C         -63.5325  -44.5667  -29.8862 C.ar    1  UNL1        0.0044
     26 C         -63.8215  -43.2383  -29.5218 C.ar    1  UNL1       -0.0022
     27 C         -64.0692  -42.9054  -28.1869 C.ar    1  UNL1       -0.0003
     28 C         -64.0100  -43.8882  -27.1975 C.ar    1  UNL1       -0.0000
     29 C         -63.6999  -45.2056  -27.5409 C.ar    1  UNL1       -0.0003
     30 C         -63.4542  -45.5444  -28.8752 C.ar    1  UNL1       -0.0022
     31 C         -65.0574  -46.5536  -31.8980 C.2     1  UNL1        0.4023
     32 O         -64.4943  -47.4587  -31.2224 O.2     1  UNL1       -0.2264
     33 N         -64.4474  -45.2644  -32.0329 N.am    1  UNL1       -0.2606
     34 H         -64.9901  -44.5280  -32.5385 H       1  UNL1        0.1535
     35 C         -66.7380  -48.1077  -32.8355 C.3     1  UNL1        0.2573
     36 O         -66.2845  -46.7966  -32.5212 O.3     1  UNL1       -0.4306
     37 N         -62.3565  -42.8950  -20.1243 N.am    1  UNL1       -0.2826
     38 C         -62.5497  -41.6486  -19.4324 C.2     1  UNL1        0.2442
     39 O         -61.9105  -40.6292  -19.8089 O.2     1  UNL1       -0.2730
     40 H         -62.3933  -43.7788  -19.5686 H       1  UNL1        0.1549
     41 C         -63.3974  -41.5517  -18.1767 C.3     1  UNL1        0.1527
     42 C         -64.2899  -42.7672  -17.9178 C.3     1  UNL1        0.0319
     43 C         -65.4850  -42.2159  -17.1517 C.3     1  UNL1        0.0331
     44 C         -65.6126  -40.7608  -17.6031 C.3     1  UNL1        0.1203
     45 S         -65.9694  -39.6770  -16.1732 S.3     1  UNL1       -0.1491
     46 N         -64.3306  -40.4300  -18.2201 N.am    1  UNL1       -0.2639
     47 C         -63.9403  -39.0868  -18.5497 C.2     1  UNL1        0.2488
     48 O         -63.1485  -38.4758  -17.7820 O.2     1  UNL1       -0.2727
     49 H         -66.2409  -38.5549  -16.9758 H       1  UNL1        0.1038
     50 C         -64.3201  -38.4750  -19.8810 C.3     1  UNL1        0.1743
     51 C         -65.0430  -39.4671  -20.7678 C.ar    1  UNL1        0.0044
     52 C         -66.4413  -39.5940  -20.6816 C.ar    1  UNL1       -0.0022
     53 C         -67.1262  -40.4706  -21.5278 C.ar    1  UNL1       -0.0003
     54 C         -66.4250  -41.2235  -22.4725 C.ar    1  UNL1       -0.0000
     55 C         -65.0377  -41.0983  -22.5754 C.ar    1  UNL1       -0.0003
     56 C         -64.3480  -40.2225  -21.7320 C.ar    1  UNL1       -0.0022
     57 N         -65.1357  -37.2689  -19.6936 N.am    1  UNL1       -0.2606
     58 C         -64.5548  -35.9648  -19.5802 C.2     1  UNL1        0.4023
     59 O         -63.3005  -35.8244  -19.5691 O.2     1  UNL1       -0.2264
     60 H         -66.1763  -37.3317  -19.7734 H       1  UNL1        0.1535
     61 O         -65.3923  -34.8500  -19.4858 O.3     1  UNL1       -0.4306
     62 C         -65.9003  -34.3762  -18.2445 C.3     1  UNL1        0.2573
@<TRIPOS>BOND
     1    35    36    1
     2    36    31    1
     3    31    32    2
     4    31    33   am
     5    33    24    1
     6    24    17    1
     7    17    18    2
     8    17    19   am
     9    19    20    1
    10    20    21    1
    11    21    22    1
    12    22    23    1
    13    23    13    1
    14    13    14    2
    15    13    15   am
    16    15     7    1
    17     7     8   ar
    18     8     9   ar
    19     9    10   ar
    20    10     1    1
    21     1     2   ar
    22     2     3   ar
    23     3     4   ar
    24     4    37    1
    25    37    38   am
    26    38    39    2
    27    38    41    1
    28    41    42    1
    29    42    43    1
    30    43    44    1
    31    44    45    1
    32    44    46    1
    33    46    47   am
    34    47    48    2
    35    47    50    1
    36    50    57    1
    37    57    58   am
    38    58    59    2
    39    58    61    1
    40    61    62    1
    41    50    51    1
    42    51    52   ar
    43    52    53   ar
    44    53    54   ar
    45    54    55   ar
    46    55    56   ar
    47     4     5   ar
    48     5     6   ar
    49    10    11   ar
    50    11    12   ar
    51    24    25    1
    52    25    26   ar
    53    26    27   ar
    54    27    28   ar
    55    28    29   ar
    56    29    30   ar
    57    23    19    1
    58    12     7   ar
    59    30    25   ar
    60     6     1   ar
    61    46    41    1
    62    56    51   ar
    63    33    34    1
    64    15    16    1
    65    37    40    1
    66    45    49    1
    67    57    60    1
@<TRIPOS>MOLECULE
*****
 62 67 0 0 0
SMALL
GASTEIGER

@<TRIPOS>ATOM
      1 C         -61.0054  -43.6243  -25.3609 C.ar    1  UNL1        0.0001
      2 C         -60.7648  -44.9435  -25.7807 C.ar    1  UNL1        0.0013
      3 C         -60.2450  -45.2003  -27.0520 C.ar    1  UNL1        0.0147
      4 C         -59.9467  -44.1409  -27.9278 C.ar    1  UNL1        0.0503
      5 C         -60.2028  -42.8254  -27.5142 C.ar    1  UNL1        0.0147
      6 C         -60.7192  -42.5674  -26.2415 C.ar    1  UNL1        0.0013
      7 C         -62.6722  -42.7938  -21.4802 C.ar    1  UNL1        0.0503
      8 C         -61.8275  -41.8605  -22.1047 C.ar    1  UNL1        0.0147
      9 C         -61.2802  -42.1337  -23.3614 C.ar    1  UNL1        0.0013
     10 C         -61.5455  -43.3542  -24.0060 C.ar    1  UNL1        0.0001
     11 C         -62.3455  -44.3076  -23.3541 C.ar    1  UNL1        0.0013
     12 C         -62.9001  -44.0290  -22.1030 C.ar    1  UNL1        0.0147
     13 C         -63.0519  -41.3455  -19.4260 C.2     1  UNL1        0.2442
     14 O         -62.0162  -40.6505  -19.6017 O.2     1  UNL1       -0.2730
     15 N         -63.2919  -42.5279  -20.2106 N.am    1  UNL1       -0.2826
     16 H         -64.1251  -43.1064  -19.9586 H       1  UNL1        0.1549
     17 C         -66.0675  -40.7869  -19.9669 C.2     1  UNL1        0.2482
     18 O         -67.1338  -41.3584  -20.3254 O.2     1  UNL1       -0.2727
     19 N         -65.4071  -41.2399  -18.7656 N.am    1  UNL1       -0.2714
     20 C         -66.0939  -42.0590  -17.7805 C.3     1  UNL1        0.0939
     21 C         -65.1829  -42.0969  -16.5622 C.3     1  UNL1        0.0237
     22 C         -63.8007  -41.6906  -17.0618 C.3     1  UNL1        0.0310
     23 C         -64.0378  -40.9262  -18.3679 C.3     1  UNL1        0.1521
     24 C         -65.5353  -39.6332  -20.7982 C.3     1  UNL1        0.1743
     25 C         -65.6475  -39.9069  -22.2860 C.ar    1  UNL1        0.0044
     26 C         -66.9106  -40.1234  -22.8679 C.ar    1  UNL1       -0.0022
     27 C         -67.0241  -40.4267  -24.2279 C.ar    1  UNL1       -0.0003
     28 C         -65.8791  -40.5393  -25.0181 C.ar    1  UNL1       -0.0000
     29 C         -64.6178  -40.3517  -24.4491 C.ar    1  UNL1       -0.0003
     30 C         -64.4990  -40.0452  -23.0898 C.ar    1  UNL1       -0.0022
     31 C         -65.6285  -37.3070  -19.7821 C.2     1  UNL1        0.4023
     32 O         -64.4475  -37.4179  -19.3512 O.2     1  UNL1       -0.2264
     33 N         -66.2522  -38.3950  -20.4749 N.am    1  UNL1       -0.2606
     34 H         -67.2019  -38.2254  -20.8771 H       1  UNL1        0.1535
     35 C         -65.7220  -34.9133  -19.1660 C.3     1  UNL1        0.2573
     36 O         -66.3423  -36.1207  -19.5913 O.3     1  UNL1       -0.4306
     37 N         -59.4357  -44.3771  -29.2528 N.am    1  UNL1       -0.2826
     38 C         -60.1291  -45.1449  -30.2524 C.2     1  UNL1        0.2442
     39 O         -60.9206  -46.0568  -29.8899 O.2     1  UNL1       -0.2730
     40 H         -58.4617  -44.0619  -29.4603 H       1  UNL1        0.1549
     41 C         -59.8366  -44.9830  -31.7333 C.3     1  UNL1        0.1527
     42 C         -58.4022  -44.5585  -32.0545 C.3     1  UNL1        0.0319
     43 C         -58.5095  -43.7831  -33.3608 C.3     1  UNL1        0.0331
     44 C         -59.9195  -43.1919  -33.3602 C.3     1  UNL1        0.1203
     45 S         -60.6808  -43.3531  -35.0157 S.3     1  UNL1       -0.1491
     46 N         -60.6594  -43.9488  -32.3536 N.am    1  UNL1       -0.2639
     47 C         -62.0880  -43.8829  -32.2135 C.2     1  UNL1        0.2488
     48 O         -62.7916  -44.8134  -32.6918 O.2     1  UNL1       -0.2727
     49 H         -61.7771  -42.5346  -34.6911 H       1  UNL1        0.1038
     50 C         -62.7330  -42.8177  -31.3532 C.3     1  UNL1        0.1743
     51 C         -63.7564  -43.4067  -30.4050 C.ar    1  UNL1        0.0044
     52 C         -65.1288  -43.2421  -30.6659 C.ar    1  UNL1       -0.0022
     53 C         -66.0837  -43.8215  -29.8257 C.ar    1  UNL1       -0.0003
     54 C         -65.6799  -44.5761  -28.7218 C.ar    1  UNL1       -0.0000
     55 C         -64.3201  -44.7560  -28.4583 C.ar    1  UNL1       -0.0003
     56 C         -63.3610  -44.1793  -29.2959 C.ar    1  UNL1       -0.0022
     57 N         -61.7219  -42.0594  -30.6063 N.am    1  UNL1       -0.2606
     58 C         -62.0443  -40.8693  -29.8779 C.2     1  UNL1        0.4023
     59 O         -63.2133  -40.3950  -29.9168 O.2     1  UNL1       -0.2264
     60 H         -60.7625  -42.4575  -30.4860 H       1  UNL1        0.1535
     61 O         -61.0511  -40.2416  -29.1212 O.3     1  UNL1       -0.4306
     62 C         -60.6167  -38.9119  -29.3791 C.3     1  UNL1        0.2573
@<TRIPOS>BOND
     1    35    36    1
     2    36    31    1
     3    31    32    2
     4    31    33   am
     5    33    24    1
     6    24    17    1
     7    17    18    2
     8    17    19   am
     9    19    20    1
    10    20    21    1
    11    21    22    1
    12    22    23    1
    13    23    13    1
    14    13    14    2
    15    13    15   am
    16    15     7    1
    17     7     8   ar
    18     8     9   ar
    19     9    10   ar
    20    10     1    1
    21     1     2   ar
    22     2     3   ar
    23     3     4   ar
    24     4    37    1
    25    37    38   am
    26    38    39    2
    27    38    41    1
    28    41    42    1
    29    42    43    1
    30    43    44    1
    31    44    45    1
    32    44    46    1
    33    46    47   am
    34    47    48    2
    35    47    50    1
    36    50    57    1
    37    57    58   am
    38    58    59    2
    39    58    61    1
    40    61    62    1
    41    50    51    1
    42    51    52   ar
    43    52    53   ar
    44    53    54   ar
    45    54    55   ar
    46    55    56   ar
    47     4     5   ar
    48     5     6   ar
    49    10    11   ar
    50    11    12   ar
    51    24    25    1
    52    25    26   ar
    53    26    27   ar
    54    27    28   ar
    55    28    29   ar
    56    29    30   ar
    57    23    19    1
    58    12     7   ar
    59    30    25   ar
    60     6     1   ar
    61    46    41    1
    62    56    51   ar
    63    33    34    1
    64    15    16    1
    65    37    40    1
    66    45    49    1
    67    57    60    1
@<TRIPOS>MOLECULE
*****
 62 67 0 0 0
SMALL
GASTEIGER

@<TRIPOS>ATOM
      1 C         -63.1556  -51.0075  -23.9532 C.ar    1  UNL1        0.0001
      2 C         -63.2852  -49.8121  -24.6803 C.ar    1  UNL1        0.0013
      3 C         -62.3481  -48.7862  -24.5325 C.ar    1  UNL1        0.0147
      4 C         -61.2558  -48.9384  -23.6594 C.ar    1  UNL1        0.0503
      5 C         -61.1366  -50.1252  -22.9216 C.ar    1  UNL1        0.0147
      6 C         -62.0712  -51.1533  -23.0716 C.ar    1  UNL1        0.0013
      7 C         -65.9360  -54.2571  -24.4402 C.ar    1  UNL1        0.0503
      8 C         -65.4183  -53.5912  -25.5640 C.ar    1  UNL1        0.0147
      9 C         -64.5215  -52.5310  -25.4054 C.ar    1  UNL1        0.0013
     10 C         -64.1451  -52.0998  -24.1217 C.ar    1  UNL1        0.0001
     11 C         -64.7074  -52.7318  -23.0001 C.ar    1  UNL1        0.0013
     12 C         -65.5955  -53.7978  -23.1601 C.ar    1  UNL1        0.0147
     13 C         -68.2283  -55.2752  -24.8526 C.2     1  UNL1        0.2442
     14 O         -68.8530  -54.2017  -24.6426 O.2     1  UNL1       -0.2730
     15 N         -66.8223  -55.3821  -24.5646 N.am    1  UNL1       -0.2826
     16 H         -66.3820  -56.3229  -24.6806 H       1  UNL1        0.1549
     17 C         -71.3320  -55.5312  -24.8481 C.2     1  UNL1        0.2482
     18 O         -72.3714  -55.0086  -25.3367 O.2     1  UNL1       -0.2727
     19 N         -70.3538  -56.0999  -25.7449 N.am    1  UNL1       -0.2714
     20 C         -70.6780  -56.4150  -27.1265 C.3     1  UNL1        0.0939
     21 C         -69.5072  -57.2318  -27.6533 C.3     1  UNL1        0.0237
     22 C         -68.3457  -56.9564  -26.7043 C.3     1  UNL1        0.0310
     23 C         -68.9805  -56.4582  -25.4024 C.3     1  UNL1        0.1521
     24 C         -71.1627  -55.5616  -23.3396 C.3     1  UNL1        0.1743
     25 C         -72.4437  -55.9625  -22.6329 C.ar    1  UNL1        0.0044
     26 C         -72.6173  -55.6632  -21.2686 C.ar    1  UNL1       -0.0022
     27 C         -73.7709  -56.0714  -20.5926 C.ar    1  UNL1       -0.0003
     28 C         -74.7540  -56.8012  -21.2629 C.ar    1  UNL1       -0.0000
     29 C         -74.5839  -57.1269  -22.6101 C.ar    1  UNL1       -0.0003
     30 C         -73.4331  -56.7184  -23.2916 C.ar    1  UNL1       -0.0022
     31 C         -69.2482  -56.2624  -21.8244 C.2     1  UNL1        0.4023
     32 O         -69.3585  -55.2022  -21.1487 O.2     1  UNL1       -0.2264
     33 N         -70.0882  -56.4865  -22.9631 N.am    1  UNL1       -0.2606
     34 H         -70.0091  -57.4121  -23.4421 H       1  UNL1        0.1535
     35 C         -66.9092  -56.9703  -21.4420 C.3     1  UNL1        0.2573
     36 O         -68.3070  -57.2325  -21.4691 O.3     1  UNL1       -0.4306
     37 N         -60.2903  -47.8880  -23.4672 N.am    1  UNL1       -0.2826
     38 C         -60.1177  -46.7844  -24.3736 C.2     1  UNL1        0.2442
     39 O         -60.4013  -46.9378  -25.5925 O.2     1  UNL1       -0.2730
     40 H         -59.6090  -47.9932  -22.6823 H       1  UNL1        0.1549
     41 C         -59.4769  -45.4798  -23.9355 C.3     1  UNL1        0.1527
     42 C         -59.2473  -45.3601  -22.4276 C.3     1  UNL1        0.0319
     43 C         -59.3193  -43.8662  -22.1407 C.3     1  UNL1        0.0331
     44 C         -60.2382  -43.2954  -23.2211 C.3     1  UNL1        0.1203
     45 S         -59.5662  -41.7207  -23.8653 S.3     1  UNL1       -0.1491
     46 N         -60.2989  -44.3184  -24.2620 N.am    1  UNL1       -0.2639
     47 C         -60.8510  -44.0800  -25.5671 C.2     1  UNL1        0.2488
     48 O         -60.0671  -43.8712  -26.5323 O.2     1  UNL1       -0.2727
     49 H         -60.7298  -41.4171  -24.5938 H       1  UNL1        0.1038
     50 C         -62.3321  -44.2549  -25.8247 C.3     1  UNL1        0.1743
     51 C         -63.0781  -42.9412  -25.7206 C.ar    1  UNL1        0.0044
     52 C         -63.5740  -42.3236  -26.8831 C.ar    1  UNL1       -0.0022
     53 C         -64.3060  -41.1361  -26.7968 C.ar    1  UNL1       -0.0003
     54 C         -64.5566  -40.5567  -25.5508 C.ar    1  UNL1       -0.0000
     55 C         -64.0790  -41.1660  -24.3883 C.ar    1  UNL1       -0.0003
     56 C         -63.3471  -42.3542  -24.4690 C.ar    1  UNL1       -0.0022
     57 N         -62.5702  -44.8749  -27.1339 N.am    1  UNL1       -0.2606
     58 C         -63.3378  -46.0749  -27.2819 C.2     1  UNL1        0.4023
     59 O         -63.7791  -46.6788  -26.2652 O.2     1  UNL1       -0.2264
     60 H         -62.2884  -44.3682  -28.0040 H       1  UNL1        0.1535
     61 O         -63.5954  -46.5669  -28.5643 O.3     1  UNL1       -0.4306
     62 C         -64.0472  -45.7365  -29.6271 C.3     1  UNL1        0.2573
@<TRIPOS>BOND
     1    35    36    1
     2    36    31    1
     3    31    32    2
     4    31    33   am
     5    33    24    1
     6    24    17    1
     7    17    18    2
     8    17    19   am
     9    19    20    1
    10    20    21    1
    11    21    22    1
    12    22    23    1
    13    23    13    1
    14    13    14    2
    15    13    15   am
    16    15     7    1
    17     7     8   ar
    18     8     9   ar
    19     9    10   ar
    20    10     1    1
    21     1     2   ar
    22     2     3   ar
    23     3     4   ar
    24     4    37    1
    25    37    38   am
    26    38    39    2
    27    38    41    1
    28    41    42    1
    29    42    43    1
    30    43    44    1
    31    44    45    1
    32    44    46    1
    33    46    47   am
    34    47    48    2
    35    47    50    1
    36    50    57    1
    37    57    58   am
    38    58    59    2
    39    58    61    1
    40    61    62    1
    41    50    51    1
    42    51    52   ar
    43    52    53   ar
    44    53    54   ar
    45    54    55   ar
    46    55    56   ar
    47     4     5   ar
    48     5     6   ar
    49    10    11   ar
    50    11    12   ar
    51    24    25    1
    52    25    26   ar
    53    26    27   ar
    54    27    28   ar
    55    28    29   ar
    56    29    30   ar
    57    23    19    1
    58    12     7   ar
    59    30    25   ar
    60     6     1   ar
    61    46    41    1
    62    56    51   ar
    63    33    34    1
    64    15    16    1
    65    37    40    1
    66    45    49    1
    67    57    60    1
@<TRIPOS>MOLECULE
*****
 62 67 0 0 0
SMALL
GASTEIGER

@<TRIPOS>ATOM
      1 C         -62.5112  -48.7728  -25.1823 C.ar    1  UNL1        0.0001
      2 C         -62.6852  -47.4809  -24.6578 C.ar    1  UNL1        0.0013
      3 C         -62.0451  -46.3851  -25.2425 C.ar    1  UNL1        0.0147
      4 C         -61.2232  -46.5580  -26.3709 C.ar    1  UNL1        0.0503
      5 C         -61.0368  -47.8501  -26.8835 C.ar    1  UNL1        0.0147
      6 C         -61.6796  -48.9462  -26.3016 C.ar    1  UNL1        0.0013
      7 C         -64.4630  -52.2099  -23.4781 C.ar    1  UNL1        0.0503
      8 C         -65.1045  -51.4478  -24.4692 C.ar    1  UNL1        0.0147
      9 C         -64.4738  -50.3273  -25.0169 C.ar    1  UNL1        0.0013
     10 C         -63.2021  -49.9323  -24.5670 C.ar    1  UNL1        0.0001
     11 C         -62.5876  -50.6642  -23.5371 C.ar    1  UNL1        0.0013
     12 C         -63.2147  -51.7897  -22.9980 C.ar    1  UNL1        0.0147
     13 C         -66.4776  -53.6323  -22.8619 C.2     1  UNL1        0.2442
     14 O         -67.2974  -52.6785  -22.9305 O.2     1  UNL1       -0.2730
     15 N         -65.0594  -53.3958  -22.9262 N.am    1  UNL1       -0.2826
     16 H         -64.4316  -54.2182  -22.7783 H       1  UNL1        0.1549
     17 C         -67.9081  -55.2372  -25.1151 C.2     1  UNL1        0.2482
     18 O         -67.7039  -55.7544  -26.2478 O.2     1  UNL1       -0.2727
     19 N         -67.1343  -55.7041  -23.9891 N.am    1  UNL1       -0.2714
     20 C         -66.4099  -56.9638  -24.0315 C.3     1  UNL1        0.0939
     21 C         -65.9607  -57.2341  -22.6030 C.3     1  UNL1        0.0237
     22 C         -66.0363  -55.8933  -21.8808 C.3     1  UNL1        0.0310
     23 C         -67.0047  -55.0334  -22.6988 C.3     1  UNL1        0.1521
     24 C         -68.9727  -54.1635  -24.9772 C.3     1  UNL1        0.1743
     25 C         -69.9535  -54.1851  -26.1341 C.ar    1  UNL1        0.0044
     26 C         -69.6972  -54.9922  -27.2583 C.ar    1  UNL1       -0.0022
     27 C         -70.5666  -54.9831  -28.3530 C.ar    1  UNL1       -0.0003
     28 C         -71.6891  -54.1534  -28.3488 C.ar    1  UNL1       -0.0000
     29 C         -71.9426  -53.3287  -27.2509 C.ar    1  UNL1       -0.0003
     30 C         -71.0775  -53.3363  -26.1521 C.ar    1  UNL1       -0.0022
     31 C         -70.5355  -55.4614  -23.4522 C.2     1  UNL1        0.4023
     32 O         -70.7311  -56.3303  -24.3464 O.2     1  UNL1       -0.2264
     33 N         -69.7033  -54.3253  -23.7155 N.am    1  UNL1       -0.2606
     34 H         -69.5127  -53.6761  -22.9189 H       1  UNL1        0.1535
     35 C         -70.4553  -55.2431  -20.9896 C.3     1  UNL1        0.2573
     36 O         -71.1260  -55.5975  -22.1929 O.3     1  UNL1       -0.4306
     37 N         -60.5302  -45.4515  -26.9774 N.am    1  UNL1       -0.2826
     38 C         -60.8335  -44.9386  -28.2867 C.2     1  UNL1        0.2442
     39 O         -61.3226  -45.7123  -29.1537 O.2     1  UNL1       -0.2730
     40 H         -59.6933  -45.0722  -26.4804 H       1  UNL1        0.1549
     41 C         -60.4581  -43.5273  -28.7016 C.3     1  UNL1        0.1527
     42 C         -59.8127  -42.6907  -27.5951 C.3     1  UNL1        0.0319
     43 C         -60.1852  -41.2521  -27.9279 C.3     1  UNL1        0.0331
     44 C         -61.5105  -41.3469  -28.6843 C.3     1  UNL1        0.1203
     45 S         -61.5138  -40.2054  -30.1137 S.3     1  UNL1       -0.1491
     46 N         -61.6176  -42.7401  -29.1102 N.am    1  UNL1       -0.2639
     47 C         -62.5895  -43.1976  -30.0647 C.2     1  UNL1        0.2488
     48 O         -62.2284  -43.3947  -31.2565 O.2     1  UNL1       -0.2727
     49 H         -62.8825  -40.3922  -30.3754 H       1  UNL1        0.1038
     50 C         -63.9754  -43.6125  -29.6198 C.3     1  UNL1        0.1743
     51 C         -64.0987  -45.1171  -29.4999 C.ar    1  UNL1        0.0044
     52 C         -64.0609  -45.7237  -28.2314 C.ar    1  UNL1       -0.0022
     53 C         -64.2220  -47.1061  -28.1026 C.ar    1  UNL1       -0.0003
     54 C         -64.4293  -47.8958  -29.2358 C.ar    1  UNL1       -0.0000
     55 C         -64.4798  -47.3040  -30.5000 C.ar    1  UNL1       -0.0003
     56 C         -64.3201  -45.9218  -30.6343 C.ar    1  UNL1       -0.0022
     57 N         -64.3372  -42.9679  -28.3515 N.am    1  UNL1       -0.2606
     58 C         -64.8736  -41.6412  -28.2954 C.2     1  UNL1        0.4023
     59 O         -64.9866  -40.9542  -29.3481 O.2     1  UNL1       -0.2264
     60 H         -64.3309  -43.5269  -27.4679 H       1  UNL1        0.1535
     61 O         -65.2737  -41.1179  -27.0628 O.3     1  UNL1       -0.4306
     62 C         -64.3841  -40.9881  -25.9604 C.3     1  UNL1        0.2573
@<TRIPOS>BOND
     1    35    36    1
     2    36    31    1
     3    31    32    2
     4    31    33   am
     5    33    24    1
     6    24    17    1
     7    17    18    2
     8    17    19   am
     9    19    20    1
    10    20    21    1
    11    21    22    1
    12    22    23    1
    13    23    13    1
    14    13    14    2
    15    13    15   am
    16    15     7    1
    17     7     8   ar
    18     8     9   ar
    19     9    10   ar
    20    10     1    1
    21     1     2   ar
    22     2     3   ar
    23     3     4   ar
    24     4    37    1
    25    37    38   am
    26    38    39    2
    27    38    41    1
    28    41    42    1
    29    42    43    1
    30    43    44    1
    31    44    45    1
    32    44    46    1
    33    46    47   am
    34    47    48    2
    35    47    50    1
    36    50    57    1
    37    57    58   am
    38    58    59    2
    39    58    61    1
    40    61    62    1
    41    50    51    1
    42    51    52   ar
    43    52    53   ar
    44    53    54   ar
    45    54    55   ar
    46    55    56   ar
    47     4     5   ar
    48     5     6   ar
    49    10    11   ar
    50    11    12   ar
    51    24    25    1
    52    25    26   ar
    53    26    27   ar
    54    27    28   ar
    55    28    29   ar
    56    29    30   ar
    57    23    19    1
    58    12     7   ar
    59    30    25   ar
    60     6     1   ar
    61    46    41    1
    62    56    51   ar
    63    33    34    1
    64    15    16    1
    65    37    40    1
    66    45    49    1
    67    57    60    1
@<TRIPOS>MOLECULE
*****
 62 67 0 0 0
SMALL
GASTEIGER

@<TRIPOS>ATOM
      1 C         -62.7332  -49.2176  -24.6908 C.ar    1  UNL1        0.0001
      2 C         -63.4555  -48.2646  -25.4288 C.ar    1  UNL1        0.0013
      3 C         -62.8242  -47.1178  -25.9173 C.ar    1  UNL1        0.0147
      4 C         -61.4535  -46.9042  -25.6846 C.ar    1  UNL1        0.0503
      5 C         -60.7373  -47.8477  -24.9336 C.ar    1  UNL1        0.0147
      6 C         -61.3669  -48.9969  -24.4479 C.ar    1  UNL1        0.0013
      7 C         -64.6449  -52.8232  -23.3224 C.ar    1  UNL1        0.0503
      8 C         -65.3791  -51.8533  -24.0258 C.ar    1  UNL1        0.0147
      9 C         -64.7600  -50.6791  -24.4633 C.ar    1  UNL1        0.0013
     10 C         -63.4033  -50.4403  -24.1843 C.ar    1  UNL1        0.0001
     11 C         -62.6867  -51.3868  -23.4330 C.ar    1  UNL1        0.0013
     12 C         -63.3040  -52.5644  -23.0054 C.ar    1  UNL1        0.0147
     13 C         -66.6367  -54.2403  -22.6253 C.2     1  UNL1        0.2442
     14 O         -67.3762  -53.2532  -22.3695 O.2     1  UNL1       -0.2730
     15 N         -65.2348  -54.0639  -22.8989 N.am    1  UNL1       -0.2826
     16 H         -64.6600  -54.9284  -23.0195 H       1  UNL1        0.1549
     17 C         -69.6701  -54.8228  -22.2279 C.2     1  UNL1        0.2482
     18 O         -70.7946  -54.6418  -22.7707 O.2     1  UNL1       -0.2727
     19 N         -68.6658  -55.5725  -22.9448 N.am    1  UNL1       -0.2714
     20 C         -69.0084  -56.4167  -24.0776 C.3     1  UNL1        0.0939
     21 C         -67.7612  -57.2343  -24.3800 C.3     1  UNL1        0.0237
     22 C         -66.6057  -56.4948  -23.7142 C.3     1  UNL1        0.0310
     23 C         -67.2411  -55.6195  -22.6295 C.3     1  UNL1        0.1521
     24 C         -69.4262  -54.2664  -20.8364 C.3     1  UNL1        0.1743
     25 C         -70.7019  -54.2059  -20.0179 C.ar    1  UNL1        0.0044
     26 C         -71.5778  -55.3074  -19.9986 C.ar    1  UNL1       -0.0022
     27 C         -72.7811  -55.2463  -19.2895 C.ar    1  UNL1       -0.0003
     28 C         -73.1350  -54.0794  -18.6101 C.ar    1  UNL1       -0.0000
     29 C         -72.2875  -52.9701  -18.6411 C.ar    1  UNL1       -0.0003
     30 C         -71.0813  -53.0271  -19.3465 C.ar    1  UNL1       -0.0022
     31 C         -67.6499  -54.5576  -19.0441 C.2     1  UNL1        0.4023
     32 O         -67.7417  -53.3422  -18.7167 O.2     1  UNL1       -0.2264
     33 N         -68.4301  -55.0770  -20.1276 N.am    1  UNL1       -0.2606
     34 H         -68.3738  -56.1048  -20.3090 H       1  UNL1        0.1535
     35 C         -66.8785  -55.6205  -16.9481 C.3     1  UNL1        0.2573
     36 O         -66.7879  -55.4130  -18.3524 O.3     1  UNL1       -0.4306
     37 N         -60.7834  -45.7192  -26.1527 N.am    1  UNL1       -0.2826
     38 C         -60.5590  -45.4234  -27.5425 C.2     1  UNL1        0.2442
     39 O         -60.4539  -46.3726  -28.3656 O.2     1  UNL1       -0.2730
     40 H         -60.3449  -45.0958  -25.4384 H       1  UNL1        0.1549
     41 C         -60.3094  -44.0077  -28.0307 C.3     1  UNL1        0.1527
     42 C         -59.9883  -43.0016  -26.9236 C.3     1  UNL1        0.0319
     43 C         -60.4861  -41.6648  -27.4566 C.3     1  UNL1        0.0331
     44 C         -61.6319  -42.0147  -28.4066 C.3     1  UNL1        0.1203
     45 S         -61.5359  -40.9992  -29.9251 S.3     1  UNL1       -0.1491
     46 N         -61.4736  -43.4366  -28.7013 N.am    1  UNL1       -0.2639
     47 C         -62.1909  -44.1063  -29.7511 C.2     1  UNL1        0.2488
     48 O         -61.6016  -44.3376  -30.8414 O.2     1  UNL1       -0.2727
     49 H         -62.7991  -41.4085  -30.3875 H       1  UNL1        0.1038
     50 C         -63.5651  -44.6889  -29.4999 C.3     1  UNL1        0.1743
     51 C         -64.6636  -43.7399  -29.9310 C.ar    1  UNL1        0.0044
     52 C         -64.5278  -42.3594  -29.6974 C.ar    1  UNL1       -0.0022
     53 C         -65.5117  -41.4675  -30.1332 C.ar    1  UNL1       -0.0003
     54 C         -66.6364  -41.9419  -30.8120 C.ar    1  UNL1       -0.0000
     55 C         -66.7775  -43.3093  -31.0598 C.ar    1  UNL1       -0.0003
     56 C         -65.7961  -44.2056  -30.6267 C.ar    1  UNL1       -0.0022
     57 N         -63.7186  -45.9859  -30.1702 N.am    1  UNL1       -0.2606
     58 C         -64.1300  -47.1642  -29.4677 C.2     1  UNL1        0.4023
     59 O         -64.3075  -47.1323  -28.2185 O.2     1  UNL1       -0.2264
     60 H         -63.6558  -46.0390  -31.2125 H       1  UNL1        0.1535
     61 O         -64.3360  -48.3478  -30.1815 O.3     1  UNL1       -0.4306
     62 C         -65.5272  -48.6022  -30.9161 C.3     1  UNL1        0.2573
@<TRIPOS>BOND
     1    35    36    1
     2    36    31    1
     3    31    32    2
     4    31    33   am
     5    33    24    1
     6    24    17    1
     7    17    18    2
     8    17    19   am
     9    19    20    1
    10    20    21    1
    11    21    22    1
    12    22    23    1
    13    23    13    1
    14    13    14    2
    15    13    15   am
    16    15     7    1
    17     7     8   ar
    18     8     9   ar
    19     9    10   ar
    20    10     1    1
    21     1     2   ar
    22     2     3   ar
    23     3     4   ar
    24     4    37    1
    25    37    38   am
    26    38    39    2
    27    38    41    1
    28    41    42    1
    29    42    43    1
    30    43    44    1
    31    44    45    1
    32    44    46    1
    33    46    47   am
    34    47    48    2
    35    47    50    1
    36    50    57    1
    37    57    58   am
    38    58    59    2
    39    58    61    1
    40    61    62    1
    41    50    51    1
    42    51    52   ar
    43    52    53   ar
    44    53    54   ar
    45    54    55   ar
    46    55    56   ar
    47     4     5   ar
    48     5     6   ar
    49    10    11   ar
    50    11    12   ar
    51    24    25    1
    52    25    26   ar
    53    26    27   ar
    54    27    28   ar
    55    28    29   ar
    56    29    30   ar
    57    23    19    1
    58    12     7   ar
    59    30    25   ar
    60     6     1   ar
    61    46    41    1
    62    56    51   ar
    63    33    34    1
    64    15    16    1
    65    37    40    1
    66    45    49    1
    67    57    60    1
@<TRIPOS>MOLECULE
*****
 62 67 0 0 0
SMALL
GASTEIGER

@<TRIPOS>ATOM
      1 C         -63.1105  -51.4582  -23.8403 C.ar    1  UNL1        0.0001
      2 C         -61.9698  -51.7891  -23.0893 C.ar    1  UNL1        0.0013
      3 C         -60.9482  -50.8546  -22.9009 C.ar    1  UNL1        0.0147
      4 C         -61.0504  -49.5651  -23.4535 C.ar    1  UNL1        0.0503
      5 C         -62.1816  -49.2413  -24.2169 C.ar    1  UNL1        0.0147
      6 C         -63.2056  -50.1740  -24.4027 C.ar    1  UNL1        0.0013
      7 C         -66.1875  -54.4200  -24.3761 C.ar    1  UNL1        0.0503
      8 C         -65.5524  -53.8463  -25.4906 C.ar    1  UNL1        0.0147
      9 C         -64.5588  -52.8790  -25.3165 C.ar    1  UNL1        0.0013
     10 C         -64.1991  -52.4483  -24.0279 C.ar    1  UNL1        0.0001
     11 C         -64.8749  -52.9837  -22.9187 C.ar    1  UNL1        0.0013
     12 C         -65.8604  -53.9578  -23.0936 C.ar    1  UNL1        0.0147
     13 C         -68.4506  -55.2691  -25.1628 C.2     1  UNL1        0.2442
     14 O         -68.9402  -54.1188  -25.3167 O.2     1  UNL1       -0.2730
     15 N         -67.1791  -55.4517  -24.5138 N.am    1  UNL1       -0.2826
     16 H         -66.8686  -56.4347  -24.3413 H       1  UNL1        0.1549
     17 C         -71.5409  -55.5720  -24.9245 C.2     1  UNL1        0.2482
     18 O         -72.6220  -55.0633  -25.3301 O.2     1  UNL1       -0.2727
     19 N         -70.6252  -56.1223  -25.8957 N.am    1  UNL1       -0.2714
     20 C         -71.0486  -56.4366  -27.2504 C.3     1  UNL1        0.0939
     21 C         -69.9092  -57.2334  -27.8686 C.3     1  UNL1        0.0237
     22 C         -68.6833  -56.9444  -27.0090 C.3     1  UNL1        0.0310
     23 C         -69.2248  -56.4611  -25.6601 C.3     1  UNL1        0.1521
     24 C         -71.2573  -55.6060  -23.4333 C.3     1  UNL1        0.1743
     25 C         -72.4787  -56.0158  -22.6326 C.ar    1  UNL1        0.0044
     26 C         -73.5784  -56.6082  -23.2812 C.ar    1  UNL1       -0.0022
     27 C         -74.7302  -56.9442  -22.5637 C.ar    1  UNL1       -0.0003
     28 C         -74.8075  -56.6736  -21.1966 C.ar    1  UNL1       -0.0000
     29 C         -73.7339  -56.0634  -20.5447 C.ar    1  UNL1       -0.0003
     30 C         -72.5783  -55.7280  -21.2573 C.ar    1  UNL1       -0.0022
     31 C         -69.1908  -56.2679  -22.1126 C.2     1  UNL1        0.4023
     32 O         -69.2204  -55.1824  -21.4695 O.2     1  UNL1       -0.2264
     33 N         -70.1525  -56.5262  -23.1426 N.am    1  UNL1       -0.2606
     34 H         -70.1315  -57.4696  -23.5921 H       1  UNL1        0.1535
     35 C         -67.0618  -56.9484  -21.0532 C.3     1  UNL1        0.2573
     36 O         -68.2212  -57.2329  -21.8267 O.3     1  UNL1       -0.4306
     37 N         -60.0016  -48.5914  -23.2983 N.am    1  UNL1       -0.2826
     38 C         -59.8288  -47.4567  -24.1655 C.2     1  UNL1        0.2442
     39 O         -60.2229  -47.5288  -25.3609 O.2     1  UNL1       -0.2730
     40 H         -59.2662  -48.7808  -22.5809 H       1  UNL1        0.1549
     41 C         -59.0645  -46.2208  -23.7259 C.3     1  UNL1        0.1527
     42 C         -58.4905  -46.2995  -22.3099 C.3     1  UNL1        0.0319
     43 C         -58.4485  -44.8559  -21.8266 C.3     1  UNL1        0.0331
     44 C         -59.5734  -44.1483  -22.5824 C.3     1  UNL1        0.1203
     45 S         -59.0196  -42.5032  -23.1595 S.3     1  UNL1       -0.1491
     46 N         -59.9035  -45.0264  -23.7021 N.am    1  UNL1       -0.2639
     47 C         -60.7335  -44.6191  -24.8022 C.2     1  UNL1        0.2488
     48 O         -60.1868  -44.2861  -25.8884 O.2     1  UNL1       -0.2727
     49 H         -60.3098  -42.1065  -23.5532 H       1  UNL1        0.1038
     50 C         -62.2389  -44.7583  -24.7289 C.3     1  UNL1        0.1743
     51 C         -62.7889  -45.5281  -25.9113 C.ar    1  UNL1        0.0044
     52 C         -63.2092  -46.8602  -25.7452 C.ar    1  UNL1       -0.0022
     53 C         -63.7635  -47.5665  -26.8164 C.ar    1  UNL1       -0.0003
     54 C         -63.9107  -46.9498  -28.0609 C.ar    1  UNL1       -0.0000
     55 C         -63.5074  -45.6240  -28.2357 C.ar    1  UNL1       -0.0003
     56 C         -62.9531  -44.9128  -27.1674 C.ar    1  UNL1       -0.0022
     57 N         -62.6491  -45.3935  -23.4706 N.am    1  UNL1       -0.2606
     58 C         -62.9765  -44.6322  -22.3026 C.2     1  UNL1        0.4023
     59 O         -62.8519  -43.3763  -22.3046 O.2     1  UNL1       -0.2264
     60 H         -62.8378  -46.4217  -23.4488 H       1  UNL1        0.1535
     61 O         -63.4387  -45.2955  -21.1626 O.3     1  UNL1       -0.4306
     62 C         -64.2706  -44.6671  -20.1949 C.3     1  UNL1        0.2573
@<TRIPOS>BOND
     1    35    36    1
     2    36    31    1
     3    31    32    2
     4    31    33   am
     5    33    24    1
     6    24    17    1
     7    17    18    2
     8    17    19   am
     9    19    20    1
    10    20    21    1
    11    21    22    1
    12    22    23    1
    13    23    13    1
    14    13    14    2
    15    13    15   am
    16    15     7    1
    17     7     8   ar
    18     8     9   ar
    19     9    10   ar
    20    10     1    1
    21     1     2   ar
    22     2     3   ar
    23     3     4   ar
    24     4    37    1
    25    37    38   am
    26    38    39    2
    27    38    41    1
    28    41    42    1
    29    42    43    1
    30    43    44    1
    31    44    45    1
    32    44    46    1
    33    46    47   am
    34    47    48    2
    35    47    50    1
    36    50    57    1
    37    57    58   am
    38    58    59    2
    39    58    61    1
    40    61    62    1
    41    50    51    1
    42    51    52   ar
    43    52    53   ar
    44    53    54   ar
    45    54    55   ar
    46    55    56   ar
    47     4     5   ar
    48     5     6   ar
    49    10    11   ar
    50    11    12   ar
    51    24    25    1
    52    25    26   ar
    53    26    27   ar
    54    27    28   ar
    55    28    29   ar
    56    29    30   ar
    57    23    19    1
    58    12     7   ar
    59    30    25   ar
    60     6     1   ar
    61    46    41    1
    62    56    51   ar
    63    33    34    1
    64    15    16    1
    65    37    40    1
    66    45    49    1
    67    57    60    1
@<TRIPOS>MOLECULE
*****
 62 67 0 0 0
SMALL
GASTEIGER

@<TRIPOS>ATOM
      1 C         -62.8972  -49.0850  -24.3782 C.ar    1  UNL1        0.0001
      2 C         -61.5470  -49.0074  -24.7598 C.ar    1  UNL1        0.0013
      3 C         -60.9771  -47.7799  -25.1075 C.ar    1  UNL1        0.0147
      4 C         -61.7447  -46.6017  -25.0726 C.ar    1  UNL1        0.0503
      5 C         -63.0966  -46.6828  -24.7078 C.ar    1  UNL1        0.0147
      6 C         -63.6665  -47.9094  -24.3563 C.ar    1  UNL1        0.0013
      7 C         -64.5808  -52.9158  -23.3691 C.ar    1  UNL1        0.0503
      8 C         -65.3008  -52.0122  -24.1689 C.ar    1  UNL1        0.0147
      9 C         -64.7572  -50.7654  -24.4900 C.ar    1  UNL1        0.0013
     10 C         -63.4961  -50.3877  -23.9975 C.ar    1  UNL1        0.0001
     11 C         -62.8035  -51.2713  -23.1529 C.ar    1  UNL1        0.0013
     12 C         -63.3434  -52.5211  -22.8413 C.ar    1  UNL1        0.0147
     13 C         -66.2652  -54.4701  -22.2699 C.2     1  UNL1        0.2442
     14 O         -66.7172  -53.5908  -21.4895 O.2     1  UNL1       -0.2730
     15 N         -65.0860  -54.2252  -23.0578 N.am    1  UNL1       -0.2826
     16 H         -64.7140  -55.0237  -23.6204 H       1  UNL1        0.1549
     17 C         -69.3261  -54.8511  -21.8401 C.2     1  UNL1        0.2482
     18 O         -70.4437  -54.5461  -22.3399 O.2     1  UNL1       -0.2727
     19 N         -68.3964  -55.6184  -22.6348 N.am    1  UNL1       -0.2714
     20 C         -68.8249  -56.3476  -23.8172 C.3     1  UNL1        0.0939
     21 C         -67.6502  -57.2317  -24.2098 C.3     1  UNL1        0.0237
     22 C         -66.4286  -56.6329  -23.5209 C.3     1  UNL1        0.0310
     23 C         -66.9737  -55.7958  -22.3596 C.3     1  UNL1        0.1521
     24 C         -69.0131  -54.4201  -20.4183 C.3     1  UNL1        0.1743
     25 C         -70.2617  -54.3460  -19.5601 C.ar    1  UNL1        0.0044
     26 C         -70.7368  -55.4997  -18.9088 C.ar    1  UNL1       -0.0022
     27 C         -71.9141  -55.4571  -18.1562 C.ar    1  UNL1       -0.0003
     28 C         -72.6426  -54.2701  -18.0623 C.ar    1  UNL1       -0.0000
     29 C         -72.1966  -53.1240  -18.7235 C.ar    1  UNL1       -0.0003
     30 C         -71.0180  -53.1606  -19.4753 C.ar    1  UNL1       -0.0022
     31 C         -67.3754  -55.0381  -18.5775 C.2     1  UNL1        0.4023
     32 O         -67.5282  -53.9132  -18.0260 O.2     1  UNL1       -0.2264
     33 N         -68.0525  -55.3422  -19.8029 N.am    1  UNL1       -0.2606
     34 H         -67.9521  -56.3127  -20.1777 H       1  UNL1        0.1535
     35 C         -66.0992  -55.9196  -16.6507 C.3     1  UNL1        0.2573
     36 O         -66.5458  -56.0024  -17.9987 O.3     1  UNL1       -0.4306
     37 N         -61.1912  -45.3280  -25.4513 N.am    1  UNL1       -0.2826
     38 C         -61.2192  -44.8108  -26.7934 C.2     1  UNL1        0.2442
     39 O         -61.2403  -45.6156  -27.7637 O.2     1  UNL1       -0.2730
     40 H         -60.6474  -44.8019  -24.7310 H       1  UNL1        0.1549
     41 C         -61.0880  -43.3265  -27.0835 C.3     1  UNL1        0.1527
     42 C         -61.9565  -42.4278  -26.2009 C.3     1  UNL1        0.0319
     43 C         -62.2459  -41.2032  -27.0587 C.3     1  UNL1        0.0331
     44 C         -62.1911  -41.7041  -28.5022 C.3     1  UNL1        0.1203
     45 S         -61.3034  -40.5055  -29.5613 S.3     1  UNL1       -0.1491
     46 N         -61.4948  -42.9868  -28.4437 N.am    1  UNL1       -0.2639
     47 C         -61.0097  -43.6717  -29.6102 C.2     1  UNL1        0.2488
     48 O         -59.7837  -43.5987  -29.8949 O.2     1  UNL1       -0.2727
     49 H         -61.6604  -41.1578  -30.7547 H       1  UNL1        0.1038
     50 C         -61.9074  -44.6128  -30.3843 C.3     1  UNL1        0.1743
     51 C         -63.3725  -44.3267  -30.1292 C.ar    1  UNL1        0.0044
     52 C         -63.9761  -43.1957  -30.7083 C.ar    1  UNL1       -0.0022
     53 C         -65.3385  -42.9462  -30.5207 C.ar    1  UNL1       -0.0003
     54 C         -66.1134  -43.8249  -29.7603 C.ar    1  UNL1       -0.0000
     55 C         -65.5281  -44.9572  -29.1892 C.ar    1  UNL1       -0.0003
     56 C         -64.1661  -45.2119  -29.3744 C.ar    1  UNL1       -0.0022
     57 N         -61.6185  -44.5537  -31.8224 N.am    1  UNL1       -0.2606
     58 C         -61.6033  -43.3189  -32.5477 C.2     1  UNL1        0.4023
     59 O         -61.9112  -42.2381  -31.9730 O.2     1  UNL1       -0.2264
     60 H         -61.2852  -45.4120  -32.3178 H       1  UNL1        0.1535
     61 O         -61.2402  -43.3240  -33.8972 O.3     1  UNL1       -0.4306
     62 C         -59.9424  -43.7022  -34.3401 C.3     1  UNL1        0.2573
@<TRIPOS>BOND
     1    35    36    1
     2    36    31    1
     3    31    32    2
     4    31    33   am
     5    33    24    1
     6    24    17    1
     7    17    18    2
     8    17    19   am
     9    19    20    1
    10    20    21    1
    11    21    22    1
    12    22    23    1
    13    23    13    1
    14    13    14    2
    15    13    15   am
    16    15     7    1
    17     7     8   ar
    18     8     9   ar
    19     9    10   ar
    20    10     1    1
    21     1     2   ar
    22     2     3   ar
    23     3     4   ar
    24     4    37    1
    25    37    38   am
    26    38    39    2
    27    38    41    1
    28    41    42    1
    29    42    43    1
    30    43    44    1
    31    44    45    1
    32    44    46    1
    33    46    47   am
    34    47    48    2
    35    47    50    1
    36    50    57    1
    37    57    58   am
    38    58    59    2
    39    58    61    1
    40    61    62    1
    41    50    51    1
    42    51    52   ar
    43    52    53   ar
    44    53    54   ar
    45    54    55   ar
    46    55    56   ar
    47     4     5   ar
    48     5     6   ar
    49    10    11   ar
    50    11    12   ar
    51    24    25    1
    52    25    26   ar
    53    26    27   ar
    54    27    28   ar
    55    28    29   ar
    56    29    30   ar
    57    23    19    1
    58    12     7   ar
    59    30    25   ar
    60     6     1   ar
    61    46    41    1
    62    56    51   ar
    63    33    34    1
    64    15    16    1
    65    37    40    1
    66    45    49    1
    67    57    60    1
