@<TRIPOS>MOLECULE
*****
 25 28 0 0 0
SMALL
GASTEIGER

@<TRIPOS>ATOM
      1 C         -23.4019  -11.6349  -16.2761 C.3     1  UNL1        0.1428
      2 O         -24.5938  -12.1156  -16.8510 O.3     1  UNL1       -0.3752
      3 C         -22.8881  -10.4022  -17.0765 C.3     1  UNL1        0.0508
      4 C         -22.2764   -9.4075  -16.0601 C.3     1  UNL1        0.0606
      5 BR        -23.1740   -7.6710  -16.1056 Br      1  UNL1       -0.0816
      6 C         -22.3694  -10.1510  -14.7238 C.3     1  UNL1        0.0141
      7 C         -22.3275   -9.4393  -13.3655 C.3     1  UNL1        0.0053
      8 C         -21.2481   -8.3575  -13.1905 C.3     1  UNL1        0.0050
      9 C         -21.2920   -7.7467  -11.7578 C.3     1  UNL1        0.0261
     10 C         -22.0696   -8.5463  -10.7089 C.ar    1  UNL1       -0.0231
     11 C         -22.3820   -7.9282   -9.4886 C.ar    1  UNL1        0.0320
     12 C         -23.1521   -8.5918   -8.5305 C.ar    1  UNL1        0.1333
     13 O         -23.4520   -7.9542   -7.3287 O.3     1  UNL1       -0.5055
     14 C         -23.6224   -9.8839   -8.7880 C.ar    1  UNL1        0.0363
     15 C         -23.3116  -10.5225   -9.9906 C.ar    1  UNL1       -0.0015
     16 C         -22.5133   -9.8740  -10.9521 C.ar    1  UNL1       -0.0263
     17 C         -22.0826  -10.5019  -12.2584 C.3     1  UNL1        0.0221
     18 C         -22.5149  -11.9683  -12.6171 C.3     1  UNL1        0.0045
     19 C         -23.6488  -12.1140  -13.6550 C.3     1  UNL1        0.0036
     20 C         -23.6109  -11.0732  -14.8334 C.3     1  UNL1        0.0341
     21 C         -24.9723  -10.2988  -14.7914 C.3     1  UNL1        0.0034
     22 H         -24.9191  -12.8624  -16.2821 H       1  UNL1        0.2114
     23 H         -24.0104   -8.4064   -6.6141 H       1  UNL1        0.2922
     24 C         -21.5461  -13.5816  -16.3599 C.1     1  UNL1       -0.0119
     25 C         -22.3765  -12.7082  -16.3225 C.1     1  UNL1       -0.0525
@<TRIPOS>BOND
     1    24    25    3
     2     1    25    1
     3     1     2    1
     4     1     3    1
     5     3     4    1
     6     4     5    1
     7     4     6    1
     8     6     7    1
     9     7     8    1
    10     8     9    1
    11     9    10    1
    12    10    11   ar
    13    11    12   ar
    14    12    13    1
    15    12    14   ar
    16    14    15   ar
    17    15    16   ar
    18    16    17    1
    19    17    18    1
    20    18    19    1
    21    19    20    1
    22    20    21    1
    23    20     1    1
    24    20     6    1
    25    17     7    1
    26    16    10   ar
    27     2    22    1
    28    13    23    1
@<TRIPOS>MOLECULE
*****
 25 28 0 0 0
SMALL
GASTEIGER

@<TRIPOS>ATOM
      1 C         -24.3814  -13.3169  -15.3388 C.3     1  UNL1        0.1428
      2 O         -24.7462  -13.3608  -16.6980 O.3     1  UNL1       -0.3752
      3 C         -23.2083  -14.3057  -15.0737 C.3     1  UNL1        0.0508
      4 C         -22.2735  -13.6512  -14.0275 C.3     1  UNL1        0.0606
      5 BR        -20.4579  -13.4168  -14.7146 Br      1  UNL1       -0.0816
      6 C         -22.9984  -12.3541  -13.6542 C.3     1  UNL1        0.0141
      7 C         -22.2880  -11.1511  -13.0207 C.3     1  UNL1        0.0053
      8 C         -21.3159  -11.4567  -11.8684 C.3     1  UNL1        0.0050
      9 C         -20.6973  -10.1474  -11.2932 C.3     1  UNL1        0.0261
     10 C         -21.4126   -8.8456  -11.6644 C.ar    1  UNL1       -0.0231
     11 C         -20.7614   -7.6274  -11.4177 C.ar    1  UNL1        0.0320
     12 C         -21.3425   -6.4177  -11.8057 C.ar    1  UNL1        0.1333
     13 O         -20.6732   -5.2223  -11.5531 O.3     1  UNL1       -0.5055
     14 C         -22.5837   -6.4166  -12.4510 C.ar    1  UNL1        0.0363
     15 C         -23.2549   -7.6170  -12.6941 C.ar    1  UNL1       -0.0015
     16 C         -22.6917   -8.8401  -12.2829 C.ar    1  UNL1       -0.0263
     17 C         -23.3645  -10.1831  -12.4559 C.3     1  UNL1        0.0221
     18 C         -24.7833  -10.2825  -13.1214 C.3     1  UNL1        0.0045
     19 C         -24.8224  -10.7891  -14.5795 C.3     1  UNL1        0.0036
     20 C         -23.7955  -11.9320  -14.9151 C.3     1  UNL1        0.0341
     21 C         -22.8918  -11.3955  -16.0773 C.3     1  UNL1        0.0034
     22 H         -25.4551  -12.6790  -16.8385 H       1  UNL1        0.2114
     23 H         -21.0656   -4.3280  -11.8240 H       1  UNL1        0.2922
     24 C         -26.4978  -14.0341  -13.8397 C.1     1  UNL1       -0.0119
     25 C         -25.5499  -13.7137  -14.5124 C.1     1  UNL1       -0.0525
@<TRIPOS>BOND
     1    24    25    3
     2     1    25    1
     3     1     2    1
     4     1     3    1
     5     3     4    1
     6     4     5    1
     7     4     6    1
     8     6     7    1
     9     7     8    1
    10     8     9    1
    11     9    10    1
    12    10    11   ar
    13    11    12   ar
    14    12    13    1
    15    12    14   ar
    16    14    15   ar
    17    15    16   ar
    18    16    17    1
    19    17    18    1
    20    18    19    1
    21    19    20    1
    22    20    21    1
    23    20     1    1
    24    20     6    1
    25    17     7    1
    26    16    10   ar
    27     2    22    1
    28    13    23    1
@<TRIPOS>MOLECULE
*****
 25 28 0 0 0
SMALL
GASTEIGER

@<TRIPOS>ATOM
      1 C         -22.0430   -8.2588  -12.5351 C.3     1  UNL1        0.1428
      2 O         -21.6205   -7.1274  -13.2589 O.3     1  UNL1       -0.3752
      3 C         -23.2597   -7.8882  -11.6371 C.3     1  UNL1        0.0508
      4 C         -24.2167   -9.1051  -11.6222 C.3     1  UNL1        0.0606
      5 BR        -25.9912   -8.6480  -12.3044 Br      1  UNL1       -0.0816
      6 C         -23.4650  -10.1678  -12.4303 C.3     1  UNL1        0.0141
      7 C         -24.1609  -11.3659  -13.0885 C.3     1  UNL1        0.0053
      8 C         -25.1926  -12.1172  -12.2299 C.3     1  UNL1        0.0050
      9 C         -25.7908  -13.3302  -13.0036 C.3     1  UNL1        0.0261
     10 C         -25.0158  -13.7863  -14.2428 C.ar    1  UNL1       -0.0231
     11 C         -25.6352  -14.6776  -15.1322 C.ar    1  UNL1        0.0320
     12 C         -24.9966  -15.0648  -16.3127 C.ar    1  UNL1        0.1333
     13 O         -25.6350  -15.9476  -17.1810 O.3     1  UNL1       -0.5055
     14 C         -23.7290  -14.5578  -16.6175 C.ar    1  UNL1        0.0363
     15 C         -23.0891  -13.6800  -15.7396 C.ar    1  UNL1       -0.0015
     16 C         -23.7113  -13.3043  -14.5338 C.ar    1  UNL1       -0.0263
     17 C         -23.0779  -12.4019  -13.4990 C.3     1  UNL1        0.0221
     18 C         -21.6354  -11.8235  -13.7237 C.3     1  UNL1        0.0045
     19 C         -21.5496  -10.3399  -14.1433 C.3     1  UNL1        0.0036
     20 C         -22.5992   -9.3917  -13.4558 C.3     1  UNL1        0.0341
     21 C         -23.4321   -8.7344  -14.6087 C.3     1  UNL1        0.0034
     22 H         -20.8832   -7.4158  -13.8592 H       1  UNL1        0.2114
     23 H         -25.2008  -16.2462  -18.0466 H       1  UNL1        0.2922
     24 C         -20.0204   -9.1035  -10.9742 C.1     1  UNL1       -0.0119
     25 C         -20.9262   -8.7259  -11.6747 C.1     1  UNL1       -0.0525
@<TRIPOS>BOND
     1    24    25    3
     2     1    25    1
     3     1     2    1
     4     1     3    1
     5     3     4    1
     6     4     5    1
     7     4     6    1
     8     6     7    1
     9     7     8    1
    10     8     9    1
    11     9    10    1
    12    10    11   ar
    13    11    12   ar
    14    12    13    1
    15    12    14   ar
    16    14    15   ar
    17    15    16   ar
    18    16    17    1
    19    17    18    1
    20    18    19    1
    21    19    20    1
    22    20    21    1
    23    20     1    1
    24    20     6    1
    25    17     7    1
    26    16    10   ar
    27     2    22    1
    28    13    23    1
@<TRIPOS>MOLECULE
*****
 25 28 0 0 0
SMALL
GASTEIGER

@<TRIPOS>ATOM
      1 C         -21.7277   -6.8199  -11.5298 C.3     1  UNL1        0.1428
      2 O         -20.7982   -5.8638  -11.9819 O.3     1  UNL1       -0.3752
      3 C         -23.1758   -6.2803  -11.7190 C.3     1  UNL1        0.0508
      4 C         -24.0704   -7.4768  -12.1252 C.3     1  UNL1        0.0606
      5 BR        -24.9235   -7.1954  -13.8620 Br      1  UNL1       -0.0816
      6 C         -23.1228   -8.6787  -12.0550 C.3     1  UNL1        0.0141
      7 C         -23.3876   -9.9972  -12.7930 C.3     1  UNL1        0.0053
      8 C         -24.8162  -10.5601  -12.7016 C.3     1  UNL1        0.0050
      9 C         -24.9350  -11.9165  -13.4589 C.3     1  UNL1        0.0261
     10 C         -23.6159  -12.6173  -13.7953 C.ar    1  UNL1       -0.0231
     11 C         -23.6352  -13.6843  -14.7062 C.ar    1  UNL1        0.0320
     12 C         -22.4481  -14.3068  -15.0995 C.ar    1  UNL1        0.1333
     13 O         -22.4942  -15.3613  -16.0088 O.3     1  UNL1       -0.5055
     14 C         -21.2252  -13.8620  -14.5861 C.ar    1  UNL1        0.0363
     15 C         -21.1848  -12.8104  -13.6679 C.ar    1  UNL1       -0.0015
     16 C         -22.3770  -12.1936  -13.2433 C.ar    1  UNL1       -0.0263
     17 C         -22.4383  -11.0846  -12.2174 C.3     1  UNL1        0.0221
     18 C         -21.1245  -10.5511  -11.5430 C.3     1  UNL1        0.0045
     19 C         -20.5987   -9.1900  -12.0482 C.3     1  UNL1        0.0036
     20 C         -21.7106   -8.1290  -12.3821 C.3     1  UNL1        0.0341
     21 C         -21.5224   -7.7416  -13.8886 C.3     1  UNL1        0.0034
     22 H         -19.8931   -6.2651  -11.8980 H       1  UNL1        0.2114
     23 H         -21.6515  -15.8325  -16.3167 H       1  UNL1        0.2922
     24 C         -21.2931   -7.2904   -8.9163 C.1     1  UNL1       -0.0119
     25 C         -21.4890   -7.0805  -10.0873 C.1     1  UNL1       -0.0525
@<TRIPOS>BOND
     1    24    25    3
     2     1    25    1
     3     1     2    1
     4     1     3    1
     5     3     4    1
     6     4     5    1
     7     4     6    1
     8     6     7    1
     9     7     8    1
    10     8     9    1
    11     9    10    1
    12    10    11   ar
    13    11    12   ar
    14    12    13    1
    15    12    14   ar
    16    14    15   ar
    17    15    16   ar
    18    16    17    1
    19    17    18    1
    20    18    19    1
    21    19    20    1
    22    20    21    1
    23    20     1    1
    24    20     6    1
    25    17     7    1
    26    16    10   ar
    27     2    22    1
    28    13    23    1
@<TRIPOS>MOLECULE
*****
 25 28 0 0 0
SMALL
GASTEIGER

@<TRIPOS>ATOM
      1 C         -21.9713   -7.6202   -9.1095 C.3     1  UNL1        0.1428
      2 O         -22.0183   -6.2704   -8.7118 O.3     1  UNL1       -0.3752
      3 C         -23.1060   -8.4193   -8.4039 C.3     1  UNL1        0.0508
      4 C         -23.6351   -9.4680   -9.4125 C.3     1  UNL1        0.0606
      5 BR        -25.5411   -9.2327   -9.7795 Br      1  UNL1       -0.0816
      6 C         -22.7152   -9.3006  -10.6262 C.3     1  UNL1        0.0141
      7 C         -23.0974   -9.7674  -12.0365 C.3     1  UNL1        0.0053
      8 C         -23.7215  -11.1687  -12.1502 C.3     1  UNL1        0.0050
      9 C         -24.0231  -11.5306  -13.6354 C.3     1  UNL1        0.0261
     10 C         -23.3260  -10.6701  -14.6926 C.ar    1  UNL1       -0.0231
     11 C         -23.7616  -10.7571  -16.0236 C.ar    1  UNL1        0.0320
     12 C         -23.2058   -9.9388  -17.0099 C.ar    1  UNL1        0.1333
     13 O         -23.6590  -10.0417  -18.3232 O.3     1  UNL1       -0.5055
     14 C         -22.2080   -9.0187  -16.6709 C.ar    1  UNL1        0.0363
     15 C         -21.7506   -8.9254  -15.3545 C.ar    1  UNL1       -0.0015
     16 C         -22.2839   -9.7642  -14.3574 C.ar    1  UNL1       -0.0263
     17 C         -21.8182   -9.7721  -12.9189 C.3     1  UNL1        0.0221
     18 C         -20.6664   -8.8133  -12.4501 C.3     1  UNL1        0.0045
     19 C         -21.0957   -7.5724  -11.6377 C.3     1  UNL1        0.0036
     20 C         -22.2781   -7.8131  -10.6291 C.3     1  UNL1        0.0341
     21 C         -23.4233   -6.8244  -11.0368 C.3     1  UNL1        0.0034
     22 H         -21.3191   -5.7843   -9.2236 H       1  UNL1        0.2114
     23 H         -23.2790   -9.4611  -19.0618 H       1  UNL1        0.2922
     24 C         -19.5910   -8.6566   -8.4019 C.1     1  UNL1       -0.0119
     25 C         -20.6572   -8.1924   -8.7204 C.1     1  UNL1       -0.0525
@<TRIPOS>BOND
     1    24    25    3
     2     1    25    1
     3     1     2    1
     4     1     3    1
     5     3     4    1
     6     4     5    1
     7     4     6    1
     8     6     7    1
     9     7     8    1
    10     8     9    1
    11     9    10    1
    12    10    11   ar
    13    11    12   ar
    14    12    13    1
    15    12    14   ar
    16    14    15   ar
    17    15    16   ar
    18    16    17    1
    19    17    18    1
    20    18    19    1
    21    19    20    1
    22    20    21    1
    23    20     1    1
    24    20     6    1
    25    17     7    1
    26    16    10   ar
    27     2    22    1
    28    13    23    1
@<TRIPOS>MOLECULE
*****
 25 28 0 0 0
SMALL
GASTEIGER

@<TRIPOS>ATOM
      1 C         -22.8489  -12.6267  -16.4719 C.3     1  UNL1        0.1428
      2 O         -21.8606  -13.6247  -16.5697 O.3     1  UNL1       -0.3752
      3 C         -24.1933  -13.2576  -16.0043 C.3     1  UNL1        0.0508
      4 C         -24.8852  -12.2394  -15.0654 C.3     1  UNL1        0.0606
      5 BR        -25.1934  -12.9810  -13.2826 Br      1  UNL1       -0.0816
      6 C         -23.9604  -11.0187  -15.1093 C.3     1  UNL1        0.0141
      7 C         -23.9485   -9.9383  -14.0204 C.3     1  UNL1        0.0053
      8 C         -25.3196   -9.4318  -13.5410 C.3     1  UNL1        0.0050
      9 C         -25.1614   -8.3133  -12.4680 C.3     1  UNL1        0.0261
     10 C         -23.7786   -7.6630  -12.3726 C.ar    1  UNL1       -0.0231
     11 C         -23.4899   -6.8585  -11.2598 C.ar    1  UNL1        0.0320
     12 C         -22.2188   -6.3037  -11.0924 C.ar    1  UNL1        0.1333
     13 O         -21.9566   -5.5121   -9.9765 O.3     1  UNL1       -0.5055
     14 C         -21.2196   -6.5538  -12.0389 C.ar    1  UNL1        0.0363
     15 C         -21.4898   -7.3407  -13.1607 C.ar    1  UNL1       -0.0015
     16 C         -22.7749   -7.8824  -13.3539 C.ar    1  UNL1       -0.0263
     17 C         -23.1761   -8.7023  -14.5594 C.3     1  UNL1        0.0221
     18 C         -22.1409   -8.9943  -15.7034 C.3     1  UNL1        0.0045
     19 C         -21.5361  -10.4147  -15.7342 C.3     1  UNL1        0.0036
     20 C         -22.5345  -11.5718  -15.3633 C.3     1  UNL1        0.0341
     21 C         -21.9210  -12.3142  -14.1273 C.3     1  UNL1        0.0034
     22 H         -21.0080  -13.1770  -16.8142 H       1  UNL1        0.2114
     23 H         -21.0448   -5.0971   -9.8238 H       1  UNL1        0.2922
     24 C         -23.1961  -11.5023  -18.8918 C.1     1  UNL1       -0.0119
     25 C         -23.0404  -12.0047  -17.8069 C.1     1  UNL1       -0.0525
@<TRIPOS>BOND
     1    24    25    3
     2     1    25    1
     3     1     2    1
     4     1     3    1
     5     3     4    1
     6     4     5    1
     7     4     6    1
     8     6     7    1
     9     7     8    1
    10     8     9    1
    11     9    10    1
    12    10    11   ar
    13    11    12   ar
    14    12    13    1
    15    12    14   ar
    16    14    15   ar
    17    15    16   ar
    18    16    17    1
    19    17    18    1
    20    18    19    1
    21    19    20    1
    22    20    21    1
    23    20     1    1
    24    20     6    1
    25    17     7    1
    26    16    10   ar
    27     2    22    1
    28    13    23    1
@<TRIPOS>MOLECULE
*****
 25 28 0 0 0
SMALL
GASTEIGER

@<TRIPOS>ATOM
      1 C         -22.3260   -7.7104  -10.0222 C.3     1  UNL1        0.1428
      2 O         -22.7821   -7.5572   -8.6990 O.3     1  UNL1       -0.3752
      3 C         -20.8009   -8.0235  -10.0230 C.3     1  UNL1        0.0508
      4 C         -20.5317   -9.0305  -11.1677 C.3     1  UNL1        0.0606
      5 BR        -19.7481  -10.6958  -10.5073 Br      1  UNL1       -0.0816
      6 C         -21.8965   -9.1805  -11.8475 C.3     1  UNL1        0.0141
      7 C         -22.2676  -10.3846  -12.7225 C.3     1  UNL1        0.0053
      8 C         -21.2152  -10.8378  -13.7487 C.3     1  UNL1        0.0050
      9 C         -21.7353  -12.0390  -14.5937 C.3     1  UNL1        0.0261
     10 C         -23.2453  -12.2888  -14.5500 C.ar    1  UNL1       -0.0231
     11 C         -23.7405  -13.5012  -15.0536 C.ar    1  UNL1        0.0320
     12 C         -25.1014  -13.8049  -14.9690 C.ar    1  UNL1        0.1333
     13 O         -25.5670  -15.0174  -15.4728 O.3     1  UNL1       -0.5055
     14 C         -25.9821  -12.8960  -14.3729 C.ar    1  UNL1        0.0363
     15 C         -25.5120  -11.6778  -13.8773 C.ar    1  UNL1       -0.0015
     16 C         -24.1470  -11.3491  -13.9819 C.ar    1  UNL1       -0.0263
     17 C         -23.5541  -10.0365  -13.5218 C.3     1  UNL1        0.0221
     18 C         -24.4689   -8.9291  -12.8873 C.3     1  UNL1        0.0045
     19 C         -24.3907   -8.7716  -11.3533 C.3     1  UNL1        0.0036
     20 C         -22.9543   -8.9488  -10.7380 C.3     1  UNL1        0.0341
     21 C         -23.0500  -10.1256   -9.7079 C.3     1  UNL1        0.0034
     22 H         -23.7649   -7.4157   -8.7369 H       1  UNL1        0.2114
     23 H         -26.5474  -15.2695  -15.4248 H       1  UNL1        0.2922
     24 C         -22.7570   -5.4188  -11.3652 C.1     1  UNL1       -0.0119
     25 C         -22.5648   -6.4464  -10.7644 C.1     1  UNL1       -0.0525
@<TRIPOS>BOND
     1    24    25    3
     2     1    25    1
     3     1     2    1
     4     1     3    1
     5     3     4    1
     6     4     5    1
     7     4     6    1
     8     6     7    1
     9     7     8    1
    10     8     9    1
    11     9    10    1
    12    10    11   ar
    13    11    12   ar
    14    12    13    1
    15    12    14   ar
    16    14    15   ar
    17    15    16   ar
    18    16    17    1
    19    17    18    1
    20    18    19    1
    21    19    20    1
    22    20    21    1
    23    20     1    1
    24    20     6    1
    25    17     7    1
    26    16    10   ar
    27     2    22    1
    28    13    23    1
@<TRIPOS>MOLECULE
*****
 25 28 0 0 0
SMALL
GASTEIGER

@<TRIPOS>ATOM
      1 C         -23.8494   -8.4457  -14.2728 C.3     1  UNL1        0.1428
      2 O         -23.7889   -7.1861  -14.8988 O.3     1  UNL1       -0.3752
      3 C         -23.8249   -9.5721  -15.3473 C.3     1  UNL1        0.0508
      4 C         -22.9987  -10.7482  -14.7720 C.3     1  UNL1        0.0606
      5 BR        -21.4515  -11.1709  -15.8903 Br      1  UNL1       -0.0816
      6 C         -22.6647  -10.2943  -13.3473 C.3     1  UNL1        0.0141
      7 C         -21.5018  -10.8773  -12.5343 C.3     1  UNL1        0.0053
      8 C         -21.3507  -12.4080  -12.5529 C.3     1  UNL1        0.0050
      9 C         -20.1602  -12.8659  -11.6581 C.3     1  UNL1        0.0261
     10 C         -19.6329  -11.8324  -10.6591 C.ar    1  UNL1       -0.0231
     11 C         -18.4035  -12.0748  -10.0276 C.ar    1  UNL1        0.0320
     12 C         -17.8471  -11.1279   -9.1644 C.ar    1  UNL1        0.1333
     13 O         -16.6231  -11.3910   -8.5534 O.3     1  UNL1       -0.5055
     14 C         -18.5167   -9.9226   -8.9280 C.ar    1  UNL1        0.0363
     15 C         -19.7479   -9.6670   -9.5358 C.ar    1  UNL1       -0.0015
     16 C         -20.3314  -10.6256  -10.3861 C.ar    1  UNL1       -0.0263
     17 C         -21.6810  -10.4614  -11.0477 C.3     1  UNL1        0.0221
     18 C         -22.5348   -9.1665  -10.8032 C.3     1  UNL1        0.0045
     19 C         -22.5570   -8.1333  -11.9505 C.3     1  UNL1        0.0036
     20 C         -22.5903   -8.7466  -13.3983 C.3     1  UNL1        0.0341
     21 C         -21.3233   -8.2045  -14.1439 C.3     1  UNL1        0.0034
     22 H         -23.7495   -6.4987  -14.1825 H       1  UNL1        0.2114
     23 H         -16.1909  -10.7244   -7.9243 H       1  UNL1        0.2922
     24 C         -26.1392   -8.6130  -12.8694 C.1     1  UNL1       -0.0119
     25 C         -25.1125   -8.5390  -13.4972 C.1     1  UNL1       -0.0525
@<TRIPOS>BOND
     1    24    25    3
     2     1    25    1
     3     1     2    1
     4     1     3    1
     5     3     4    1
     6     4     5    1
     7     4     6    1
     8     6     7    1
     9     7     8    1
    10     8     9    1
    11     9    10    1
    12    10    11   ar
    13    11    12   ar
    14    12    13    1
    15    12    14   ar
    16    14    15   ar
    17    15    16   ar
    18    16    17    1
    19    17    18    1
    20    18    19    1
    21    19    20    1
    22    20    21    1
    23    20     1    1
    24    20     6    1
    25    17     7    1
    26    16    10   ar
    27     2    22    1
    28    13    23    1
@<TRIPOS>MOLECULE
*****
 25 28 0 0 0
SMALL
GASTEIGER

@<TRIPOS>ATOM
      1 C         -24.3095   -7.4137  -11.8305 C.3     1  UNL1        0.1428
      2 O         -24.6251   -7.3078  -10.4624 O.3     1  UNL1       -0.3752
      3 C         -22.9322   -6.7432  -12.1090 C.3     1  UNL1        0.0508
      4 C         -22.2108   -7.5887  -13.1868 C.3     1  UNL1        0.0606
      5 BR        -20.4982   -8.2820  -12.5470 Br      1  UNL1       -0.0816
      6 C         -23.2437   -8.6565  -13.5617 C.3     1  UNL1        0.0141
      7 C         -22.8685   -9.9854  -14.2297 C.3     1  UNL1        0.0053
      8 C         -21.8736   -9.9085  -15.4003 C.3     1  UNL1        0.0050
      9 C         -21.6127  -11.3187  -16.0094 C.3     1  UNL1        0.0261
     10 C         -22.6228  -12.4085  -15.6403 C.ar    1  UNL1       -0.0231
     11 C         -22.3011  -13.7453  -15.9204 C.ar    1  UNL1        0.0320
     12 C         -23.1580  -14.7796  -15.5364 C.ar    1  UNL1        0.1333
     13 O         -22.8133  -16.0988  -15.8226 O.3     1  UNL1       -0.5055
     14 C         -24.3473  -14.4845  -14.8617 C.ar    1  UNL1        0.0363
     15 C         -24.6929  -13.1599  -14.5850 C.ar    1  UNL1       -0.0015
     16 C         -23.8505  -12.1076  -14.9915 C.ar    1  UNL1       -0.0263
     17 C         -24.1633  -10.6432  -14.7827 C.3     1  UNL1        0.0221
     18 C         -25.4991  -10.2069  -14.0820 C.3     1  UNL1        0.0045
     19 C         -25.3820   -9.7361  -12.6161 C.3     1  UNL1        0.0036
     20 C         -24.0961   -8.8920  -12.2884 C.3     1  UNL1        0.0341
     21 C         -23.3324   -9.6602  -11.1562 C.3     1  UNL1        0.0034
     22 H         -25.4789   -7.7942  -10.3150 H       1  UNL1        0.2114
     23 H         -23.4110  -16.8723  -15.5555 H       1  UNL1        0.2922
     24 C         -26.2074   -6.1575  -13.2659 C.1     1  UNL1       -0.0119
     25 C         -25.3579   -6.7216  -12.6226 C.1     1  UNL1       -0.0525
@<TRIPOS>BOND
     1    24    25    3
     2     1    25    1
     3     1     2    1
     4     1     3    1
     5     3     4    1
     6     4     5    1
     7     4     6    1
     8     6     7    1
     9     7     8    1
    10     8     9    1
    11     9    10    1
    12    10    11   ar
    13    11    12   ar
    14    12    13    1
    15    12    14   ar
    16    14    15   ar
    17    15    16   ar
    18    16    17    1
    19    17    18    1
    20    18    19    1
    21    19    20    1
    22    20    21    1
    23    20     1    1
    24    20     6    1
    25    17     7    1
    26    16    10   ar
    27     2    22    1
    28    13    23    1
