@<TRIPOS>MOLECULE
*****
 47 51 0 0 0
SMALL
GASTEIGER

@<TRIPOS>ATOM
      1 N         -10.1354   -9.0023   30.7661 N.am    1  UNL1       -0.2679
      2 C         -10.4675   -9.3913   32.1100 C.2     1  UNL1        0.3081
      3 O         -11.0466   -8.5714   32.8742 O.2     1  UNL1       -0.2522
      4 N         -10.1763  -10.7190   32.5874 N.am    1  UNL1       -0.2544
      5 C         -10.7169  -11.2323   33.8357 C.3     1  UNL1        0.1264
      6 C         -10.4900  -12.7527   33.8081 C.3     1  UNL1        0.1294
      7 O          -9.9979  -13.1694   35.0609 O.3     1  UNL1       -0.3808
      8 C          -9.3861  -12.9596   32.7408 C.3     1  UNL1        0.0622
      9 C          -9.4062  -11.7113   31.8494 C.3     1  UNL1        0.1562
     10 H          -9.8603   -9.7357   30.0773 H       1  UNL1        0.1564
     11 H          -9.8222  -14.1456   34.9995 H       1  UNL1        0.2107
     12 C         -11.8176  -13.4667   33.4874 C.ar    1  UNL1        0.0310
     13 C         -12.7947  -12.8801   32.6502 C.ar    1  UNL1        0.0026
     14 C         -14.0134  -13.5204   32.4114 C.ar    1  UNL1        0.0295
     15 C         -14.2967  -14.7403   33.0230 C.ar    1  UNL1        0.1424
     16 F         -15.4824  -15.3563   32.7926 F       1  UNL1       -0.2041
     17 C         -13.3679  -15.3153   33.8894 C.ar    1  UNL1        0.0590
     18 C         -12.1451  -14.6828   34.1354 C.ar    1  UNL1        0.1406
     19 F         -11.2970  -15.2523   35.0292 F       1  UNL1       -0.2044
     20 C          -9.0506   -6.9669   29.8408 C.ar    1  UNL1        0.0898
     21 C          -9.1446   -5.6024   29.5061 C.ar    1  UNL1        0.0191
     22 C         -10.3612   -4.9233   29.6109 C.ar    1  UNL1        0.0580
     23 CL        -10.4592   -3.2258   29.1786 Cl      1  UNL1       -0.0822
     24 C         -11.4988   -5.5949   30.0577 C.ar    1  UNL1        0.0127
     25 C         -11.4225   -6.9429   30.4080 C.ar    1  UNL1        0.0158
     26 C         -10.2080   -7.6437   30.3034 C.ar    1  UNL1        0.0578
     27 O          -6.6864   -7.1271   30.0697 O.2     1  UNL1       -0.2450
     28 C          -7.7521   -7.6614   29.6590 C.2     1  UNL1        0.3393
     29 O          -7.6863   -8.8876   29.0028 O.3     1  UNL1       -0.4771
     30 H          -6.8005   -9.3609   28.8704 H       1  UNL1        0.2954
     31 C          -8.0067  -11.2081   31.5680 C.2     1  UNL1        0.2454
     32 O          -7.4065  -10.5407   32.4536 O.2     1  UNL1       -0.2730
     33 N          -7.3601  -11.4212   30.3030 N.am    1  UNL1       -0.2680
     34 H          -6.6037  -10.7528   30.0318 H       1  UNL1        0.1563
     35 C          -7.6700  -12.4940   29.4004 C.ar    1  UNL1        0.1346
     36 C          -9.0036  -12.8637   29.1875 C.ar    1  UNL1        0.0406
     37 C          -9.2971  -13.8980   28.2974 C.ar    1  UNL1        0.0736
     38 C          -8.2629  -14.5490   27.6092 C.ar    1  UNL1        0.2466
     39 C          -6.9413  -14.1391   27.8407 C.ar    1  UNL1        0.1691
     40 N          -6.6813  -13.1314   28.7144 N.ar    1  UNL1       -0.2228
     41 N          -8.5524  -15.6281   26.6975 N.am    1  UNL1       -0.0841
     42 C          -8.9959  -16.8197   27.2050 C.2     1  UNL1        0.2905
     43 C          -9.2777  -17.8941   26.3591 C.2     1  UNL1        0.0758
     44 C          -9.1063  -17.7468   24.9851 C.2     1  UNL1        0.0161
     45 C          -8.6609  -16.5309   24.4711 C.2     1  UNL1        0.1156
     46 C          -8.3892  -15.4702   25.3422 C.2     1  UNL1        0.4230
     47 O          -8.0086  -14.3670   24.8623 O.2     1  UNL1       -0.2135
@<TRIPOS>BOND
     1    27    28    2
     2    28    29    1
     3    28    20    1
     4    20    21   ar
     5    21    22   ar
     6    22    23    1
     7    22    24   ar
     8    24    25   ar
     9    25    26   ar
    10    26     1    1
    11     1     2   am
    12     2     3    2
    13     2     4   am
    14     4     5    1
    15     5     6    1
    16     6     7    1
    17     6    12    1
    18    12    13   ar
    19    13    14   ar
    20    14    15   ar
    21    15    16    1
    22    15    17   ar
    23    17    18   ar
    24    18    19    1
    25     6     8    1
    26     8     9    1
    27     9    31    1
    28    31    32    2
    29    31    33   am
    30    33    35    1
    31    35    36   ar
    32    36    37   ar
    33    37    38   ar
    34    38    41    1
    35    41    42    1
    36    42    43    2
    37    43    44    1
    38    44    45    2
    39    45    46    1
    40    46    47    2
    41    38    39   ar
    42    39    40   ar
    43    26    20   ar
    44     9     4    1
    45    40    35   ar
    46    18    12   ar
    47    46    41    1
    48    29    30    1
    49     1    10    1
    50     7    11    1
    51    33    34    1
@<TRIPOS>MOLECULE
*****
 47 51 0 0 0
SMALL
GASTEIGER

@<TRIPOS>ATOM
      1 N         -10.0756   -8.8695   30.8921 N.am    1  UNL1       -0.2679
      2 C         -10.3804   -9.3372   32.2172 C.2     1  UNL1        0.3081
      3 O         -10.9333   -8.5607   33.0436 O.2     1  UNL1       -0.2522
      4 N         -10.0916  -10.6942   32.6056 N.am    1  UNL1       -0.2544
      5 C         -10.6083  -11.2784   33.8326 C.3     1  UNL1        0.1264
      6 C         -10.3975  -12.7961   33.7068 C.3     1  UNL1        0.1294
      7 O          -9.8808  -13.2931   34.9197 O.3     1  UNL1       -0.3808
      8 C          -9.3207  -12.9467   32.6029 C.3     1  UNL1        0.0622
      9 C          -9.3489  -11.6459   31.7902 C.3     1  UNL1        0.1562
     10 H          -9.8239   -9.5616   30.1534 H       1  UNL1        0.1564
     11 H          -9.7164  -14.2652   34.7947 H       1  UNL1        0.2107
     12 C         -11.7393  -13.4776   33.3746 C.ar    1  UNL1        0.0310
     13 C         -12.6807  -12.8823   32.5034 C.ar    1  UNL1        0.0026
     14 C         -13.9131  -13.4914   32.2537 C.ar    1  UNL1        0.0295
     15 C         -14.2458  -14.6874   32.8873 C.ar    1  UNL1        0.1424
     16 F         -15.4447  -15.2729   32.6461 F       1  UNL1       -0.2041
     17 C         -13.3529  -15.2689   33.7864 C.ar    1  UNL1        0.0590
     18 C         -12.1167  -14.6676   34.0436 C.ar    1  UNL1        0.1406
     19 F         -11.3049  -15.2406   34.9682 F       1  UNL1       -0.2044
     20 C         -11.3773   -6.7823   30.5386 C.ar    1  UNL1        0.0898
     21 C         -11.4208   -5.4617   30.0519 C.ar    1  UNL1        0.0191
     22 C         -10.2670   -4.8409   29.5663 C.ar    1  UNL1        0.0580
     23 CL        -10.3407   -3.1910   28.9744 Cl      1  UNL1       -0.0822
     24 C          -9.0558   -5.5319   29.5533 C.ar    1  UNL1        0.0127
     25 C          -8.9956   -6.8459   30.0176 C.ar    1  UNL1        0.0158
     26 C         -10.1452   -7.4845   30.5151 C.ar    1  UNL1        0.0578
     27 O         -13.4169   -6.6695   31.7610 O.2     1  UNL1       -0.2450
     28 C         -12.6144   -7.3808   31.0980 C.2     1  UNL1        0.3393
     29 O         -12.8870   -8.7362   30.9330 O.3     1  UNL1       -0.4771
     30 H         -13.7270   -9.1496   31.3200 H       1  UNL1        0.2954
     31 C          -7.9512  -11.1385   31.5070 C.2     1  UNL1        0.2454
     32 O          -7.3536  -10.4656   32.3901 O.2     1  UNL1       -0.2730
     33 N          -7.3038  -11.3541   30.2428 N.am    1  UNL1       -0.2680
     34 H          -6.5498  -10.6838   29.9692 H       1  UNL1        0.1563
     35 C          -7.6095  -12.4314   29.3443 C.ar    1  UNL1        0.1346
     36 C          -6.5769  -13.0824   28.6584 C.ar    1  UNL1        0.0406
     37 C          -6.8812  -14.1383   27.7978 C.ar    1  UNL1        0.0736
     38 C          -8.2110  -14.5539   27.6365 C.ar    1  UNL1        0.2466
     39 C          -9.2145  -13.8840   28.3525 C.ar    1  UNL1        0.1691
     40 N          -8.8927  -12.8571   29.1821 N.ar    1  UNL1       -0.2228
     41 N          -8.5396  -15.6344   26.7400 N.am    1  UNL1       -0.0841
     42 C          -8.9684  -16.8226   27.2680 C.2     1  UNL1        0.2905
     43 C          -9.2868  -17.8983   26.4368 C.2     1  UNL1        0.0758
     44 C          -9.1676  -17.7559   25.0568 C.2     1  UNL1        0.0161
     45 C          -8.7370  -16.5436   24.5223 C.2     1  UNL1        0.1156
     46 C          -8.4277  -15.4814   25.3790 C.2     1  UNL1        0.4230
     47 O          -8.0612  -14.3813   24.8813 O.2     1  UNL1       -0.2135
@<TRIPOS>BOND
     1    27    28    2
     2    28    29    1
     3    28    20    1
     4    20    21   ar
     5    21    22   ar
     6    22    23    1
     7    22    24   ar
     8    24    25   ar
     9    25    26   ar
    10    26     1    1
    11     1     2   am
    12     2     3    2
    13     2     4   am
    14     4     5    1
    15     5     6    1
    16     6     7    1
    17     6    12    1
    18    12    13   ar
    19    13    14   ar
    20    14    15   ar
    21    15    16    1
    22    15    17   ar
    23    17    18   ar
    24    18    19    1
    25     6     8    1
    26     8     9    1
    27     9    31    1
    28    31    32    2
    29    31    33   am
    30    33    35    1
    31    35    36   ar
    32    36    37   ar
    33    37    38   ar
    34    38    41    1
    35    41    42    1
    36    42    43    2
    37    43    44    1
    38    44    45    2
    39    45    46    1
    40    46    47    2
    41    38    39   ar
    42    39    40   ar
    43    26    20   ar
    44     9     4    1
    45    40    35   ar
    46    18    12   ar
    47    46    41    1
    48    29    30    1
    49     1    10    1
    50     7    11    1
    51    33    34    1
