@<TRIPOS>MOLECULE
*****
 37 41 0 0 0
SMALL
GASTEIGER

@<TRIPOS>ATOM
      1 C         -27.0554   -7.8089  -13.3153 C.2     1  UNL1        0.2491
      2 O         -28.0485   -8.5268  -13.0153 O.2     1  UNL1       -0.2699
      3 N         -25.7431   -8.2027  -12.8783 N.am    1  UNL1       -0.2760
      4 C         -24.9479   -7.2788  -12.0615 C.3     1  UNL1        0.0954
      5 C         -23.4488   -7.4659  -12.3355 C.3     1  UNL1        0.0399
      6 C         -22.9882   -8.9483  -12.2727 C.3     1  UNL1        0.0645
      7 C         -23.9073   -9.8054  -13.1812 C.3     1  UNL1        0.0399
      8 C         -25.3931   -9.6251  -12.8534 C.3     1  UNL1        0.0954
      9 C         -23.0299   -9.4933  -10.7980 C.3     1  UNL1        0.0474
     10 C         -21.8793   -8.9621   -9.9871 C.ar    1  UNL1        0.0188
     11 C         -20.6827   -8.6420  -10.5426 C.ar    1  UNL1        0.1512
     12 N         -19.7722   -8.3825   -9.5941 N.ar    1  UNL1       -0.1653
     13 N         -20.3632   -8.5187   -8.4091 N.ar    1  UNL1       -0.2564
     14 C         -21.6605   -8.9153   -8.6189 C.ar    1  UNL1        0.0826
     15 C         -20.4747   -8.7004  -11.9810 C.2     1  UNL1        0.2649
     16 O         -19.3381   -8.5058  -12.4870 O.2     1  UNL1       -0.2684
     17 N         -21.6065   -9.0151  -12.8053 N.am    1  UNL1       -0.3023
     18 H         -21.4510   -9.1115  -13.8348 H       1  UNL1        0.1497
     19 C         -30.2100   -3.2815  -16.0096 C.ar    1  UNL1        0.2249
     20 C         -29.1331   -2.6062  -16.5924 C.ar    1  UNL1        0.0577
     21 C         -27.8355   -3.0911  -16.4145 C.ar    1  UNL1        0.0063
     22 C         -27.6229   -4.2487  -15.6555 C.ar    1  UNL1        0.0179
     23 C         -26.3349   -4.7607  -15.4529 C.ar    1  UNL1        0.0016
     24 C         -26.1534   -5.9190  -14.6908 C.ar    1  UNL1        0.0046
     25 C         -27.2565   -6.5858  -14.1274 C.ar    1  UNL1        0.0551
     26 C         -28.5474   -6.0615  -14.3216 C.ar    1  UNL1        0.0237
     27 C         -28.7341   -4.9039  -15.0838 C.ar    1  UNL1        0.0845
     28 N         -29.9858   -4.4066  -15.2737 N.ar    1  UNL1       -0.2117
     29 C         -32.5306   -2.9471  -15.2154 C.3     1  UNL1        0.2542
     30 O         -31.5065   -2.7915  -16.1907 O.3     1  UNL1       -0.4561
     31 C         -19.5817   -8.3964   -7.1490 C.3     1  UNL1        0.0864
     32 C         -18.8504   -7.0315   -7.1296 C.3     1  UNL1        0.0244
     33 C         -18.5223   -9.5117   -7.0957 C.3     1  UNL1        0.0244
     34 C         -20.4744   -8.4538   -5.8903 C.3     1  UNL1        0.0244
     35 C         -22.6816   -9.3183   -7.5871 C.3     1  UNL1        0.1822
     36 O         -23.5548   -8.2556   -7.3333 O.3     1  UNL1       -0.3760
     37 H         -24.2338   -8.6016   -6.6975 H       1  UNL1        0.2110
@<TRIPOS>BOND
     1    29    30    1
     2    30    19    1
     3    19    20   ar
     4    20    21   ar
     5    21    22   ar
     6    22    23   ar
     7    23    24   ar
     8    24    25   ar
     9    25     1    1
    10     1     2    2
    11     1     3   am
    12     3     4    1
    13     4     5    1
    14     5     6    1
    15     6     7    1
    16     7     8    1
    17     6     9    1
    18     9    10    1
    19    10    11   ar
    20    11    12   ar
    21    12    13   ar
    22    13    31    1
    23    31    32    1
    24    31    33    1
    25    31    34    1
    26    13    14   ar
    27    14    35    1
    28    35    36    1
    29    11    15    1
    30    15    16    2
    31    15    17   am
    32    25    26   ar
    33    26    27   ar
    34    27    28   ar
    35    28    19   ar
    36    27    22   ar
    37     8     3    1
    38    14    10   ar
    39    17     6    1
    40    36    37    1
    41    17    18    1
@<TRIPOS>MOLECULE
*****
 37 41 0 0 0
SMALL
GASTEIGER

@<TRIPOS>ATOM
      1 C         -26.7630   -5.4651  -12.8907 C.2     1  UNL1        0.2491
      2 O         -27.3926   -4.8058  -12.0186 O.2     1  UNL1       -0.2699
      3 N         -25.9992   -6.6157  -12.4893 N.am    1  UNL1       -0.2760
      4 C         -24.5655   -6.6722  -12.7966 C.3     1  UNL1        0.0954
      5 C         -24.1164   -8.1228  -13.0230 C.3     1  UNL1        0.0399
      6 C         -24.5788   -9.0959  -11.9037 C.3     1  UNL1        0.0645
      7 C         -26.1061   -8.9347  -11.6886 C.3     1  UNL1        0.0399
      8 C         -26.5135   -7.4814  -11.4251 C.3     1  UNL1        0.0954
      9 C         -23.8136   -8.8177  -10.5582 C.3     1  UNL1        0.0474
     10 C         -22.4036   -9.3398  -10.6141 C.ar    1  UNL1        0.0188
     11 C         -22.0538  -10.4143  -11.3665 C.ar    1  UNL1        0.1512
     12 N         -20.7981  -10.7960  -11.0954 N.ar    1  UNL1       -0.1653
     13 N         -20.3082   -9.9714  -10.1723 N.ar    1  UNL1       -0.2564
     14 C         -21.2934   -9.0808   -9.8254 C.ar    1  UNL1        0.0826
     15 C         -23.0100  -11.0670  -12.2469 C.2     1  UNL1        0.2649
     16 O         -22.7164  -12.1249  -12.8637 O.2     1  UNL1       -0.2684
     17 N         -24.3131  -10.4782  -12.3685 N.am    1  UNL1       -0.3023
     18 H         -25.0212  -10.9731  -12.9575 H       1  UNL1        0.1497
     19 C         -29.1526   -2.7786  -17.8686 C.ar    1  UNL1        0.2249
     20 C         -28.1466   -3.1144  -18.7800 C.ar    1  UNL1        0.0577
     21 C         -27.0452   -3.8579  -18.3504 C.ar    1  UNL1        0.0063
     22 C         -26.9569   -4.2618  -17.0123 C.ar    1  UNL1        0.0179
     23 C         -25.8648   -5.0046  -16.5459 C.ar    1  UNL1        0.0016
     24 C         -25.8043   -5.3944  -15.2044 C.ar    1  UNL1        0.0046
     25 C         -26.8375   -5.0542  -14.3125 C.ar    1  UNL1        0.0551
     26 C         -27.9265   -4.2966  -14.7809 C.ar    1  UNL1        0.0237
     27 C         -27.9920   -3.9053  -16.1219 C.ar    1  UNL1        0.0845
     28 N         -29.0514   -3.1792  -16.5698 N.ar    1  UNL1       -0.2117
     29 C         -31.5084   -2.0549  -17.6359 C.3     1  UNL1        0.2542
     30 O         -30.2526   -2.0340  -18.3040 O.3     1  UNL1       -0.4561
     31 C         -18.9609  -10.2000   -9.5840 C.3     1  UNL1        0.0864
     32 C         -17.9274   -9.2993  -10.3043 C.3     1  UNL1        0.0244
     33 C         -18.5532  -11.6685   -9.7988 C.3     1  UNL1        0.0244
     34 C         -18.9034   -9.8490   -8.0813 C.3     1  UNL1        0.0244
     35 C         -21.2569   -8.0415   -8.7354 C.3     1  UNL1        0.1822
     36 O         -22.0330   -8.4566   -7.6483 O.3     1  UNL1       -0.3760
     37 H         -21.9189   -7.7640   -6.9467 H       1  UNL1        0.2110
@<TRIPOS>BOND
     1    29    30    1
     2    30    19    1
     3    19    20   ar
     4    20    21   ar
     5    21    22   ar
     6    22    23   ar
     7    23    24   ar
     8    24    25   ar
     9    25     1    1
    10     1     2    2
    11     1     3   am
    12     3     4    1
    13     4     5    1
    14     5     6    1
    15     6     7    1
    16     7     8    1
    17     6     9    1
    18     9    10    1
    19    10    11   ar
    20    11    12   ar
    21    12    13   ar
    22    13    31    1
    23    31    32    1
    24    31    33    1
    25    31    34    1
    26    13    14   ar
    27    14    35    1
    28    35    36    1
    29    11    15    1
    30    15    16    2
    31    15    17   am
    32    25    26   ar
    33    26    27   ar
    34    27    28   ar
    35    28    19   ar
    36    27    22   ar
    37     8     3    1
    38    14    10   ar
    39    17     6    1
    40    36    37    1
    41    17    18    1
@<TRIPOS>MOLECULE
*****
 37 41 0 0 0
SMALL
GASTEIGER

@<TRIPOS>ATOM
      1 C         -25.5632   -9.0145  -11.7591 C.2     1  UNL1        0.2491
      2 O         -26.2320   -9.3433  -10.7412 O.2     1  UNL1       -0.2699
      3 N         -25.8417   -7.7635  -12.4117 N.am    1  UNL1       -0.2760
      4 C         -26.2033   -7.7571  -13.8338 C.3     1  UNL1        0.0954
      5 C         -25.7194   -6.4666  -14.5103 C.3     1  UNL1        0.0399
      6 C         -26.1098   -5.1777  -13.7359 C.3     1  UNL1        0.0645
      7 C         -25.6662   -5.3190  -12.2567 C.3     1  UNL1        0.0399
      8 C         -26.2001   -6.5968  -11.6012 C.3     1  UNL1        0.0954
      9 C         -27.6592   -4.9183  -13.8104 C.3     1  UNL1        0.0474
     10 C         -28.0597   -4.3887  -15.1605 C.ar    1  UNL1        0.0188
     11 C         -27.2244   -3.6424  -15.9275 C.ar    1  UNL1        0.1512
     12 N         -27.8753   -3.1327  -16.9822 N.ar    1  UNL1       -0.1653
     13 N         -29.1391   -3.5470  -16.9244 N.ar    1  UNL1       -0.2564
     14 C         -29.2940   -4.2964  -15.7849 C.ar    1  UNL1        0.0826
     15 C         -25.8479   -3.3938  -15.5285 C.2     1  UNL1        0.2649
     16 O         -25.1057   -2.6168  -16.1851 O.2     1  UNL1       -0.2684
     17 N         -25.3705   -4.0448  -14.3420 N.am    1  UNL1       -0.3023
     18 H         -24.3995   -3.8274  -14.0210 H       1  UNL1        0.1497
     19 C         -23.1392  -13.7612  -14.8088 C.ar    1  UNL1        0.2249
     20 C         -21.7964  -13.5420  -14.4860 C.ar    1  UNL1        0.0577
     21 C         -21.4481  -12.4575  -13.6779 C.ar    1  UNL1        0.0063
     22 C         -22.4448  -11.5992  -13.1970 C.ar    1  UNL1        0.0179
     23 C         -22.1312  -10.4995  -12.3879 C.ar    1  UNL1        0.0016
     24 C         -23.1479   -9.6603  -11.9219 C.ar    1  UNL1        0.0046
     25 C         -24.4921   -9.9124  -12.2512 C.ar    1  UNL1        0.0551
     26 C         -24.8023  -11.0098  -13.0750 C.ar    1  UNL1        0.0237
     27 C         -23.7891  -11.8527  -13.5427 C.ar    1  UNL1        0.0845
     28 N         -24.0969  -12.9163  -14.3328 N.ar    1  UNL1       -0.2117
     29 C         -24.7893  -15.0289  -16.1496 C.3     1  UNL1        0.2542
     30 O         -23.4820  -14.8480  -15.6182 O.3     1  UNL1       -0.4561
     31 C         -30.1459   -3.0618  -17.9065 C.3     1  UNL1        0.0864
     32 C         -30.7440   -4.2708  -18.6675 C.3     1  UNL1        0.0244
     33 C         -29.4576   -2.1408  -18.9297 C.3     1  UNL1        0.0244
     34 C         -31.3209   -2.3199  -17.2329 C.3     1  UNL1        0.0244
     35 C         -30.5684   -4.8709  -15.2233 C.3     1  UNL1        0.1822
     36 O         -30.7164   -6.2013  -15.6287 O.3     1  UNL1       -0.3760
     37 H         -31.5350   -6.5377  -15.1797 H       1  UNL1        0.2110
@<TRIPOS>BOND
     1    29    30    1
     2    30    19    1
     3    19    20   ar
     4    20    21   ar
     5    21    22   ar
     6    22    23   ar
     7    23    24   ar
     8    24    25   ar
     9    25     1    1
    10     1     2    2
    11     1     3   am
    12     3     4    1
    13     4     5    1
    14     5     6    1
    15     6     7    1
    16     7     8    1
    17     6     9    1
    18     9    10    1
    19    10    11   ar
    20    11    12   ar
    21    12    13   ar
    22    13    31    1
    23    31    32    1
    24    31    33    1
    25    31    34    1
    26    13    14   ar
    27    14    35    1
    28    35    36    1
    29    11    15    1
    30    15    16    2
    31    15    17   am
    32    25    26   ar
    33    26    27   ar
    34    27    28   ar
    35    28    19   ar
    36    27    22   ar
    37     8     3    1
    38    14    10   ar
    39    17     6    1
    40    36    37    1
    41    17    18    1
@<TRIPOS>MOLECULE
*****
 37 41 0 0 0
SMALL
GASTEIGER

@<TRIPOS>ATOM
      1 C         -18.7619   -9.9062   -8.9535 C.2     1  UNL1        0.2491
      2 O         -17.8238  -10.1508   -9.7607 O.2     1  UNL1       -0.2699
      3 N         -20.1187   -9.8992   -9.4306 N.am    1  UNL1       -0.2760
      4 C         -20.9392   -8.6958   -9.2525 C.3     1  UNL1        0.0954
      5 C         -22.4183   -9.0691   -9.0787 C.3     1  UNL1        0.0399
      6 C         -22.9391  -10.0552  -10.1603 C.3     1  UNL1        0.0645
      7 C         -21.9854  -11.2756  -10.2374 C.3     1  UNL1        0.0399
      8 C         -20.5241  -10.8684  -10.4517 C.3     1  UNL1        0.0954
      9 C         -23.0341   -9.3570  -11.5663 C.3     1  UNL1        0.0474
     10 C         -24.2233   -8.4383  -11.6403 C.ar    1  UNL1        0.0188
     11 C         -25.3595   -8.6586  -10.9308 C.ar    1  UNL1        0.1512
     12 N         -26.3308   -7.8192  -11.3156 N.ar    1  UNL1       -0.1653
     13 N         -25.8400   -7.0339  -12.2719 N.ar    1  UNL1       -0.2564
     14 C         -24.5466   -7.4190  -12.5225 C.ar    1  UNL1        0.0826
     15 C         -25.4563   -9.7499   -9.9741 C.2     1  UNL1        0.2649
     16 O         -26.5415  -10.0186   -9.3944 O.2     1  UNL1       -0.2684
     17 N         -24.2765  -10.5303   -9.7322 N.am    1  UNL1       -0.3023
     18 H         -24.3545  -11.3490   -9.0866 H       1  UNL1        0.1497
     19 C         -18.7744   -6.8250   -3.6418 C.ar    1  UNL1        0.2249
     20 C         -18.0464   -7.7415   -2.8768 C.ar    1  UNL1        0.0577
     21 C         -17.5938   -8.9256   -3.4631 C.ar    1  UNL1        0.0063
     22 C         -17.8713   -9.1854   -4.8110 C.ar    1  UNL1        0.0179
     23 C         -17.4367  -10.3643   -5.4302 C.ar    1  UNL1        0.0016
     24 C         -17.7283  -10.5961   -6.7780 C.ar    1  UNL1        0.0046
     25 C         -18.4510   -9.6502   -7.5274 C.ar    1  UNL1        0.0551
     26 C         -18.8976   -8.4734   -6.8991 C.ar    1  UNL1        0.0237
     27 C         -18.6076   -8.2366   -5.5516 C.ar    1  UNL1        0.0845
     28 N         -19.0361   -7.0932   -4.9523 N.ar    1  UNL1       -0.2117
     29 C         -19.3068   -5.4698   -1.6399 C.3     1  UNL1        0.2542
     30 O         -19.2252   -5.6417   -3.0498 O.3     1  UNL1       -0.4561
     31 C         -26.7125   -6.0585  -12.9796 C.3     1  UNL1        0.0864
     32 C         -27.2618   -5.0290  -11.9615 C.3     1  UNL1        0.0244
     33 C         -27.9062   -6.8021  -13.6049 C.3     1  UNL1        0.0244
     34 C         -25.9545   -5.2656  -14.0666 C.3     1  UNL1        0.0244
     35 C         -23.6257   -6.9150  -13.6031 C.3     1  UNL1        0.1822
     36 O         -23.6225   -7.8013  -14.6850 O.3     1  UNL1       -0.3760
     37 H         -23.0504   -7.3855  -15.3813 H       1  UNL1        0.2110
@<TRIPOS>BOND
     1    29    30    1
     2    30    19    1
     3    19    20   ar
     4    20    21   ar
     5    21    22   ar
     6    22    23   ar
     7    23    24   ar
     8    24    25   ar
     9    25     1    1
    10     1     2    2
    11     1     3   am
    12     3     4    1
    13     4     5    1
    14     5     6    1
    15     6     7    1
    16     7     8    1
    17     6     9    1
    18     9    10    1
    19    10    11   ar
    20    11    12   ar
    21    12    13   ar
    22    13    31    1
    23    31    32    1
    24    31    33    1
    25    31    34    1
    26    13    14   ar
    27    14    35    1
    28    35    36    1
    29    11    15    1
    30    15    16    2
    31    15    17   am
    32    25    26   ar
    33    26    27   ar
    34    27    28   ar
    35    28    19   ar
    36    27    22   ar
    37     8     3    1
    38    14    10   ar
    39    17     6    1
    40    36    37    1
    41    17    18    1
@<TRIPOS>MOLECULE
*****
 37 41 0 0 0
SMALL
GASTEIGER

@<TRIPOS>ATOM
      1 C         -21.1035   -7.9541  -12.4855 C.2     1  UNL1        0.2491
      2 O         -20.1833   -8.0864  -13.3383 O.2     1  UNL1       -0.2699
      3 N         -22.4709   -7.8938  -12.9273 N.am    1  UNL1       -0.2760
      4 C         -23.2910   -6.7287  -12.5766 C.3     1  UNL1        0.0954
      5 C         -24.7645   -7.1305  -12.4197 C.3     1  UNL1        0.0399
      6 C         -25.3067   -7.9715  -13.6081 C.3     1  UNL1        0.0645
      7 C         -24.3511   -9.1657  -13.8639 C.3     1  UNL1        0.0399
      8 C         -22.8963   -8.7252  -14.0562 C.3     1  UNL1        0.0954
      9 C         -25.4361   -7.0977  -14.9093 C.3     1  UNL1        0.0474
     10 C         -26.6297   -6.1845  -14.8371 C.ar    1  UNL1        0.0188
     11 C         -27.7486   -6.5019  -14.1370 C.ar    1  UNL1        0.1512
     12 N         -28.7311   -5.6258  -14.3881 N.ar    1  UNL1       -0.1653
     13 N         -28.2650   -4.7202  -15.2453 N.ar    1  UNL1       -0.2564
     14 C         -26.9763   -5.0616  -15.5724 C.ar    1  UNL1        0.0826
     15 C         -27.8200   -7.7085  -13.3279 C.2     1  UNL1        0.2649
     16 O         -28.8908   -8.0566  -12.7639 O.2     1  UNL1       -0.2684
     17 N         -26.6324   -8.5063  -13.2155 N.am    1  UNL1       -0.3023
     18 H         -26.6930   -9.4021  -12.6799 H       1  UNL1        0.1497
     19 C         -18.4192   -9.6648   -7.2342 C.ar    1  UNL1        0.2249
     20 C         -18.9161   -8.6469   -6.4143 C.ar    1  UNL1        0.0577
     21 C         -19.7591   -7.6736   -6.9551 C.ar    1  UNL1        0.0063
     22 C         -20.1007   -7.7246   -8.3124 C.ar    1  UNL1        0.0179
     23 C         -20.9401   -6.7628   -8.8891 C.ar    1  UNL1        0.0016
     24 C         -21.2643   -6.8400  -10.2472 C.ar    1  UNL1        0.0046
     25 C         -20.7609   -7.8831  -11.0456 C.ar    1  UNL1        0.0551
     26 C         -19.9074   -8.8397  -10.4663 C.ar    1  UNL1        0.0237
     27 C         -19.5810   -8.7674   -9.1084 C.ar    1  UNL1        0.0845
     28 N         -18.7612   -9.7000   -8.5532 N.ar    1  UNL1       -0.2117
     29 C         -17.1573  -10.6144   -5.3281 C.3     1  UNL1        0.2542
     30 O         -17.5756  -10.6361   -6.6877 O.3     1  UNL1       -0.4561
     31 C         -29.1566   -3.6668  -15.8010 C.3     1  UNL1        0.0864
     32 C         -29.8422   -4.1993  -17.0834 C.3     1  UNL1        0.0244
     33 C         -28.3155   -2.4348  -16.1801 C.3     1  UNL1        0.0244
     34 C         -30.2773   -3.2608  -14.8192 C.3     1  UNL1        0.0244
     35 C         -26.0820   -4.4162  -16.5988 C.3     1  UNL1        0.1822
     36 O         -26.4179   -4.8649  -17.8802 O.3     1  UNL1       -0.3760
     37 H         -25.8394   -4.3611  -18.5099 H       1  UNL1        0.2110
@<TRIPOS>BOND
     1    29    30    1
     2    30    19    1
     3    19    20   ar
     4    20    21   ar
     5    21    22   ar
     6    22    23   ar
     7    23    24   ar
     8    24    25   ar
     9    25     1    1
    10     1     2    2
    11     1     3   am
    12     3     4    1
    13     4     5    1
    14     5     6    1
    15     6     7    1
    16     7     8    1
    17     6     9    1
    18     9    10    1
    19    10    11   ar
    20    11    12   ar
    21    12    13   ar
    22    13    31    1
    23    31    32    1
    24    31    33    1
    25    31    34    1
    26    13    14   ar
    27    14    35    1
    28    35    36    1
    29    11    15    1
    30    15    16    2
    31    15    17   am
    32    25    26   ar
    33    26    27   ar
    34    27    28   ar
    35    28    19   ar
    36    27    22   ar
    37     8     3    1
    38    14    10   ar
    39    17     6    1
    40    36    37    1
    41    17    18    1
@<TRIPOS>MOLECULE
*****
 37 41 0 0 0
SMALL
GASTEIGER

@<TRIPOS>ATOM
      1 C         -26.0155   -8.1222  -11.9373 C.2     1  UNL1        0.2491
      2 O         -27.0395   -8.7470  -11.5468 O.2     1  UNL1       -0.2699
      3 N         -24.7218   -8.5099  -11.4428 N.am    1  UNL1       -0.2760
      4 C         -23.8856   -7.5185  -10.7565 C.3     1  UNL1        0.0954
      5 C         -22.3966   -7.8079  -10.9938 C.3     1  UNL1        0.0399
      6 C         -22.0027   -9.2865  -10.7248 C.3     1  UNL1        0.0645
      7 C         -22.9598  -10.2190  -11.5118 C.3     1  UNL1        0.0399
      8 C         -24.4358   -9.9295  -11.2203 C.3     1  UNL1        0.0954
      9 C         -22.0679   -9.6207   -9.1894 C.3     1  UNL1        0.0474
     10 C         -20.8943   -9.0343   -8.4529 C.ar    1  UNL1        0.0188
     11 C         -19.6848   -8.8474   -9.0405 C.ar    1  UNL1        0.1512
     12 N         -18.7631   -8.5003   -8.1317 N.ar    1  UNL1       -0.1653
     13 N         -19.3590   -8.4455   -6.9425 N.ar    1  UNL1       -0.2564
     14 C         -20.6728   -8.8092   -7.1030 C.ar    1  UNL1        0.0826
     15 C         -19.4805   -9.1127  -10.4559 C.2     1  UNL1        0.2649
     16 O         -18.3366   -9.0403  -10.9775 O.2     1  UNL1       -0.2684
     17 N         -20.6257   -9.4874  -11.2354 N.am    1  UNL1       -0.3023
     18 H         -20.4752   -9.7316  -12.2409 H       1  UNL1        0.1497
     19 C         -25.2636   -5.1549  -17.2606 C.ar    1  UNL1        0.2249
     20 C         -25.9928   -4.0022  -16.9522 C.ar    1  UNL1        0.0577
     21 C         -26.5959   -3.8809  -15.6984 C.ar    1  UNL1        0.0063
     22 C         -26.4656   -4.9127  -14.7604 C.ar    1  UNL1        0.0179
     23 C         -27.0606   -4.8267  -13.4952 C.ar    1  UNL1        0.0016
     24 C         -26.9127   -5.8726  -12.5790 C.ar    1  UNL1        0.0046
     25 C         -26.1620   -7.0150  -12.9112 C.ar    1  UNL1        0.0551
     26 C         -25.5769   -7.1042  -14.1874 C.ar    1  UNL1        0.0237
     27 C         -25.7212   -6.0603  -15.1069 C.ar    1  UNL1        0.0845
     28 N         -25.1466   -6.1499  -16.3365 N.ar    1  UNL1       -0.2117
     29 C         -25.1642   -6.1311  -19.5332 C.3     1  UNL1        0.2542
     30 O         -24.6624   -5.2710  -18.5171 O.3     1  UNL1       -0.4561
     31 C         -18.5721   -8.1855   -5.7069 C.3     1  UNL1        0.0864
     32 C         -17.5358   -7.0687   -5.9845 C.3     1  UNL1        0.0244
     33 C         -17.8099   -9.4623   -5.3097 C.3     1  UNL1        0.0244
     34 C         -19.4538   -7.7084   -4.5324 C.3     1  UNL1        0.0244
     35 C         -21.7103   -9.0204   -6.0313 C.3     1  UNL1        0.1822
     36 O         -22.9692   -8.6253   -6.4954 O.3     1  UNL1       -0.3760
     37 H         -23.6120   -8.8450   -5.7719 H       1  UNL1        0.2110
@<TRIPOS>BOND
     1    29    30    1
     2    30    19    1
     3    19    20   ar
     4    20    21   ar
     5    21    22   ar
     6    22    23   ar
     7    23    24   ar
     8    24    25   ar
     9    25     1    1
    10     1     2    2
    11     1     3   am
    12     3     4    1
    13     4     5    1
    14     5     6    1
    15     6     7    1
    16     7     8    1
    17     6     9    1
    18     9    10    1
    19    10    11   ar
    20    11    12   ar
    21    12    13   ar
    22    13    31    1
    23    31    32    1
    24    31    33    1
    25    31    34    1
    26    13    14   ar
    27    14    35    1
    28    35    36    1
    29    11    15    1
    30    15    16    2
    31    15    17   am
    32    25    26   ar
    33    26    27   ar
    34    27    28   ar
    35    28    19   ar
    36    27    22   ar
    37     8     3    1
    38    14    10   ar
    39    17     6    1
    40    36    37    1
    41    17    18    1
@<TRIPOS>MOLECULE
*****
 37 41 0 0 0
SMALL
GASTEIGER

@<TRIPOS>ATOM
      1 C         -22.1230   -8.3891   -8.4761 C.2     1  UNL1        0.2491
      2 O         -23.2033   -8.1937   -7.8547 O.2     1  UNL1       -0.2699
      3 N         -22.1217   -8.3602   -9.9140 N.am    1  UNL1       -0.2760
      4 C         -21.6434   -9.5310  -10.6581 C.3     1  UNL1        0.0954
      5 C         -20.9998   -9.1041  -11.9850 C.3     1  UNL1        0.0399
      6 C         -21.8772   -8.1242  -12.8116 C.3     1  UNL1        0.0645
      7 C         -22.3051   -6.9388  -11.9080 C.3     1  UNL1        0.0399
      8 C         -22.9800   -7.3998  -10.6121 C.3     1  UNL1        0.0954
      9 C         -23.1490   -8.8486  -13.3869 C.3     1  UNL1        0.0474
     10 C         -22.7948   -9.7279  -14.5553 C.ar    1  UNL1        0.0188
     11 C         -21.7553   -9.4540  -15.3844 C.ar    1  UNL1        0.1512
     12 N         -21.7689  -10.2680  -16.4489 N.ar    1  UNL1       -0.1653
     13 N         -22.8089  -11.0897  -16.3245 N.ar    1  UNL1       -0.2564
     14 C         -23.4870  -10.7542  -15.1792 C.ar    1  UNL1        0.0826
     15 C         -20.8556   -8.3399  -15.1299 C.2     1  UNL1        0.2649
     16 O         -19.9570   -8.0222  -15.9529 O.2     1  UNL1       -0.2684
     17 N         -21.0442   -7.5950  -13.9178 N.am    1  UNL1       -0.3023
     18 H         -20.4354   -6.7606  -13.7559 H       1  UNL1        0.1497
     19 C         -18.4563   -8.5120   -3.5519 C.ar    1  UNL1        0.2249
     20 C         -17.3102   -9.0240   -4.1682 C.ar    1  UNL1        0.0577
     21 C         -17.3326   -9.3180   -5.5333 C.ar    1  UNL1        0.0063
     22 C         -18.5006   -9.0975   -6.2740 C.ar    1  UNL1        0.0179
     23 C         -18.5600   -9.3850   -7.6436 C.ar    1  UNL1        0.0016
     24 C         -19.7400   -9.1537   -8.3573 C.ar    1  UNL1        0.0046
     25 C         -20.8740   -8.6250   -7.7144 C.ar    1  UNL1        0.0551
     26 C         -20.8153   -8.3500   -6.3360 C.ar    1  UNL1        0.0237
     27 C         -19.6371   -8.5786   -5.6181 C.ar    1  UNL1        0.0845
     28 N         -19.5850   -8.3035   -4.2870 N.ar    1  UNL1       -0.2117
     29 C         -19.0039   -7.0389   -1.6395 C.3     1  UNL1        0.2542
     30 O         -18.4283   -8.2199   -2.1853 O.3     1  UNL1       -0.4561
     31 C         -23.1554  -12.0498  -17.4069 C.3     1  UNL1        0.0864
     32 C         -21.9206  -12.9273  -17.7287 C.3     1  UNL1        0.0244
     33 C         -23.5368  -11.2698  -18.6777 C.3     1  UNL1        0.0244
     34 C         -24.3019  -13.0042  -17.0075 C.3     1  UNL1        0.0244
     35 C         -24.7957  -11.3120  -14.6837 C.3     1  UNL1        0.1822
     36 O         -24.5911  -12.0563  -13.5174 O.3     1  UNL1       -0.3760
     37 H         -25.4905  -12.3421  -13.2104 H       1  UNL1        0.2110
@<TRIPOS>BOND
     1    29    30    1
     2    30    19    1
     3    19    20   ar
     4    20    21   ar
     5    21    22   ar
     6    22    23   ar
     7    23    24   ar
     8    24    25   ar
     9    25     1    1
    10     1     2    2
    11     1     3   am
    12     3     4    1
    13     4     5    1
    14     5     6    1
    15     6     7    1
    16     7     8    1
    17     6     9    1
    18     9    10    1
    19    10    11   ar
    20    11    12   ar
    21    12    13   ar
    22    13    31    1
    23    31    32    1
    24    31    33    1
    25    31    34    1
    26    13    14   ar
    27    14    35    1
    28    35    36    1
    29    11    15    1
    30    15    16    2
    31    15    17   am
    32    25    26   ar
    33    26    27   ar
    34    27    28   ar
    35    28    19   ar
    36    27    22   ar
    37     8     3    1
    38    14    10   ar
    39    17     6    1
    40    36    37    1
    41    17    18    1
@<TRIPOS>MOLECULE
*****
 37 41 0 0 0
SMALL
GASTEIGER

@<TRIPOS>ATOM
      1 C         -20.5192   -9.8067  -10.7474 C.2     1  UNL1        0.2491
      2 O         -19.8321  -10.6411  -11.3978 O.2     1  UNL1       -0.2699
      3 N         -21.7929   -9.3855  -11.2659 N.am    1  UNL1       -0.2760
      4 C         -22.0394   -7.9581  -11.5004 C.3     1  UNL1        0.0954
      5 C         -23.5227   -7.6224  -11.2895 C.3     1  UNL1        0.0399
      6 C         -24.4872   -8.5796  -12.0425 C.3     1  UNL1        0.0645
      7 C         -24.1176  -10.0464  -11.7007 C.3     1  UNL1        0.0399
      8 C         -22.6402  -10.3576  -11.9613 C.3     1  UNL1        0.0954
      9 C         -24.4113   -8.3540  -13.5971 C.3     1  UNL1        0.0474
     10 C         -25.1300   -7.0957  -14.0018 C.ar    1  UNL1        0.0188
     11 C         -26.1937   -6.6102  -13.3120 C.ar    1  UNL1        0.1512
     12 N         -26.7723   -5.6015  -13.9782 N.ar    1  UNL1       -0.1653
     13 N         -26.0895   -5.4080  -15.1045 N.ar    1  UNL1       -0.2564
     14 C         -25.0880   -6.3446  -15.1662 C.ar    1  UNL1        0.0826
     15 C         -26.6411   -7.2292  -12.0742 C.2     1  UNL1        0.2649
     16 O         -27.6888   -6.8446  -11.4908 O.2     1  UNL1       -0.2684
     17 N         -25.8608   -8.3147  -11.5523 N.am    1  UNL1       -0.3023
     18 H         -26.2075   -8.7981  -10.6925 H       1  UNL1        0.1497
     19 C         -17.2303   -9.8396   -5.5619 C.ar    1  UNL1        0.2249
     20 C         -17.6344   -8.5985   -5.0604 C.ar    1  UNL1        0.0577
     21 C         -18.5407   -7.8220   -5.7858 C.ar    1  UNL1        0.0063
     22 C         -19.0380   -8.2918   -7.0078 C.ar    1  UNL1        0.0179
     23 C         -19.9448   -7.5379   -7.7637 C.ar    1  UNL1        0.0016
     24 C         -20.4247   -8.0332   -8.9801 C.ar    1  UNL1        0.0046
     25 C         -20.0114   -9.2916   -9.4541 C.ar    1  UNL1        0.0551
     26 C         -19.0903  -10.0403   -8.6991 C.ar    1  UNL1        0.0237
     27 C         -18.6082   -9.5496   -7.4814 C.ar    1  UNL1        0.0845
     28 N         -17.7235  -10.2822   -6.7530 N.ar    1  UNL1       -0.2117
     29 C         -15.1067  -11.0997   -5.3869 C.3     1  UNL1        0.2542
     30 O         -16.3227  -10.6124   -4.8319 O.3     1  UNL1       -0.4561
     31 C         -26.5507   -4.4179  -16.1148 C.3     1  UNL1        0.0864
     32 C         -25.9162   -3.0389  -15.8082 C.3     1  UNL1        0.0244
     33 C         -28.0806   -4.2748  -16.0271 C.3     1  UNL1        0.0244
     34 C         -26.1365   -4.8015  -17.5521 C.3     1  UNL1        0.0244
     35 C         -24.1375   -6.6068  -16.3053 C.3     1  UNL1        0.1822
     36 O         -23.0284   -7.3275  -15.8507 O.3     1  UNL1       -0.3760
     37 H         -22.4760   -7.5196  -16.6524 H       1  UNL1        0.2110
@<TRIPOS>BOND
     1    29    30    1
     2    30    19    1
     3    19    20   ar
     4    20    21   ar
     5    21    22   ar
     6    22    23   ar
     7    23    24   ar
     8    24    25   ar
     9    25     1    1
    10     1     2    2
    11     1     3   am
    12     3     4    1
    13     4     5    1
    14     5     6    1
    15     6     7    1
    16     7     8    1
    17     6     9    1
    18     9    10    1
    19    10    11   ar
    20    11    12   ar
    21    12    13   ar
    22    13    31    1
    23    31    32    1
    24    31    33    1
    25    31    34    1
    26    13    14   ar
    27    14    35    1
    28    35    36    1
    29    11    15    1
    30    15    16    2
    31    15    17   am
    32    25    26   ar
    33    26    27   ar
    34    27    28   ar
    35    28    19   ar
    36    27    22   ar
    37     8     3    1
    38    14    10   ar
    39    17     6    1
    40    36    37    1
    41    17    18    1
@<TRIPOS>MOLECULE
*****
 37 41 0 0 0
SMALL
GASTEIGER

@<TRIPOS>ATOM
      1 C         -26.5212   -5.3703  -13.0883 C.2     1  UNL1        0.2491
      2 O         -27.1355   -4.6631  -12.2433 O.2     1  UNL1       -0.2699
      3 N         -25.8008   -6.5331  -12.6440 N.am    1  UNL1       -0.2760
      4 C         -24.3673   -6.6479  -12.9353 C.3     1  UNL1        0.0954
      5 C         -23.9662   -8.1193  -13.1123 C.3     1  UNL1        0.0399
      6 C         -24.4715   -9.0406  -11.9680 C.3     1  UNL1        0.0645
      7 C         -25.9942   -8.8209  -11.7730 C.3     1  UNL1        0.0399
      8 C         -26.3539   -7.3471  -11.5587 C.3     1  UNL1        0.0954
      9 C         -23.7091   -8.7467  -10.6243 C.3     1  UNL1        0.0474
     10 C         -22.3174   -9.3178  -10.6501 C.ar    1  UNL1        0.0188
     11 C         -21.9980  -10.4266  -11.3654 C.ar    1  UNL1        0.1512
     12 N         -20.7586  -10.8422  -11.0703 N.ar    1  UNL1       -0.1653
     13 N         -20.2488  -10.0062  -10.1683 N.ar    1  UNL1       -0.2564
     14 C         -21.2059   -9.0722   -9.8589 C.ar    1  UNL1        0.0826
     15 C         -22.9683  -11.0737  -12.2345 C.2     1  UNL1        0.2649
     16 O         -22.7057  -12.1597  -12.8154 O.2     1  UNL1       -0.2684
     17 N         -24.2493  -10.4451  -12.3871 N.am    1  UNL1       -0.3023
     18 H         -24.9687  -10.9337  -12.9674 H       1  UNL1        0.1497
     19 C         -25.2428   -5.8302  -19.0768 C.ar    1  UNL1        0.2249
     20 C         -25.9970   -4.7421  -19.5269 C.ar    1  UNL1        0.0577
     21 C         -26.7209   -3.9766  -18.6100 C.ar    1  UNL1        0.0063
     22 C         -26.6854   -4.3035  -17.2486 C.ar    1  UNL1        0.0179
     23 C         -27.4023   -3.5605  -16.3020 C.ar    1  UNL1        0.0016
     24 C         -27.3472   -3.9102  -14.9492 C.ar    1  UNL1        0.0046
     25 C         -26.5691   -5.0018  -14.5228 C.ar    1  UNL1        0.0551
     26 C         -25.8610   -5.7541  -15.4776 C.ar    1  UNL1        0.0237
     27 C         -25.9122   -5.4077  -16.8316 C.ar    1  UNL1        0.0845
     28 N         -25.2191   -6.1350  -17.7485 N.ar    1  UNL1       -0.2117
     29 C         -25.0897   -7.6911  -20.7020 C.3     1  UNL1        0.2542
     30 O         -24.5205   -6.5930  -19.9989 O.3     1  UNL1       -0.4561
     31 C         -18.9154  -10.2619   -9.5600 C.3     1  UNL1        0.0864
     32 C         -17.8545   -9.3765  -10.2591 C.3     1  UNL1        0.0244
     33 C         -18.5307  -11.7365   -9.7760 C.3     1  UNL1        0.0244
     34 C         -18.8755   -9.9195   -8.0547 C.3     1  UNL1        0.0244
     35 C         -21.1435   -8.0012   -8.8012 C.3     1  UNL1        0.1822
     36 O         -21.9382   -8.3581   -7.7071 O.3     1  UNL1       -0.3760
     37 H         -21.8067   -7.6480   -7.0264 H       1  UNL1        0.2110
@<TRIPOS>BOND
     1    29    30    1
     2    30    19    1
     3    19    20   ar
     4    20    21   ar
     5    21    22   ar
     6    22    23   ar
     7    23    24   ar
     8    24    25   ar
     9    25     1    1
    10     1     2    2
    11     1     3   am
    12     3     4    1
    13     4     5    1
    14     5     6    1
    15     6     7    1
    16     7     8    1
    17     6     9    1
    18     9    10    1
    19    10    11   ar
    20    11    12   ar
    21    12    13   ar
    22    13    31    1
    23    31    32    1
    24    31    33    1
    25    31    34    1
    26    13    14   ar
    27    14    35    1
    28    35    36    1
    29    11    15    1
    30    15    16    2
    31    15    17   am
    32    25    26   ar
    33    26    27   ar
    34    27    28   ar
    35    28    19   ar
    36    27    22   ar
    37     8     3    1
    38    14    10   ar
    39    17     6    1
    40    36    37    1
    41    17    18    1
