@<TRIPOS>MOLECULE
*****
 48 54 0 0 0
SMALL
GASTEIGER

@<TRIPOS>ATOM
      1 N          63.4572   87.5071   13.6262 N.am    1  UNL1       -0.0905
      2 C          64.1021   87.5930   14.8418 C.2     1  UNL1        0.4229
      3 O          63.9815   86.6795   15.7055 O.2     1  UNL1       -0.2135
      4 C          64.8718   88.7056   15.1676 C.2     1  UNL1        0.1157
      5 C          64.9373   89.7744   14.2928 C.2     1  UNL1        0.0173
      6 C          64.2991   89.7002   13.0556 C.ar    1  UNL1        0.0828
      7 C          64.3066   90.8152   12.2137 C.ar    1  UNL1        0.1047
      8 N          63.6858   90.7686   11.0147 N.ar    1  UNL1       -0.2434
      9 C          63.1052   89.6369   10.5487 C.ar    1  UNL1        0.0870
     10 C          62.5225   89.6579    9.2787 C.ar    1  UNL1        0.0193
     11 C          61.9937   88.4955    8.7266 C.ar    1  UNL1        0.0016
     12 C          62.1033   87.2769    9.4082 C.ar    1  UNL1        0.0018
     13 C          62.7205   87.2512   10.6721 C.ar    1  UNL1        0.0075
     14 C          63.1271   88.4431   11.3198 C.ar    1  UNL1        0.0810
     15 C          63.6248   88.5079   12.6704 C.ar    1  UNL1        0.2297
     16 C          61.5384   86.0365    8.8183 C.ar    1  UNL1        0.0192
     17 C          60.6352   86.1098    7.7434 C.ar    1  UNL1        0.0988
     18 N          60.0701   84.9821    7.2386 N.ar    1  UNL1       -0.2438
     19 C          60.3536   83.7517    7.7395 C.ar    1  UNL1        0.0810
     20 C          59.7225   82.6201    7.2132 C.ar    1  UNL1        0.0148
     21 C          59.9760   81.3469    7.7531 C.ar    1  UNL1       -0.0210
     22 C          60.8881   81.2252    8.8199 C.ar    1  UNL1       -0.0042
     23 C          61.5313   82.3522    9.3393 C.ar    1  UNL1        0.0012
     24 C          61.2636   83.6206    8.8082 C.ar    1  UNL1        0.0177
     25 C          61.8556   84.7719    9.3427 C.ar    1  UNL1        0.0030
     26 C          59.2526   80.1335    7.1994 C.3     1  UNL1        0.0224
     27 C          59.6922   79.8394    5.7601 C.3     1  UNL1        0.0047
     28 C          57.7316   80.3063    7.2879 C.3     1  UNL1        0.0047
     29 C          60.5954   84.3994   13.0628 C.ar    1  UNL1        0.0522
     30 C          60.1863   85.7379   13.1724 C.ar    1  UNL1        0.0206
     31 C          61.1164   86.7512   13.4013 C.ar    1  UNL1        0.0703
     32 C          62.4817   86.4494   13.4843 C.ar    1  UNL1        0.2271
     33 C          62.8956   85.1095   13.4131 C.ar    1  UNL1        0.0742
     34 C          61.9644   84.0694   13.2382 C.ar    1  UNL1        0.0906
     35 C          58.1648   79.7189   11.1588 C.2     1  UNL1        0.2257
     36 O          57.2655   79.6939   10.2731 O.2     1  UNL1       -0.2749
     37 N          58.5445   80.9795   11.7548 N.am    1  UNL1       -0.2760
     38 C          59.2876   80.9949   13.0264 C.3     1  UNL1        0.1148
     39 C          59.2485   82.3723   13.6848 C.3     1  UNL1        0.1123
     40 N          59.6198   83.4021   12.7111 N.pl3   1  UNL1       -0.3041
     41 C          59.0731   83.3645   11.3484 C.3     1  UNL1        0.1123
     42 C          58.0405   82.2407   11.1845 C.3     1  UNL1        0.1148
     43 C          60.1927   78.2082   11.1055 C.3     1  UNL1        0.0101
     44 C          58.7733   78.4183   11.6301 C.3     1  UNL1        0.0853
     45 C          62.4616   82.6394   13.1819 C.3     1  UNL1        0.4199
     46 F          61.9447   81.9805   12.0792 F       1  UNL1       -0.1658
     47 F          62.0643   81.9667   14.3223 F       1  UNL1       -0.1658
     48 F          63.8408   82.6014   13.0809 F       1  UNL1       -0.1658
@<TRIPOS>BOND
     1    43    44    1
     2    44    35    1
     3    35    36    2
     4    35    37   am
     5    37    38    1
     6    38    39    1
     7    39    40    1
     8    40    29    1
     9    29    30   ar
    10    30    31   ar
    11    31    32   ar
    12    32     1    1
    13     1     2    1
    14     2     3    2
    15     2     4    1
    16     4     5    2
    17     5     6    1
    18     6     7   ar
    19     7     8   ar
    20     8     9   ar
    21     9    10   ar
    22    10    11   ar
    23    11    12   ar
    24    12    16    1
    25    16    17   ar
    26    17    18   ar
    27    18    19   ar
    28    19    20   ar
    29    20    21   ar
    30    21    26    1
    31    26    27    1
    32    26    28    1
    33    21    22   ar
    34    22    23   ar
    35    23    24   ar
    36    24    25   ar
    37    12    13   ar
    38    13    14   ar
    39    14    15   ar
    40    32    33   ar
    41    33    34   ar
    42    34    45    1
    43    45    46    1
    44    45    47    1
    45    45    48    1
    46    40    41    1
    47    41    42    1
    48    42    37    1
    49    34    29   ar
    50    15     1    1
    51    15     6   ar
    52    14     9   ar
    53    25    16   ar
    54    24    19   ar
@<TRIPOS>MOLECULE
*****
 48 54 0 0 0
SMALL
GASTEIGER

@<TRIPOS>ATOM
      1 N          63.3736   89.1248   10.7308 N.am    1  UNL1       -0.0905
      2 C          63.5075   90.2266    9.9127 C.2     1  UNL1        0.4229
      3 O          63.0679   90.2121    8.7289 O.2     1  UNL1       -0.2135
      4 C          64.1651   91.3709   10.3538 C.2     1  UNL1        0.1157
      5 C          64.7561   91.3837   11.6038 C.2     1  UNL1        0.0173
      6 C          64.6223   90.2818   12.4473 C.ar    1  UNL1        0.0828
      7 C          65.2889   90.2750   13.6751 C.ar    1  UNL1        0.1047
      8 N          65.1813   89.2134   14.5037 N.ar    1  UNL1       -0.2434
      9 C          64.3764   88.1604   14.2230 C.ar    1  UNL1        0.0870
     10 C          64.2854   87.1213   15.1528 C.ar    1  UNL1        0.0193
     11 C          63.4049   86.0644   14.9448 C.ar    1  UNL1        0.0016
     12 C          62.5488   86.0666   13.8363 C.ar    1  UNL1        0.0018
     13 C          62.6178   87.1306   12.9187 C.ar    1  UNL1        0.0075
     14 C          63.6093   88.1360   13.0266 C.ar    1  UNL1        0.0810
     15 C          63.8358   89.1663   12.0453 C.ar    1  UNL1        0.2297
     16 C          61.6092   84.9380   13.6148 C.ar    1  UNL1        0.0192
     17 C          60.2518   85.0675   13.9575 C.ar    1  UNL1        0.0988
     18 N          59.4002   84.0189   13.8120 N.ar    1  UNL1       -0.2438
     19 C          59.8159   82.8188   13.3305 C.ar    1  UNL1        0.0810
     20 C          58.9135   81.7551   13.2300 C.ar    1  UNL1        0.0148
     21 C          59.3433   80.4965   12.7739 C.ar    1  UNL1       -0.0210
     22 C          60.6917   80.3271   12.4028 C.ar    1  UNL1       -0.0042
     23 C          61.5934   81.3917   12.4886 C.ar    1  UNL1        0.0012
     24 C          61.1638   82.6395   12.9585 C.ar    1  UNL1        0.0177
     25 C          62.0571   83.7087   13.1022 C.ar    1  UNL1        0.0030
     26 C          58.3624   79.3407   12.7095 C.3     1  UNL1        0.0224
     27 C          58.7049   78.2689   13.7513 C.3     1  UNL1        0.0047
     28 C          58.3031   78.7414   11.2994 C.3     1  UNL1        0.0047
     29 C          62.0749   85.4548    8.9961 C.ar    1  UNL1        0.0522
     30 C          63.3268   85.9985    8.6672 C.ar    1  UNL1        0.0206
     31 C          63.7350   87.2211    9.1990 C.ar    1  UNL1        0.0703
     32 C          62.9141   87.9055   10.1043 C.ar    1  UNL1        0.2271
     33 C          61.6453   87.3874   10.4098 C.ar    1  UNL1        0.0742
     34 C          61.1952   86.1830    9.8385 C.ar    1  UNL1        0.0906
     35 C          59.4198   80.6044    8.0666 C.2     1  UNL1        0.2257
     36 O          59.9060   79.4672    8.3201 O.2     1  UNL1       -0.2749
     37 N          60.2727   81.7704    8.1076 N.am    1  UNL1       -0.2760
     38 C          59.8398   83.0185    7.4563 C.3     1  UNL1        0.1148
     39 C          61.0055   83.9857    7.2617 C.3     1  UNL1        0.1123
     40 N          61.7427   84.1389    8.5185 N.pl3   1  UNL1       -0.3041
     41 C          62.0597   82.9630    9.3393 C.3     1  UNL1        0.1123
     42 C          61.6394   81.6597    8.6459 C.3     1  UNL1        0.1148
     43 C          57.6700   79.9570    6.3588 C.3     1  UNL1        0.0101
     44 C          57.9703   80.7121    7.6526 C.3     1  UNL1        0.0853
     45 C          59.8121   85.6744   10.1901 C.3     1  UNL1        0.4199
     46 F          59.8636   84.3567   10.6122 F       1  UNL1       -0.1658
     47 F          58.9958   85.7480    9.0769 F       1  UNL1       -0.1658
     48 F          59.2600   86.4192   11.2169 F       1  UNL1       -0.1658
@<TRIPOS>BOND
     1    43    44    1
     2    44    35    1
     3    35    36    2
     4    35    37   am
     5    37    38    1
     6    38    39    1
     7    39    40    1
     8    40    29    1
     9    29    30   ar
    10    30    31   ar
    11    31    32   ar
    12    32     1    1
    13     1     2    1
    14     2     3    2
    15     2     4    1
    16     4     5    2
    17     5     6    1
    18     6     7   ar
    19     7     8   ar
    20     8     9   ar
    21     9    10   ar
    22    10    11   ar
    23    11    12   ar
    24    12    16    1
    25    16    17   ar
    26    17    18   ar
    27    18    19   ar
    28    19    20   ar
    29    20    21   ar
    30    21    26    1
    31    26    27    1
    32    26    28    1
    33    21    22   ar
    34    22    23   ar
    35    23    24   ar
    36    24    25   ar
    37    12    13   ar
    38    13    14   ar
    39    14    15   ar
    40    32    33   ar
    41    33    34   ar
    42    34    45    1
    43    45    46    1
    44    45    47    1
    45    45    48    1
    46    40    41    1
    47    41    42    1
    48    42    37    1
    49    34    29   ar
    50    15     1    1
    51    15     6   ar
    52    14     9   ar
    53    25    16   ar
    54    24    19   ar
@<TRIPOS>MOLECULE
*****
 48 54 0 0 0
SMALL
GASTEIGER

@<TRIPOS>ATOM
      1 N          59.0107   81.0147   11.1295 N.am    1  UNL1       -0.0905
      2 C          58.3093   80.1099   11.8979 C.2     1  UNL1        0.4229
      3 O          58.3003   80.1990   13.1576 O.2     1  UNL1       -0.2135
      4 C          57.6244   79.0503   11.3108 C.2     1  UNL1        0.1157
      5 C          57.7026   78.8561    9.9441 C.2     1  UNL1        0.0173
      6 C          58.3996   79.7668    9.1513 C.ar    1  UNL1        0.0828
      7 C          58.5377   79.5179    7.7834 C.ar    1  UNL1        0.1047
      8 N          59.2176   80.3819    6.9983 N.ar    1  UNL1       -0.2434
      9 C          59.7207   81.5453    7.4764 C.ar    1  UNL1        0.0870
     10 C          60.3727   82.4067    6.5899 C.ar    1  UNL1        0.0193
     11 C          60.8263   83.6495    7.0202 C.ar    1  UNL1        0.0016
     12 C          60.5713   84.0800    8.3284 C.ar    1  UNL1        0.0018
     13 C          59.8849   83.2252    9.2100 C.ar    1  UNL1        0.0075
     14 C          59.5502   81.8992    8.8424 C.ar    1  UNL1        0.0810
     15 C          58.9859   80.9224    9.7388 C.ar    1  UNL1        0.2297
     16 C          61.0560   85.4067    8.7871 C.ar    1  UNL1        0.0192
     17 C          61.0042   86.5171    7.9264 C.ar    1  UNL1        0.0988
     18 N          61.5003   87.7192    8.3199 N.ar    1  UNL1       -0.2438
     19 C          62.0547   87.8993    9.5468 C.ar    1  UNL1        0.0810
     20 C          62.5854   89.1446    9.8983 C.ar    1  UNL1        0.0148
     21 C          63.2003   89.3299   11.1491 C.ar    1  UNL1       -0.0210
     22 C          63.2584   88.2483   12.0499 C.ar    1  UNL1       -0.0042
     23 C          62.7167   87.0061   11.7076 C.ar    1  UNL1        0.0012
     24 C          62.1190   86.8222   10.4541 C.ar    1  UNL1        0.0177
     25 C          61.6136   85.5749   10.0660 C.ar    1  UNL1        0.0030
     26 C          63.8086   90.6748   11.5002 C.3     1  UNL1        0.0224
     27 C          64.4520   91.3265   10.2704 C.3     1  UNL1        0.0047
     28 C          64.8174   90.5447   12.6477 C.3     1  UNL1        0.0047
     29 C          61.5401   83.6447   13.3317 C.ar    1  UNL1        0.0522
     30 C          60.4173   84.1373   12.6479 C.ar    1  UNL1        0.0206
     31 C          59.6138   83.2859   11.8903 C.ar    1  UNL1        0.0703
     32 C          59.8950   81.9149   11.8352 C.ar    1  UNL1        0.2271
     33 C          61.0370   81.4201   12.4855 C.ar    1  UNL1        0.0742
     34 C          61.8895   82.2748   13.2081 C.ar    1  UNL1        0.0906
     35 C          63.7553   88.2462   15.6468 C.2     1  UNL1        0.2257
     36 O          64.9930   88.4371   15.8062 O.2     1  UNL1       -0.2749
     37 N          63.2778   86.9340   15.2743 N.am    1  UNL1       -0.2760
     38 C          61.8568   86.5919   15.4568 C.3     1  UNL1        0.1148
     39 C          61.6276   85.0836   15.3889 C.3     1  UNL1        0.1123
     40 N          62.2726   84.5335   14.1940 N.pl3   1  UNL1       -0.3041
     41 C          63.6280   84.9593   13.8215 C.3     1  UNL1        0.1123
     42 C          64.2386   85.8900   14.8784 C.3     1  UNL1        0.1148
     43 C          63.5032   90.6830   16.2762 C.3     1  UNL1        0.0101
     44 C          62.7922   89.3780   15.9219 C.3     1  UNL1        0.0853
     45 C          63.1166   81.6930   13.8798 C.3     1  UNL1        0.4199
     46 F          63.1726   80.3211   13.7016 F       1  UNL1       -0.1658
     47 F          63.0711   81.9589   15.2356 F       1  UNL1       -0.1658
     48 F          64.2729   82.2301   13.3430 F       1  UNL1       -0.1658
@<TRIPOS>BOND
     1    43    44    1
     2    44    35    1
     3    35    36    2
     4    35    37   am
     5    37    38    1
     6    38    39    1
     7    39    40    1
     8    40    29    1
     9    29    30   ar
    10    30    31   ar
    11    31    32   ar
    12    32     1    1
    13     1     2    1
    14     2     3    2
    15     2     4    1
    16     4     5    2
    17     5     6    1
    18     6     7   ar
    19     7     8   ar
    20     8     9   ar
    21     9    10   ar
    22    10    11   ar
    23    11    12   ar
    24    12    16    1
    25    16    17   ar
    26    17    18   ar
    27    18    19   ar
    28    19    20   ar
    29    20    21   ar
    30    21    26    1
    31    26    27    1
    32    26    28    1
    33    21    22   ar
    34    22    23   ar
    35    23    24   ar
    36    24    25   ar
    37    12    13   ar
    38    13    14   ar
    39    14    15   ar
    40    32    33   ar
    41    33    34   ar
    42    34    45    1
    43    45    46    1
    44    45    47    1
    45    45    48    1
    46    40    41    1
    47    41    42    1
    48    42    37    1
    49    34    29   ar
    50    15     1    1
    51    15     6   ar
    52    14     9   ar
    53    25    16   ar
    54    24    19   ar
@<TRIPOS>MOLECULE
*****
 48 54 0 0 0
SMALL
GASTEIGER

@<TRIPOS>ATOM
      1 N          60.9944   80.5542   10.5559 N.am    1  UNL1       -0.0905
      2 C          60.8364   79.4847    9.7001 C.2     1  UNL1        0.4229
      3 O          60.6396   79.6659    8.4659 O.2     1  UNL1       -0.2135
      4 C          60.8495   78.1775   10.1769 C.2     1  UNL1        0.1157
      5 C          60.9516   77.9439   11.5359 C.2     1  UNL1        0.0173
      6 C          61.1215   79.0131   12.4142 C.ar    1  UNL1        0.0828
      7 C          61.1446   78.7715   13.7901 C.ar    1  UNL1        0.1047
      8 N          61.2981   79.7941   14.6596 N.ar    1  UNL1       -0.2434
      9 C          61.5102   81.0659   14.2441 C.ar    1  UNL1        0.0870
     10 C          61.7044   82.0605   15.2064 C.ar    1  UNL1        0.0193
     11 C          62.0122   83.3619   14.8227 C.ar    1  UNL1        0.0016
     12 C          62.2006   83.6733   13.4703 C.ar    1  UNL1        0.0018
     13 C          62.0379   82.6631   12.5049 C.ar    1  UNL1        0.0075
     14 C          61.5756   81.3719   12.8576 C.ar    1  UNL1        0.0810
     15 C          61.2422   80.3384   11.9107 C.ar    1  UNL1        0.2297
     16 C          62.5290   85.0628   13.0614 C.ar    1  UNL1        0.0192
     17 C          62.1837   85.5252   11.7794 C.ar    1  UNL1        0.0988
     18 N          62.5339   86.7755   11.3792 N.ar    1  UNL1       -0.2438
     19 C          63.2179   87.6231   12.1908 C.ar    1  UNL1        0.0810
     20 C          63.5891   88.8889   11.7262 C.ar    1  UNL1        0.0148
     21 C          64.3348   89.7573   12.5427 C.ar    1  UNL1       -0.0210
     22 C          64.6873   89.3411   13.8417 C.ar    1  UNL1       -0.0042
     23 C          64.3060   88.0822   14.3145 C.ar    1  UNL1        0.0012
     24 C          63.5765   87.2145   13.4915 C.ar    1  UNL1        0.0177
     25 C          63.2252   85.9287   13.9217 C.ar    1  UNL1        0.0030
     26 C          64.7662   91.1110   12.0103 C.3     1  UNL1        0.0224
     27 C          64.8382   91.1031   10.4786 C.3     1  UNL1        0.0047
     28 C          66.1017   91.5484   12.6238 C.3     1  UNL1        0.0047
     29 C          60.2205   84.4745    9.0736 C.ar    1  UNL1        0.0522
     30 C          59.3078   83.8406    9.9316 C.ar    1  UNL1        0.0206
     31 C          59.5373   82.5411   10.3821 C.ar    1  UNL1        0.0703
     32 C          60.7072   81.8639   10.0151 C.ar    1  UNL1        0.2271
     33 C          61.6069   82.4762    9.1277 C.ar    1  UNL1        0.0742
     34 C          61.3628   83.7653    8.6196 C.ar    1  UNL1        0.0906
     35 C          59.6397   89.2461    6.1867 C.2     1  UNL1        0.2257
     36 O          60.3334   90.2832    6.3794 O.2     1  UNL1       -0.2749
     37 N          59.6951   88.1629    7.1418 N.am    1  UNL1       -0.2760
     38 C          58.6370   87.1383    7.1503 C.3     1  UNL1        0.1148
     39 C          58.6472   86.3292    8.4455 C.3     1  UNL1        0.1123
     40 N          60.0041   85.8541    8.7271 N.pl3   1  UNL1       -0.3041
     41 C          61.1529   86.7546    8.5645 C.3     1  UNL1        0.1123
     42 C          60.7078   88.1805    8.2114 C.3     1  UNL1        0.1148
     43 C          57.4868   90.0934    5.1645 C.3     1  UNL1        0.0101
     44 C          58.7085   89.1912    4.9977 C.3     1  UNL1        0.0853
     45 C          62.3582   84.3754    7.6541 C.3     1  UNL1        0.4199
     46 F          63.1799   83.4017    7.1120 F       1  UNL1       -0.1658
     47 F          63.1463   85.2941    8.3218 F       1  UNL1       -0.1658
     48 F          61.7072   85.0015    6.6062 F       1  UNL1       -0.1658
@<TRIPOS>BOND
     1    43    44    1
     2    44    35    1
     3    35    36    2
     4    35    37   am
     5    37    38    1
     6    38    39    1
     7    39    40    1
     8    40    29    1
     9    29    30   ar
    10    30    31   ar
    11    31    32   ar
    12    32     1    1
    13     1     2    1
    14     2     3    2
    15     2     4    1
    16     4     5    2
    17     5     6    1
    18     6     7   ar
    19     7     8   ar
    20     8     9   ar
    21     9    10   ar
    22    10    11   ar
    23    11    12   ar
    24    12    16    1
    25    16    17   ar
    26    17    18   ar
    27    18    19   ar
    28    19    20   ar
    29    20    21   ar
    30    21    26    1
    31    26    27    1
    32    26    28    1
    33    21    22   ar
    34    22    23   ar
    35    23    24   ar
    36    24    25   ar
    37    12    13   ar
    38    13    14   ar
    39    14    15   ar
    40    32    33   ar
    41    33    34   ar
    42    34    45    1
    43    45    46    1
    44    45    47    1
    45    45    48    1
    46    40    41    1
    47    41    42    1
    48    42    37    1
    49    34    29   ar
    50    15     1    1
    51    15     6   ar
    52    14     9   ar
    53    25    16   ar
    54    24    19   ar
@<TRIPOS>MOLECULE
*****
 48 54 0 0 0
SMALL
GASTEIGER

@<TRIPOS>ATOM
      1 N          65.3500   90.0164   14.1584 N.am    1  UNL1       -0.0905
      2 C          66.1742   90.3288   15.2186 C.2     1  UNL1        0.4229
      3 O          66.0916   89.7003   16.3109 O.2     1  UNL1       -0.2135
      4 C          67.0928   91.3703   15.1295 C.2     1  UNL1        0.1157
      5 C          67.1354   92.1518   13.9896 C.2     1  UNL1        0.0173
      6 C          66.3156   91.8441   12.9048 C.ar    1  UNL1        0.0828
      7 C          66.3107   92.6863   11.7901 C.ar    1  UNL1        0.1047
      8 N          65.5167   92.4126   10.7320 N.ar    1  UNL1       -0.2434
      9 C          64.7612   91.2898   10.6709 C.ar    1  UNL1        0.0870
     10 C          64.0009   91.0567    9.5218 C.ar    1  UNL1        0.0193
     11 C          63.2804   89.8748    9.3812 C.ar    1  UNL1        0.0016
     12 C          63.3661   88.8752   10.3585 C.ar    1  UNL1        0.0018
     13 C          64.1590   89.0975   11.4990 C.ar    1  UNL1        0.0075
     14 C          64.7765   90.3496   11.7367 C.ar    1  UNL1        0.0810
     15 C          65.4739   90.6977   12.9485 C.ar    1  UNL1        0.2297
     16 C          62.5966   87.6139   10.2078 C.ar    1  UNL1        0.0192
     17 C          61.7526   87.1703   11.2410 C.ar    1  UNL1        0.0988
     18 N          61.0922   85.9880   11.1329 N.ar    1  UNL1       -0.2438
     19 C          61.2123   85.1970   10.0351 C.ar    1  UNL1        0.0810
     20 C          60.5421   83.9708    9.9802 C.ar    1  UNL1        0.0148
     21 C          60.6940   83.1249    8.8674 C.ar    1  UNL1       -0.0210
     22 C          61.5167   83.5382    7.8010 C.ar    1  UNL1       -0.0042
     23 C          62.1770   84.7693    7.8463 C.ar    1  UNL1        0.0012
     24 C          62.0348   85.6016    8.9641 C.ar    1  UNL1        0.0177
     25 C          62.7246   86.8170    9.0575 C.ar    1  UNL1        0.0030
     26 C          59.9939   81.7791    8.8400 C.3     1  UNL1        0.0224
     27 C          60.8807   80.6844    9.4454 C.3     1  UNL1        0.0047
     28 C          59.5553   81.4108    7.4176 C.3     1  UNL1        0.0047
     29 C          62.1055   87.3334   14.8215 C.ar    1  UNL1        0.0522
     30 C          61.9337   88.7176   14.9810 C.ar    1  UNL1        0.0206
     31 C          63.0047   89.5935   14.8082 C.ar    1  UNL1        0.0703
     32 C          64.2619   89.1042   14.4313 C.ar    1  UNL1        0.2271
     33 C          64.4516   87.7186   14.3060 C.ar    1  UNL1        0.0742
     34 C          63.3952   86.8171   14.5316 C.ar    1  UNL1        0.0906
     35 C          58.0719   83.6569   13.5359 C.2     1  UNL1        0.2257
     36 O          56.8360   83.9100   13.5864 O.2     1  UNL1       -0.2749
     37 N          59.0144   84.5824   14.1222 N.am    1  UNL1       -0.2760
     38 C          60.3885   84.1412   14.4165 C.3     1  UNL1        0.1148
     39 C          61.0953   85.1003   15.3719 C.3     1  UNL1        0.1123
     40 N          60.9510   86.4778   14.8942 N.pl3   1  UNL1       -0.3041
     41 C          59.6541   86.9585   14.4002 C.3     1  UNL1        0.1123
     42 C          58.5539   85.9038   14.5821 C.3     1  UNL1        0.1148
     43 C          57.9275   82.0987   11.5487 C.3     1  UNL1        0.0101
     44 C          58.5342   82.3529   12.9277 C.3     1  UNL1        0.0853
     45 C          63.6559   85.3307   14.3971 C.3     1  UNL1        0.4199
     46 F          63.0889   84.6332   15.4503 F       1  UNL1       -0.1658
     47 F          65.0187   85.0986   14.3989 F       1  UNL1       -0.1658
     48 F          63.1057   84.8382   13.2273 F       1  UNL1       -0.1658
@<TRIPOS>BOND
     1    43    44    1
     2    44    35    1
     3    35    36    2
     4    35    37   am
     5    37    38    1
     6    38    39    1
     7    39    40    1
     8    40    29    1
     9    29    30   ar
    10    30    31   ar
    11    31    32   ar
    12    32     1    1
    13     1     2    1
    14     2     3    2
    15     2     4    1
    16     4     5    2
    17     5     6    1
    18     6     7   ar
    19     7     8   ar
    20     8     9   ar
    21     9    10   ar
    22    10    11   ar
    23    11    12   ar
    24    12    16    1
    25    16    17   ar
    26    17    18   ar
    27    18    19   ar
    28    19    20   ar
    29    20    21   ar
    30    21    26    1
    31    26    27    1
    32    26    28    1
    33    21    22   ar
    34    22    23   ar
    35    23    24   ar
    36    24    25   ar
    37    12    13   ar
    38    13    14   ar
    39    14    15   ar
    40    32    33   ar
    41    33    34   ar
    42    34    45    1
    43    45    46    1
    44    45    47    1
    45    45    48    1
    46    40    41    1
    47    41    42    1
    48    42    37    1
    49    34    29   ar
    50    15     1    1
    51    15     6   ar
    52    14     9   ar
    53    25    16   ar
    54    24    19   ar
@<TRIPOS>MOLECULE
*****
 48 54 0 0 0
SMALL
GASTEIGER

@<TRIPOS>ATOM
      1 N          59.1602   81.4526    8.2585 N.am    1  UNL1       -0.0905
      2 C          59.0056   81.0541    6.9476 C.2     1  UNL1        0.4229
      3 O          59.3633   81.8033    5.9959 O.2     1  UNL1       -0.2135
      4 C          58.4156   79.8333    6.6346 C.2     1  UNL1        0.1157
      5 C          57.9115   79.0358    7.6455 C.2     1  UNL1        0.0173
      6 C          58.0677   79.4192    8.9767 C.ar    1  UNL1        0.0828
      7 C          57.4862   78.6457    9.9844 C.ar    1  UNL1        0.1047
      8 N          57.6165   79.0042   11.2804 N.ar    1  UNL1       -0.2434
      9 C          58.3671   80.0657   11.6612 C.ar    1  UNL1        0.0870
     10 C          58.4885   80.3445   13.0251 C.ar    1  UNL1        0.0193
     11 C          59.3194   81.3707   13.4635 C.ar    1  UNL1        0.0016
     12 C          60.0979   82.0889   12.5472 C.ar    1  UNL1        0.0018
     13 C          60.0001   81.7844   11.1773 C.ar    1  UNL1        0.0075
     14 C          59.0501   80.8520   10.6939 C.ar    1  UNL1        0.0810
     15 C          58.7898   80.6021    9.2990 C.ar    1  UNL1        0.2297
     16 C          60.9846   83.1843   13.0159 C.ar    1  UNL1        0.0192
     17 C          62.3653   82.9647   13.1644 C.ar    1  UNL1        0.0988
     18 N          63.1718   83.9449   13.6488 N.ar    1  UNL1       -0.2438
     19 C          62.6871   85.1642   14.0002 C.ar    1  UNL1        0.0810
     20 C          63.5469   86.1329   14.5278 C.ar    1  UNL1        0.0148
     21 C          63.0481   87.3827   14.9350 C.ar    1  UNL1       -0.0210
     22 C          61.6731   87.6517   14.7875 C.ar    1  UNL1       -0.0042
     23 C          60.8131   86.6912   14.2477 C.ar    1  UNL1        0.0012
     24 C          61.3123   85.4417   13.8579 C.ar    1  UNL1        0.0177
     25 C          60.4648   84.4433   13.3611 C.ar    1  UNL1        0.0030
     26 C          63.9855   88.4085   15.5442 C.3     1  UNL1        0.0224
     27 C          63.2009   89.5312   16.2335 C.3     1  UNL1        0.0047
     28 C          64.9489   88.9727   14.4931 C.3     1  UNL1        0.0047
     29 C          60.2619   85.4944    9.0426 C.ar    1  UNL1        0.0522
     30 C          58.9186   85.1475    8.8277 C.ar    1  UNL1        0.0206
     31 C          58.5610   83.8338    8.5269 C.ar    1  UNL1        0.0703
     32 C          59.5378   82.8313    8.4756 C.ar    1  UNL1        0.2271
     33 C          60.8874   83.1761    8.6524 C.ar    1  UNL1        0.0742
     34 C          61.2710   84.5067    8.9014 C.ar    1  UNL1        0.0906
     35 C          62.9687   90.0133   10.9642 C.2     1  UNL1        0.2257
     36 O          62.6033   90.6891   11.9661 O.2     1  UNL1       -0.2749
     37 N          62.0736   89.0267   10.4039 N.am    1  UNL1       -0.2760
     38 C          62.3067   88.5146    9.0427 C.3     1  UNL1        0.1148
     39 C          61.0722   87.8066    8.4884 C.3     1  UNL1        0.1123
     40 N          60.5737   86.8342    9.4643 N.pl3   1  UNL1       -0.3041
     41 C          60.4818   87.1920   10.8859 C.3     1  UNL1        0.1123
     42 C          60.8392   88.6659   11.1220 C.3     1  UNL1        0.1148
     43 C          65.3490   90.7840   11.3359 C.3     1  UNL1        0.0101
     44 C          64.3077   90.3038   10.3263 C.3     1  UNL1        0.0853
     45 C          62.7418   84.8283    9.0707 C.3     1  UNL1        0.4199
     46 F          63.5037   83.6721    9.0617 F       1  UNL1       -0.1658
     47 F          62.9377   85.4746   10.2769 F       1  UNL1       -0.1658
     48 F          63.1921   85.6318    8.0385 F       1  UNL1       -0.1658
@<TRIPOS>BOND
     1    43    44    1
     2    44    35    1
     3    35    36    2
     4    35    37   am
     5    37    38    1
     6    38    39    1
     7    39    40    1
     8    40    29    1
     9    29    30   ar
    10    30    31   ar
    11    31    32   ar
    12    32     1    1
    13     1     2    1
    14     2     3    2
    15     2     4    1
    16     4     5    2
    17     5     6    1
    18     6     7   ar
    19     7     8   ar
    20     8     9   ar
    21     9    10   ar
    22    10    11   ar
    23    11    12   ar
    24    12    16    1
    25    16    17   ar
    26    17    18   ar
    27    18    19   ar
    28    19    20   ar
    29    20    21   ar
    30    21    26    1
    31    26    27    1
    32    26    28    1
    33    21    22   ar
    34    22    23   ar
    35    23    24   ar
    36    24    25   ar
    37    12    13   ar
    38    13    14   ar
    39    14    15   ar
    40    32    33   ar
    41    33    34   ar
    42    34    45    1
    43    45    46    1
    44    45    47    1
    45    45    48    1
    46    40    41    1
    47    41    42    1
    48    42    37    1
    49    34    29   ar
    50    15     1    1
    51    15     6   ar
    52    14     9   ar
    53    25    16   ar
    54    24    19   ar
