@<TRIPOS>MOLECULE
*****
 45 49 0 0 0
SMALL
GASTEIGER

@<TRIPOS>ATOM
      1 C         -26.6711   51.0665   -9.0826 C.3     1  UNL1        0.1562
      2 C         -27.0496   49.9999  -10.1136 C.3     1  UNL1        0.0622
      3 C         -27.5901   48.7875   -9.3243 C.3     1  UNL1        0.1294
      4 O         -26.5179   47.9082   -9.0806 O.3     1  UNL1       -0.3808
      5 C         -28.0642   49.4215   -7.9931 C.3     1  UNL1        0.1264
      6 N         -27.3436   50.6779   -7.8530 N.am    1  UNL1       -0.2544
      7 C         -27.5858   51.6013   -6.7734 C.2     1  UNL1        0.3081
      8 O         -27.3678   52.8314   -6.9386 O.2     1  UNL1       -0.2522
      9 N         -28.1222   51.1531   -5.5220 N.am    1  UNL1       -0.2681
     10 H         -26.8629   47.1507   -8.5382 H       1  UNL1        0.2107
     11 H         -28.8828   51.7193   -5.0831 H       1  UNL1        0.1564
     12 C         -28.6957   48.0232  -10.0758 C.ar    1  UNL1        0.0310
     13 C         -28.4993   46.6787  -10.4672 C.ar    1  UNL1        0.0026
     14 C         -29.4734   45.9926  -11.1968 C.ar    1  UNL1        0.0295
     15 C         -30.6430   46.6420  -11.5876 C.ar    1  UNL1        0.1424
     16 F         -31.5838   45.9755  -12.3009 F       1  UNL1       -0.2041
     17 C         -30.8289   47.9872  -11.2719 C.ar    1  UNL1        0.0590
     18 C         -29.8594   48.6837  -10.5426 C.ar    1  UNL1        0.1406
     19 F         -30.0541   50.0087  -10.3290 F       1  UNL1       -0.2044
     20 C         -27.5998   50.0273   -4.8006 C.ar    1  UNL1        0.0516
     21 C         -28.1865   48.7643   -4.9667 C.ar    1  UNL1        0.0156
     22 C         -27.6846   47.6565   -4.2764 C.ar    1  UNL1        0.0127
     23 C         -26.6011   47.8054   -3.4040 C.ar    1  UNL1        0.0578
     24 CL        -25.9718   46.4151   -2.5395 Cl      1  UNL1       -0.0822
     25 C         -26.0262   49.0661   -3.2150 C.ar    1  UNL1        0.0127
     26 C         -26.5269   50.1743   -3.9038 C.ar    1  UNL1        0.0156
     27 O         -24.6713   50.5900   -7.8723 O.2     1  UNL1       -0.2730
     28 C         -25.1793   51.1593   -8.8756 C.2     1  UNL1        0.2454
     29 N         -24.3559   51.9174   -9.7794 N.am    1  UNL1       -0.2680
     30 H         -24.8291   52.4758  -10.5228 H       1  UNL1        0.1563
     31 C         -22.9184   51.9114   -9.7679 C.ar    1  UNL1        0.1346
     32 C         -22.2149   51.5848  -10.9350 C.ar    1  UNL1        0.0406
     33 C         -20.8197   51.5662  -10.9169 C.ar    1  UNL1        0.0736
     34 C         -20.1274   51.8759   -9.7374 C.ar    1  UNL1        0.2466
     35 C         -20.8679   52.1902   -8.5881 C.ar    1  UNL1        0.1691
     36 N         -22.2266   52.2010   -8.6306 N.ar    1  UNL1       -0.2228
     37 N         -18.6860   51.8509   -9.6991 N.am    1  UNL1       -0.0815
     38 C         -18.0599   51.7383   -8.4870 C.2     1  UNL1        0.3273
     39 C         -16.6658   51.6999   -8.4031 C.2     1  UNL1        0.2046
     40 O         -16.0487   51.5803   -7.1600 O.2     1  UNL1       -0.5008
     41 C         -15.9095   51.7807   -9.5739 C.2     1  UNL1        0.0529
     42 C         -16.5511   51.9013  -10.8044 C.2     1  UNL1        0.1187
     43 C         -17.9485   51.9398  -10.8548 C.2     1  UNL1        0.4232
     44 O         -18.5161   52.0728  -11.9739 O.2     1  UNL1       -0.2135
     45 H         -15.0397   51.5494   -7.0710 H       1  UNL1        0.2924
@<TRIPOS>BOND
     1    27    28    2
     2    28    29   am
     3    29    31    1
     4    31    32   ar
     5    32    33   ar
     6    33    34   ar
     7    34    37    1
     8    37    38    1
     9    38    39    2
    10    39    40    1
    11    39    41    1
    12    41    42    2
    13    42    43    1
    14    43    44    2
    15    34    35   ar
    16    35    36   ar
    17    28     1    1
    18     1     2    1
    19     2     3    1
    20     3     4    1
    21     3    12    1
    22    12    13   ar
    23    13    14   ar
    24    14    15   ar
    25    15    16    1
    26    15    17   ar
    27    17    18   ar
    28    18    19    1
    29     3     5    1
    30     5     6    1
    31     6     7   am
    32     7     8    2
    33     7     9   am
    34     9    20    1
    35    20    21   ar
    36    21    22   ar
    37    22    23   ar
    38    23    24    1
    39    23    25   ar
    40    25    26   ar
    41    36    31   ar
    42     6     1    1
    43    26    20   ar
    44    43    37    1
    45    18    12   ar
    46    29    30    1
    47    40    45    1
    48     4    10    1
    49     9    11    1
