@<TRIPOS>MOLECULE
*****
 52 57 0 0 0
SMALL
GASTEIGER

@<TRIPOS>ATOM
      1 C         -25.8053   51.0789   -9.6986 C.ar    1  UNL1        0.0502
      2 C         -26.4023   51.4340  -10.9160 C.ar    1  UNL1        0.0148
      3 C         -27.6340   50.8886  -11.2844 C.ar    1  UNL1        0.0080
      4 C         -28.2864   49.9670  -10.4482 C.ar    1  UNL1        0.0808
      5 C         -27.7078   49.6455   -9.2045 C.ar    1  UNL1        0.1457
      6 F         -28.3467   48.8394   -8.3205 F       1  UNL1       -0.2040
      7 C         -26.4735   50.1917   -8.8410 C.ar    1  UNL1        0.0443
      8 N         -21.7979   52.0646   -9.0136 N.pl3   1  UNL1       -0.3041
      9 C         -22.4303   51.0422   -8.1704 C.3     1  UNL1        0.1122
     10 C         -23.9277   51.3254   -8.0296 C.3     1  UNL1        0.1122
     11 N         -24.5134   51.6057   -9.3457 N.pl3   1  UNL1       -0.3040
     12 C         -23.8807   52.6376  -10.1746 C.3     1  UNL1        0.1122
     13 C         -22.3916   52.3349  -10.3289 C.3     1  UNL1        0.1122
     14 C         -19.0141   54.2469   -7.7528 C.ar    1  UNL1        0.0084
     15 C         -20.3008   53.7678   -8.0343 C.ar    1  UNL1        0.0127
     16 C         -20.4769   52.5489   -8.7076 C.ar    1  UNL1        0.0476
     17 C         -19.3498   51.8098   -9.0978 C.ar    1  UNL1        0.0184
     18 C         -18.0538   52.2665   -8.8040 C.ar    1  UNL1        0.0724
     19 C         -17.8951   53.5009   -8.1522 C.ar    1  UNL1        0.0021
     20 C         -16.8481   51.4939   -9.2774 C.3     1  UNL1        0.4186
     21 F         -16.5792   51.7729  -10.6064 F       1  UNL1       -0.1659
     22 F         -15.7524   51.8472   -8.5124 F       1  UNL1       -0.1659
     23 F         -17.0620   50.1316   -9.1572 F       1  UNL1       -0.1659
     24 C         -18.8416   55.5744   -7.0623 C.3     1  UNL1        0.1687
     25 C         -19.0653   57.8717   -7.2744 C.3     1  UNL1        0.1746
     26 O         -19.3434   56.6225   -7.8689 O.3     1  UNL1       -0.3463
     27 C         -29.5328   49.3216  -10.9195 C.2     1  UNL1        0.2483
     28 O         -30.4730   50.0419  -11.3532 O.2     1  UNL1       -0.2701
     29 N         -29.6461   47.8890  -10.9688 N.am    1  UNL1       -0.2945
     30 H         -28.8522   47.3216  -10.6066 H       1  UNL1        0.1501
     31 C         -30.6285   47.2081  -11.8192 C.3     1  UNL1        0.1535
     32 C         -29.9685   46.5459  -13.0167 C.2     1  UNL1        0.2443
     33 O         -29.0589   45.6963  -12.8205 O.2     1  UNL1       -0.2730
     34 N         -30.4915   46.6950  -14.3461 N.am    1  UNL1       -0.2825
     35 H         -30.8071   45.8289  -14.8380 H       1  UNL1        0.1549
     36 C         -30.5585   47.9439  -15.0544 C.ar    1  UNL1        0.0535
     37 C         -31.5226   48.9134  -14.7387 C.ar    1  UNL1        0.0353
     38 C         -31.5800   50.0962  -15.4788 C.ar    1  UNL1        0.1002
     39 N         -30.6900   50.3163  -16.4825 N.ar    1  UNL1       -0.2422
     40 C         -29.7245   49.4098  -16.7885 C.ar    1  UNL1        0.1002
     41 C         -29.6337   48.2136  -16.0719 C.ar    1  UNL1        0.0353
     42 C         -31.4903   46.2312  -10.9863 C.3     1  UNL1        0.0569
     43 C         -30.8949   45.8824   -9.6487 C.ar    1  UNL1       -0.0017
     44 C         -30.1315   44.7565   -9.3502 C.ar    1  UNL1        0.0681
     45 N         -29.7247   44.7886   -8.0609 N.ar    1  UNL1       -0.3523
     46 C         -30.2269   45.9215   -7.5407 C.ar    1  UNL1        0.0563
     47 C         -30.0652   46.3970   -6.2401 C.ar    1  UNL1        0.0170
     48 C         -30.6782   47.6181   -5.9054 C.ar    1  UNL1        0.0015
     49 C         -31.4342   48.3261   -6.8657 C.ar    1  UNL1        0.0001
     50 C         -31.5817   47.8210   -8.1700 C.ar    1  UNL1        0.0012
     51 C         -30.9533   46.6132   -8.4763 C.ar    1  UNL1        0.0131
     52 H         -29.1339   44.0784   -7.5743 H       1  UNL1        0.1660
@<TRIPOS>BOND
     1    25    26    1
     2    26    24    1
     3    24    14    1
     4    14    15   ar
     5    15    16   ar
     6    16     8    1
     7     8     9    1
     8     9    10    1
     9    10    11    1
    10    11     1    1
    11     1     2   ar
    12     2     3   ar
    13     3     4   ar
    14     4    27    1
    15    27    28    2
    16    27    29   am
    17    29    31    1
    18    31    42    1
    19    42    43    1
    20    43    44   ar
    21    44    45   ar
    22    45    46   ar
    23    46    47   ar
    24    47    48   ar
    25    48    49   ar
    26    49    50   ar
    27    50    51   ar
    28    31    32    1
    29    32    33    2
    30    32    34   am
    31    34    36    1
    32    36    37   ar
    33    37    38   ar
    34    38    39   ar
    35    39    40   ar
    36    40    41   ar
    37     4     5   ar
    38     5     6    1
    39     5     7   ar
    40    11    12    1
    41    12    13    1
    42    16    17   ar
    43    17    18   ar
    44    18    20    1
    45    20    21    1
    46    20    22    1
    47    20    23    1
    48    18    19   ar
    49    19    14   ar
    50    13     8    1
    51     7     1   ar
    52    51    43   ar
    53    41    36   ar
    54    51    46   ar
    55    29    30    1
    56    45    52    1
    57    34    35    1
@<TRIPOS>MOLECULE
*****
 52 57 0 0 0
SMALL
GASTEIGER

@<TRIPOS>ATOM
      1 C         -25.7025   50.8415   -9.6861 C.ar    1  UNL1        0.0502
      2 C         -25.9942   49.5406   -9.2537 C.ar    1  UNL1        0.0148
      3 C         -27.2087   48.9396   -9.5914 C.ar    1  UNL1        0.0080
      4 C         -28.1608   49.6332  -10.3573 C.ar    1  UNL1        0.0808
      5 C         -27.8481   50.9231  -10.8298 C.ar    1  UNL1        0.1457
      6 F         -28.6916   51.5923  -11.6544 F       1  UNL1       -0.2040
      7 C         -26.6324   51.5219  -10.4870 C.ar    1  UNL1        0.0443
      8 N         -21.8156   52.1739   -8.9008 N.pl3   1  UNL1       -0.3041
      9 C         -22.3617   51.0705   -8.1006 C.3     1  UNL1        0.1122
     10 C         -23.8810   51.2083   -7.9775 C.3     1  UNL1        0.1122
     11 N         -24.4709   51.4748   -9.2946 N.pl3   1  UNL1       -0.3040
     12 C         -23.9255   52.5873  -10.0803 C.3     1  UNL1        0.1122
     13 C         -22.4125   52.4297  -10.2175 C.3     1  UNL1        0.1122
     14 C         -18.1533   52.5697   -8.1707 C.ar    1  UNL1        0.0084
     15 C         -19.3813   51.9931   -8.5229 C.ar    1  UNL1        0.0127
     16 C         -20.5503   52.7691   -8.5570 C.ar    1  UNL1        0.0476
     17 C         -20.4799   54.1331   -8.2353 C.ar    1  UNL1        0.0184
     18 C         -19.2527   54.7302   -7.9009 C.ar    1  UNL1        0.0724
     19 C         -18.0967   53.9335   -7.8466 C.ar    1  UNL1        0.0021
     20 C         -19.1963   56.1835   -7.5012 C.3     1  UNL1        0.4186
     21 F         -19.4068   57.0011   -8.5983 F       1  UNL1       -0.1659
     22 F         -20.1750   56.4342   -6.5581 F       1  UNL1       -0.1659
     23 F         -17.9598   56.4947   -6.9621 F       1  UNL1       -0.1659
     24 C         -16.9146   51.7155   -8.1030 C.3     1  UNL1        0.1687
     25 C         -16.1320   51.6286  -10.2831 C.3     1  UNL1        0.1746
     26 O         -16.7989   50.9158   -9.2641 O.3     1  UNL1       -0.3463
     27 C         -29.4825   49.0118  -10.6008 C.2     1  UNL1        0.2483
     28 O         -30.5155   49.7356  -10.5838 O.2     1  UNL1       -0.2701
     29 N         -29.5890   47.6187  -10.9407 N.am    1  UNL1       -0.2945
     30 H         -28.7184   47.0482  -10.9495 H       1  UNL1        0.1501
     31 C         -30.7654   47.0639  -11.6191 C.3     1  UNL1        0.1535
     32 C         -30.4135   46.5175  -12.9922 C.2     1  UNL1        0.2443
     33 O         -29.5503   45.6042  -13.0834 O.2     1  UNL1       -0.2730
     34 N         -31.1818   46.8529  -14.1585 N.am    1  UNL1       -0.2825
     35 H         -31.6552   46.0701  -14.6634 H       1  UNL1        0.1549
     36 C         -31.2956   48.1799  -14.6990 C.ar    1  UNL1        0.0535
     37 C         -31.4334   49.3002  -13.8653 C.ar    1  UNL1        0.0353
     38 C         -31.5828   50.5678  -14.4317 C.ar    1  UNL1        0.1002
     39 N         -31.5693   50.7168  -15.7829 N.ar    1  UNL1       -0.2422
     40 C         -31.4039   49.6539  -16.6140 C.ar    1  UNL1        0.1002
     41 C         -31.2516   48.3688  -16.0867 C.ar    1  UNL1        0.0353
     42 C         -31.4782   46.0275  -10.7198 C.3     1  UNL1        0.0569
     43 C         -30.7285   45.6993   -9.4566 C.ar    1  UNL1       -0.0017
     44 C         -29.7991   44.6761   -9.2873 C.ar    1  UNL1        0.0681
     45 N         -29.2905   44.7010   -8.0346 N.ar    1  UNL1       -0.3523
     46 C         -29.8925   45.7271   -7.4093 C.ar    1  UNL1        0.0563
     47 C         -29.6841   46.1564   -6.0993 C.ar    1  UNL1        0.0170
     48 C         -30.4232   47.2636   -5.6447 C.ar    1  UNL1        0.0015
     49 C         -31.3468   47.9066   -6.4981 C.ar    1  UNL1        0.0001
     50 C         -31.5375   47.4503   -7.8147 C.ar    1  UNL1        0.0012
     51 C         -30.7825   46.3569   -8.2415 C.ar    1  UNL1        0.0131
     52 H         -28.5706   44.0561   -7.6395 H       1  UNL1        0.1660
@<TRIPOS>BOND
     1    25    26    1
     2    26    24    1
     3    24    14    1
     4    14    15   ar
     5    15    16   ar
     6    16     8    1
     7     8     9    1
     8     9    10    1
     9    10    11    1
    10    11     1    1
    11     1     2   ar
    12     2     3   ar
    13     3     4   ar
    14     4    27    1
    15    27    28    2
    16    27    29   am
    17    29    31    1
    18    31    42    1
    19    42    43    1
    20    43    44   ar
    21    44    45   ar
    22    45    46   ar
    23    46    47   ar
    24    47    48   ar
    25    48    49   ar
    26    49    50   ar
    27    50    51   ar
    28    31    32    1
    29    32    33    2
    30    32    34   am
    31    34    36    1
    32    36    37   ar
    33    37    38   ar
    34    38    39   ar
    35    39    40   ar
    36    40    41   ar
    37     4     5   ar
    38     5     6    1
    39     5     7   ar
    40    11    12    1
    41    12    13    1
    42    16    17   ar
    43    17    18   ar
    44    18    20    1
    45    20    21    1
    46    20    22    1
    47    20    23    1
    48    18    19   ar
    49    19    14   ar
    50    13     8    1
    51     7     1   ar
    52    51    43   ar
    53    41    36   ar
    54    51    46   ar
    55    29    30    1
    56    45    52    1
    57    34    35    1
@<TRIPOS>MOLECULE
*****
 52 57 0 0 0
SMALL
GASTEIGER

@<TRIPOS>ATOM
      1 C         -26.0818   49.7853   -8.1318 C.ar    1  UNL1        0.0502
      2 C         -26.3911   48.6820   -8.9390 C.ar    1  UNL1        0.0148
      3 C         -27.3794   47.7759   -8.5485 C.ar    1  UNL1        0.0080
      4 C         -28.0685   47.9485   -7.3363 C.ar    1  UNL1        0.0808
      5 C         -27.7890   49.0821   -6.5478 C.ar    1  UNL1        0.1457
      6 F         -28.4965   49.3451   -5.4210 F       1  UNL1       -0.2040
      7 C         -26.7970   49.9850   -6.9412 C.ar    1  UNL1        0.0443
      8 N         -22.6999   51.8472   -9.4776 N.pl3   1  UNL1       -0.3041
      9 C         -22.6379   51.1505   -8.1865 C.3     1  UNL1        0.1122
     10 C         -24.0228   51.1186   -7.5360 C.3     1  UNL1        0.1122
     11 N         -25.0290   50.6889   -8.5142 N.pl3   1  UNL1       -0.3040
     12 C         -25.0900   51.4001   -9.7959 C.3     1  UNL1        0.1122
     13 C         -23.7092   51.4073  -10.4488 C.3     1  UNL1        0.1122
     14 C         -19.4839   53.0082  -11.0305 C.ar    1  UNL1        0.0084
     15 C         -20.5436   52.1803  -10.6355 C.ar    1  UNL1        0.0127
     16 C         -21.6197   52.7006   -9.8997 C.ar    1  UNL1        0.0476
     17 C         -21.6271   54.0625   -9.5620 C.ar    1  UNL1        0.0184
     18 C         -20.5826   54.9096   -9.9690 C.ar    1  UNL1        0.0724
     19 C         -19.5007   54.3673  -10.6826 C.ar    1  UNL1        0.0021
     20 C         -20.5709   56.3592   -9.5526 C.3     1  UNL1        0.4186
     21 F         -20.0291   56.5002   -8.2865 F       1  UNL1       -0.1659
     22 F         -19.8111   57.0844  -10.4510 F       1  UNL1       -0.1659
     23 F         -21.8564   56.8724   -9.5314 F       1  UNL1       -0.1659
     24 C         -18.3188   52.4269  -11.7877 C.3     1  UNL1        0.1687
     25 C         -16.1334   51.7561  -11.4047 C.3     1  UNL1        0.1746
     26 O         -17.4550   51.7296  -10.9109 O.3     1  UNL1       -0.3463
     27 C         -29.0280   46.9096   -6.8975 C.2     1  UNL1        0.2483
     28 O         -30.2402   47.2194   -6.7377 O.2     1  UNL1       -0.2701
     29 N         -28.6105   45.5429   -6.7384 N.am    1  UNL1       -0.2945
     30 H         -27.6042   45.3179   -6.8802 H       1  UNL1        0.1501
     31 C         -29.5601   44.4250   -6.7561 C.3     1  UNL1        0.1535
     32 C         -30.3151   44.3113   -5.4427 C.2     1  UNL1        0.2443
     33 O         -31.5685   44.1847   -5.4676 O.2     1  UNL1       -0.2730
     34 N         -29.6327   44.1273   -4.1923 N.am    1  UNL1       -0.2825
     35 H         -29.8361   43.2526   -3.6582 H       1  UNL1        0.1549
     36 C         -28.7352   45.0878   -3.6108 C.ar    1  UNL1        0.0535
     37 C         -29.1676   46.3769   -3.2640 C.ar    1  UNL1        0.0353
     38 C         -28.2538   47.2937   -2.7400 C.ar    1  UNL1        0.1002
     39 N         -26.9588   46.9295   -2.5441 N.ar    1  UNL1       -0.2422
     40 C         -26.5196   45.6775   -2.8396 C.ar    1  UNL1        0.1002
     41 C         -27.4025   44.7310   -3.3662 C.ar    1  UNL1        0.0353
     42 C         -30.4941   44.5190   -7.9848 C.3     1  UNL1        0.0569
     43 C         -29.7919   44.9194   -9.2544 C.ar    1  UNL1       -0.0017
     44 C         -28.5560   44.4560   -9.6987 C.ar    1  UNL1        0.0681
     45 N         -28.2528   44.9951  -10.9012 N.ar    1  UNL1       -0.3523
     46 C         -29.2828   45.7976  -11.2193 C.ar    1  UNL1        0.0563
     47 C         -29.4314   46.5617  -12.3760 C.ar    1  UNL1        0.0170
     48 C         -30.6003   47.3329  -12.5090 C.ar    1  UNL1        0.0015
     49 C         -31.5809   47.3270  -11.4926 C.ar    1  UNL1        0.0001
     50 C         -31.4032   46.5477  -10.3355 C.ar    1  UNL1        0.0012
     51 C         -30.2391   45.7843  -10.2361 C.ar    1  UNL1        0.0131
     52 H         -27.3943   44.8155  -11.4679 H       1  UNL1        0.1660
@<TRIPOS>BOND
     1    25    26    1
     2    26    24    1
     3    24    14    1
     4    14    15   ar
     5    15    16   ar
     6    16     8    1
     7     8     9    1
     8     9    10    1
     9    10    11    1
    10    11     1    1
    11     1     2   ar
    12     2     3   ar
    13     3     4   ar
    14     4    27    1
    15    27    28    2
    16    27    29   am
    17    29    31    1
    18    31    42    1
    19    42    43    1
    20    43    44   ar
    21    44    45   ar
    22    45    46   ar
    23    46    47   ar
    24    47    48   ar
    25    48    49   ar
    26    49    50   ar
    27    50    51   ar
    28    31    32    1
    29    32    33    2
    30    32    34   am
    31    34    36    1
    32    36    37   ar
    33    37    38   ar
    34    38    39   ar
    35    39    40   ar
    36    40    41   ar
    37     4     5   ar
    38     5     6    1
    39     5     7   ar
    40    11    12    1
    41    12    13    1
    42    16    17   ar
    43    17    18   ar
    44    18    20    1
    45    20    21    1
    46    20    22    1
    47    20    23    1
    48    18    19   ar
    49    19    14   ar
    50    13     8    1
    51     7     1   ar
    52    51    43   ar
    53    41    36   ar
    54    51    46   ar
    55    29    30    1
    56    45    52    1
    57    34    35    1
@<TRIPOS>MOLECULE
*****
 52 57 0 0 0
SMALL
GASTEIGER

@<TRIPOS>ATOM
      1 C         -26.3947   49.9040   -9.0472 C.ar    1  UNL1        0.0502
      2 C         -26.4689   48.5543   -8.6764 C.ar    1  UNL1        0.0148
      3 C         -27.6896   47.9920   -8.2970 C.ar    1  UNL1        0.0080
      4 C         -28.8577   48.7722   -8.2685 C.ar    1  UNL1        0.0808
      5 C         -28.7909   50.1164   -8.6849 C.ar    1  UNL1        0.1457
      6 F         -29.9077   50.8813   -8.7701 F       1  UNL1       -0.2040
      7 C         -27.5664   50.6759   -9.0612 C.ar    1  UNL1        0.0443
      8 N         -22.9760   52.1965   -9.7932 N.pl3   1  UNL1       -0.3041
      9 C         -24.1004   52.2741  -10.7343 C.3     1  UNL1        0.1122
     10 C         -24.8609   50.9462  -10.7599 C.3     1  UNL1        0.1122
     11 N         -25.1264   50.4913   -9.3901 N.pl3   1  UNL1       -0.3040
     12 C         -23.9935   50.4059   -8.4618 C.3     1  UNL1        0.1122
     13 C         -23.2541   51.7419   -8.4252 C.3     1  UNL1        0.1122
     14 C         -20.2811   54.8010  -10.0299 C.ar    1  UNL1        0.0084
     15 C         -21.4936   54.1709   -9.7181 C.ar    1  UNL1        0.0127
     16 C         -21.7237   52.8391  -10.0968 C.ar    1  UNL1        0.0476
     17 C         -20.7255   52.1397  -10.7922 C.ar    1  UNL1        0.0184
     18 C         -19.4967   52.7509  -11.0933 C.ar    1  UNL1        0.0724
     19 C         -19.2928   54.0926  -10.7296 C.ar    1  UNL1        0.0021
     20 C         -18.4524   52.0103  -11.8907 C.3     1  UNL1        0.4186
     21 F         -17.9880   52.7924  -12.9343 F       1  UNL1       -0.1659
     22 F         -17.3931   51.6873  -11.0638 F       1  UNL1       -0.1659
     23 F         -18.9790   50.8468  -12.4247 F       1  UNL1       -0.1659
     24 C         -20.0641   56.2420   -9.6489 C.3     1  UNL1        0.1687
     25 C         -19.1186   55.9598   -7.5515 C.3     1  UNL1        0.1746
     26 O         -20.2496   56.4212   -8.2581 O.3     1  UNL1       -0.3463
     27 C         -30.1111   48.1761   -7.7528 C.2     1  UNL1        0.2483
     28 O         -31.1890   48.3730   -8.3777 O.2     1  UNL1       -0.2701
     29 N         -30.0959   47.3098   -6.6053 N.am    1  UNL1       -0.2945
     30 H         -29.1906   47.1644   -6.1126 H       1  UNL1        0.1501
     31 C         -31.1754   46.3561   -6.3274 C.3     1  UNL1        0.1535
     32 C         -30.8194   44.9557   -6.7966 C.2     1  UNL1        0.2443
     33 O         -30.3884   44.1212   -5.9566 O.2     1  UNL1       -0.2730
     34 N         -31.1594   44.4904   -8.1122 N.am    1  UNL1       -0.2825
     35 H         -31.8009   43.6685   -8.1801 H       1  UNL1        0.1549
     36 C         -30.6348   45.0478   -9.3288 C.ar    1  UNL1        0.0535
     37 C         -29.2669   44.9807   -9.6343 C.ar    1  UNL1        0.0353
     38 C         -28.7918   45.5715  -10.8071 C.ar    1  UNL1        0.1002
     39 N         -29.6548   46.1856  -11.6592 N.ar    1  UNL1       -0.2422
     40 C         -30.9893   46.2366  -11.4055 C.ar    1  UNL1        0.1002
     41 C         -31.5044   45.6580  -10.2426 C.ar    1  UNL1        0.0353
     42 C         -31.5831   46.4095   -4.8368 C.3     1  UNL1        0.0569
     43 C         -30.7128   47.3072   -3.9991 C.ar    1  UNL1       -0.0017
     44 C         -31.1019   48.4889   -3.3733 C.ar    1  UNL1        0.0681
     45 N         -30.0735   49.0119   -2.6678 N.ar    1  UNL1       -0.3523
     46 C         -29.0372   48.1746   -2.8451 C.ar    1  UNL1        0.0563
     47 C         -27.7582   48.2879   -2.3019 C.ar    1  UNL1        0.0170
     48 C         -26.8194   47.2886   -2.6160 C.ar    1  UNL1        0.0015
     49 C         -27.1744   46.2133   -3.4601 C.ar    1  UNL1        0.0001
     50 C         -28.4720   46.1258   -3.9953 C.ar    1  UNL1        0.0012
     51 C         -29.3853   47.1256   -3.6574 C.ar    1  UNL1        0.0131
     52 H         -30.0881   49.8857   -2.0965 H       1  UNL1        0.1660
@<TRIPOS>BOND
     1    25    26    1
     2    26    24    1
     3    24    14    1
     4    14    15   ar
     5    15    16   ar
     6    16     8    1
     7     8     9    1
     8     9    10    1
     9    10    11    1
    10    11     1    1
    11     1     2   ar
    12     2     3   ar
    13     3     4   ar
    14     4    27    1
    15    27    28    2
    16    27    29   am
    17    29    31    1
    18    31    42    1
    19    42    43    1
    20    43    44   ar
    21    44    45   ar
    22    45    46   ar
    23    46    47   ar
    24    47    48   ar
    25    48    49   ar
    26    49    50   ar
    27    50    51   ar
    28    31    32    1
    29    32    33    2
    30    32    34   am
    31    34    36    1
    32    36    37   ar
    33    37    38   ar
    34    38    39   ar
    35    39    40   ar
    36    40    41   ar
    37     4     5   ar
    38     5     6    1
    39     5     7   ar
    40    11    12    1
    41    12    13    1
    42    16    17   ar
    43    17    18   ar
    44    18    20    1
    45    20    21    1
    46    20    22    1
    47    20    23    1
    48    18    19   ar
    49    19    14   ar
    50    13     8    1
    51     7     1   ar
    52    51    43   ar
    53    41    36   ar
    54    51    46   ar
    55    29    30    1
    56    45    52    1
    57    34    35    1
@<TRIPOS>MOLECULE
*****
 52 57 0 0 0
SMALL
GASTEIGER

@<TRIPOS>ATOM
      1 C         -25.9946   49.7159   -8.1643 C.ar    1  UNL1        0.0502
      2 C         -26.4803   48.7280   -9.0318 C.ar    1  UNL1        0.0148
      3 C         -27.4785   47.8468   -8.6108 C.ar    1  UNL1        0.0080
      4 C         -28.0011   47.9281   -7.3091 C.ar    1  UNL1        0.0808
      5 C         -27.5449   48.9500   -6.4532 C.ar    1  UNL1        0.1457
      6 F         -28.0893   49.1315   -5.2243 F       1  UNL1       -0.2040
      7 C         -26.5437   49.8281   -6.8779 C.ar    1  UNL1        0.0443
      8 N         -22.5778   51.6762   -9.5724 N.pl3   1  UNL1       -0.3041
      9 C         -22.5499   51.0787   -8.2314 C.3     1  UNL1        0.1122
     10 C         -23.9515   51.0936   -7.6169 C.3     1  UNL1        0.1122
     11 N         -24.9318   50.5899   -8.5860 N.pl3   1  UNL1       -0.3040
     12 C         -24.9589   51.2025   -9.9188 C.3     1  UNL1        0.1122
     13 C         -23.5614   51.1628  -10.5339 C.3     1  UNL1        0.1122
     14 C         -20.4038   54.6725  -10.2033 C.ar    1  UNL1        0.0084
     15 C         -21.4574   53.8710   -9.7430 C.ar    1  UNL1        0.0127
     16 C         -21.4865   52.4971  -10.0291 C.ar    1  UNL1        0.0476
     17 C         -20.4475   51.9295  -10.7821 C.ar    1  UNL1        0.0184
     18 C         -19.3736   52.7157  -11.2324 C.ar    1  UNL1        0.0724
     19 C         -19.3732   54.0939  -10.9592 C.ar    1  UNL1        0.0021
     20 C         -18.2911   52.1083  -12.0892 C.3     1  UNL1        0.4186
     21 F         -17.9847   52.9398  -13.1528 F       1  UNL1       -0.1659
     22 F         -17.1563   51.9203  -11.3229 F       1  UNL1       -0.1659
     23 F         -18.6984   50.8876  -12.5993 F       1  UNL1       -0.1659
     24 C         -20.4061   56.1517   -9.9193 C.3     1  UNL1        0.1687
     25 C         -19.4238   56.4035   -7.8349 C.3     1  UNL1        0.1746
     26 O         -20.6428   56.3931   -8.5457 O.3     1  UNL1       -0.3463
     27 C         -28.9747   46.9081   -6.8574 C.2     1  UNL1        0.2483
     28 O         -30.1583   47.2590   -6.5984 O.2     1  UNL1       -0.2701
     29 N         -28.6094   45.5187   -6.7964 N.am    1  UNL1       -0.2945
     30 H         -27.6261   45.2600   -7.0188 H       1  UNL1        0.1501
     31 C         -29.6075   44.4437   -6.8041 C.3     1  UNL1        0.1535
     32 C         -30.3286   44.3401   -5.4710 C.2     1  UNL1        0.2443
     33 O         -31.5835   44.2272   -5.4625 O.2     1  UNL1       -0.2730
     34 N         -29.6153   44.1503   -4.2388 N.am    1  UNL1       -0.2825
     35 H         -29.8140   43.2786   -3.6981 H       1  UNL1        0.1549
     36 C         -28.6923   45.1017   -3.6829 C.ar    1  UNL1        0.0535
     37 C         -29.1398   46.2295   -2.9780 C.ar    1  UNL1        0.0353
     38 C         -28.2115   47.1514   -2.4898 C.ar    1  UNL1        0.1002
     39 N         -26.8810   46.9427   -2.6753 N.ar    1  UNL1       -0.2422
     40 C         -26.4175   45.8423   -3.3250 C.ar    1  UNL1        0.1002
     41 C         -27.3140   44.8964   -3.8291 C.ar    1  UNL1        0.0353
     42 C         -30.5714   44.5998   -8.0030 C.3     1  UNL1        0.0569
     43 C         -29.8887   44.9883   -9.2868 C.ar    1  UNL1       -0.0017
     44 C         -28.7057   44.4533   -9.7905 C.ar    1  UNL1        0.0681
     45 N         -28.4085   45.0061  -10.9883 N.ar    1  UNL1       -0.3523
     46 C         -29.3897   45.8880  -11.2446 C.ar    1  UNL1        0.0563
     47 C         -29.5252   46.6953  -12.3732 C.ar    1  UNL1        0.0170
     48 C         -30.6404   47.5501  -12.4402 C.ar    1  UNL1        0.0015
     49 C         -31.5818   47.5820  -11.3878 C.ar    1  UNL1        0.0001
     50 C         -31.4183   46.7574  -10.2603 C.ar    1  UNL1        0.0012
     51 C         -30.3085   45.9118  -10.2265 C.ar    1  UNL1        0.0131
     52 H         -27.5859   44.7842  -11.5920 H       1  UNL1        0.1660
@<TRIPOS>BOND
     1    25    26    1
     2    26    24    1
     3    24    14    1
     4    14    15   ar
     5    15    16   ar
     6    16     8    1
     7     8     9    1
     8     9    10    1
     9    10    11    1
    10    11     1    1
    11     1     2   ar
    12     2     3   ar
    13     3     4   ar
    14     4    27    1
    15    27    28    2
    16    27    29   am
    17    29    31    1
    18    31    42    1
    19    42    43    1
    20    43    44   ar
    21    44    45   ar
    22    45    46   ar
    23    46    47   ar
    24    47    48   ar
    25    48    49   ar
    26    49    50   ar
    27    50    51   ar
    28    31    32    1
    29    32    33    2
    30    32    34   am
    31    34    36    1
    32    36    37   ar
    33    37    38   ar
    34    38    39   ar
    35    39    40   ar
    36    40    41   ar
    37     4     5   ar
    38     5     6    1
    39     5     7   ar
    40    11    12    1
    41    12    13    1
    42    16    17   ar
    43    17    18   ar
    44    18    20    1
    45    20    21    1
    46    20    22    1
    47    20    23    1
    48    18    19   ar
    49    19    14   ar
    50    13     8    1
    51     7     1   ar
    52    51    43   ar
    53    41    36   ar
    54    51    46   ar
    55    29    30    1
    56    45    52    1
    57    34    35    1
@<TRIPOS>MOLECULE
*****
 52 57 0 0 0
SMALL
GASTEIGER

@<TRIPOS>ATOM
      1 C         -30.0161   48.6111   -9.0671 C.ar    1  UNL1        0.0502
      2 C         -29.3211   49.7548   -8.6505 C.ar    1  UNL1        0.0148
      3 C         -29.0764   49.9776   -7.2938 C.ar    1  UNL1        0.0080
      4 C         -29.5336   49.0673   -6.3261 C.ar    1  UNL1        0.0808
      5 C         -30.1920   47.8956   -6.7486 C.ar    1  UNL1        0.1457
      6 F         -30.5633   46.9400   -5.8607 F       1  UNL1       -0.2040
      7 C         -30.4373   47.6780   -8.1075 C.ar    1  UNL1        0.0443
      8 N         -30.1824   48.0575  -13.2103 N.pl3   1  UNL1       -0.3041
      9 C         -30.0105   49.4172  -12.6834 C.3     1  UNL1        0.1122
     10 C         -30.6852   49.5433  -11.3155 C.3     1  UNL1        0.1122
     11 N         -30.3088   48.4104  -10.4618 N.pl3   1  UNL1       -0.3040
     12 C         -30.4962   47.0561  -10.9938 C.3     1  UNL1        0.1122
     13 C         -29.8006   46.9323  -12.3479 C.3     1  UNL1        0.1122
     14 C         -30.8122   48.7177  -16.8530 C.ar    1  UNL1        0.0084
     15 C         -30.5749   48.9291  -15.4879 C.ar    1  UNL1        0.0127
     16 C         -30.4079   47.8419  -14.6160 C.ar    1  UNL1        0.0476
     17 C         -30.4795   46.5358  -15.1239 C.ar    1  UNL1        0.0184
     18 C         -30.6955   46.3081  -16.4934 C.ar    1  UNL1        0.0724
     19 C         -30.8862   47.4070  -17.3478 C.ar    1  UNL1        0.0021
     20 C         -30.8279   44.9011  -17.0204 C.3     1  UNL1        0.4186
     21 F         -29.5825   44.3613  -17.2924 F       1  UNL1       -0.1659
     22 F         -31.4610   44.1184  -16.0733 F       1  UNL1       -0.1659
     23 F         -31.5700   44.8842  -18.1888 F       1  UNL1       -0.1659
     24 C         -31.0260   49.8942  -17.7689 C.3     1  UNL1        0.1687
     25 C         -28.9442   50.4090  -18.6487 C.3     1  UNL1        0.1746
     26 O         -30.1894   49.7969  -18.9055 O.3     1  UNL1       -0.3463
     27 C         -29.3580   49.3901   -4.8918 C.2     1  UNL1        0.2483
     28 O         -29.2835   50.5984   -4.5374 O.2     1  UNL1       -0.2701
     29 N         -29.3600   48.3506   -3.8984 N.am    1  UNL1       -0.2945
     30 H         -29.4259   47.3634   -4.2217 H       1  UNL1        0.1501
     31 C         -29.6439   48.6170   -2.4840 C.3     1  UNL1        0.1535
     32 C         -30.6869   47.6599   -1.9327 C.2     1  UNL1        0.2443
     33 O         -31.4777   47.0916   -2.7324 O.2     1  UNL1       -0.2730
     34 N         -30.6609   47.2194   -0.5659 N.am    1  UNL1       -0.2825
     35 H         -30.5451   46.1955   -0.3933 H       1  UNL1        0.1549
     36 C         -30.8352   48.0862    0.5675 C.ar    1  UNL1        0.0535
     37 C         -31.4714   49.3309    0.4457 C.ar    1  UNL1        0.0353
     38 C         -31.5834   50.1610    1.5631 C.ar    1  UNL1        0.1002
     39 N         -31.1007   49.7531    2.7666 N.ar    1  UNL1       -0.2422
     40 C         -30.5096   48.5388    2.9213 C.ar    1  UNL1        0.1002
     41 C         -30.3777   47.6790    1.8277 C.ar    1  UNL1        0.0353
     42 C         -28.3378   48.6310   -1.6564 C.3     1  UNL1        0.0569
     43 C         -27.2129   47.8499   -2.2807 C.ar    1  UNL1       -0.0017
     44 C         -25.8848   48.2544   -2.3901 C.ar    1  UNL1        0.0681
     45 N         -25.1403   47.2839   -2.9667 N.ar    1  UNL1       -0.3523
     46 C         -25.9855   46.2718   -3.2265 C.ar    1  UNL1        0.0563
     47 C         -25.6772   45.0432   -3.8090 C.ar    1  UNL1        0.0170
     48 C         -26.7225   44.1186   -3.9861 C.ar    1  UNL1        0.0015
     49 C         -28.0381   44.4407   -3.5859 C.ar    1  UNL1        0.0001
     50 C         -28.3200   45.6889   -3.0023 C.ar    1  UNL1        0.0012
     51 C         -27.2613   46.5816   -2.8291 C.ar    1  UNL1        0.0131
     52 H         -24.1150   47.3157   -3.1619 H       1  UNL1        0.1660
@<TRIPOS>BOND
     1    25    26    1
     2    26    24    1
     3    24    14    1
     4    14    15   ar
     5    15    16   ar
     6    16     8    1
     7     8     9    1
     8     9    10    1
     9    10    11    1
    10    11     1    1
    11     1     2   ar
    12     2     3   ar
    13     3     4   ar
    14     4    27    1
    15    27    28    2
    16    27    29   am
    17    29    31    1
    18    31    42    1
    19    42    43    1
    20    43    44   ar
    21    44    45   ar
    22    45    46   ar
    23    46    47   ar
    24    47    48   ar
    25    48    49   ar
    26    49    50   ar
    27    50    51   ar
    28    31    32    1
    29    32    33    2
    30    32    34   am
    31    34    36    1
    32    36    37   ar
    33    37    38   ar
    34    38    39   ar
    35    39    40   ar
    36    40    41   ar
    37     4     5   ar
    38     5     6    1
    39     5     7   ar
    40    11    12    1
    41    12    13    1
    42    16    17   ar
    43    17    18   ar
    44    18    20    1
    45    20    21    1
    46    20    22    1
    47    20    23    1
    48    18    19   ar
    49    19    14   ar
    50    13     8    1
    51     7     1   ar
    52    51    43   ar
    53    41    36   ar
    54    51    46   ar
    55    29    30    1
    56    45    52    1
    57    34    35    1
