@<TRIPOS>MOLECULE
*****
 52 59 0 0 0
SMALL
GASTEIGER

@<TRIPOS>ATOM
      1 C          62.6406   87.0316   14.3007 C.ar    1  UNL1        0.0043
      2 C          64.0185   87.2970   14.2387 C.ar    1  UNL1        0.0060
      3 C          64.5172   88.5587   14.5479 C.ar    1  UNL1        0.0691
      4 C          63.6479   89.5860   14.9327 C.ar    1  UNL1        0.2270
      5 C          62.2678   89.3452   14.9697 C.ar    1  UNL1        0.0729
      6 C          61.7440   88.0665   14.6927 C.ar    1  UNL1        0.0773
      7 N          64.1701   90.8844   15.2863 N.am    1  UNL1       -0.0905
      8 C          64.2766   91.1553   16.6336 C.2     1  UNL1        0.4229
      9 O          63.7591   90.3866   17.4919 O.2     1  UNL1       -0.2135
     10 C          64.9878   92.2608   17.0877 C.2     1  UNL1        0.1157
     11 C          65.6520   93.0672   16.1826 C.2     1  UNL1        0.0173
     12 C          65.5406   92.8175   14.8153 C.ar    1  UNL1        0.0828
     13 C          66.2642   93.6057   13.9184 C.ar    1  UNL1        0.1047
     14 N          66.1618   93.3953   12.5887 N.ar    1  UNL1       -0.2434
     15 C          65.3229   92.4685   12.0682 C.ar    1  UNL1        0.0870
     16 C          65.2279   92.3667   10.6765 C.ar    1  UNL1        0.0193
     17 C          64.3035   91.5066   10.0940 C.ar    1  UNL1        0.0016
     18 C          63.4386   90.7631   10.8983 C.ar    1  UNL1        0.0018
     19 C          63.5189   90.8688   12.2948 C.ar    1  UNL1        0.0075
     20 C          64.5181   91.6583   12.9193 C.ar    1  UNL1        0.0810
     21 C          64.7125   91.7587   14.3460 C.ar    1  UNL1        0.2297
     22 C          62.4437   89.8727   10.2748 C.ar    1  UNL1        0.0192
     23 C          61.2360   90.3877    9.7837 C.ar    1  UNL1        0.0988
     24 N          60.3344   89.5663    9.1824 N.ar    1  UNL1       -0.2438
     25 C          60.5736   88.2375    9.0190 C.ar    1  UNL1        0.0813
     26 C          59.6279   87.4251    8.3818 C.ar    1  UNL1        0.0191
     27 C          59.8906   86.0649    8.1884 C.ar    1  UNL1        0.0015
     28 C          61.0991   85.5138    8.6251 C.ar    1  UNL1        0.0001
     29 C          62.0459   86.3157    9.2689 C.ar    1  UNL1        0.0015
     30 C          61.7860   87.6778    9.4801 C.ar    1  UNL1        0.0177
     31 C          62.7122   88.5050   10.1281 C.ar    1  UNL1        0.0030
     32 C          61.3887   83.0125   13.4237 C.ar    1  UNL1        0.0534
     33 C          61.9872   83.3271   14.6558 C.ar    1  UNL1        0.0045
     34 C          62.3938   84.6336   14.9314 C.ar    1  UNL1        0.0001
     35 C          62.1974   85.6539   13.9892 C.ar    1  UNL1       -0.0000
     36 C          61.6218   85.3406   12.7490 C.ar    1  UNL1        0.0001
     37 C          61.2075   84.0334   12.4739 C.ar    1  UNL1        0.0045
     38 N          59.7460   81.4037   12.3551 N.am    1  UNL1       -0.3024
     39 C          60.9274   81.6347   13.1389 C.2     1  UNL1        0.2458
     40 O          61.5796   80.6537   13.5901 O.2     1  UNL1       -0.2701
     41 H          59.0479   82.1765   12.2802 H       1  UNL1        0.1497
     42 C          58.1217   82.3588    9.0834 C.3     1  UNL1        0.0896
     43 N          58.7117   81.0137    8.9830 N.3     1  UNL1       -0.2714
     44 C          60.1456   81.0029    9.3778 C.3     1  UNL1        0.0738
     45 C          60.4812   79.9873   10.4825 C.3     1  UNL1        0.0369
     46 C          59.5058   80.1304   11.6612 C.3     1  UNL1        0.0746
     47 C          58.0308   80.0149   11.1903 C.3     1  UNL1        0.0369
     48 C          57.8760   79.9963    9.6571 C.3     1  UNL1        0.0738
     49 C          60.2419   87.8645   14.7846 C.3     1  UNL1        0.4188
     50 F          59.9301   86.6642   15.3934 F       1  UNL1       -0.1659
     51 F          59.6979   87.8861   13.5144 F       1  UNL1       -0.1659
     52 F          59.6527   88.8705   15.5319 F       1  UNL1       -0.1659
@<TRIPOS>BOND
     1    42    43    1
     2    43    44    1
     3    44    45    1
     4    45    46    1
     5    46    38    1
     6    38    39   am
     7    39    40    2
     8    39    32    1
     9    32    33   ar
    10    33    34   ar
    11    34    35   ar
    12    35     1    1
    13     1     2   ar
    14     2     3   ar
    15     3     4   ar
    16     4     7    1
    17     7     8    1
    18     8     9    2
    19     8    10    1
    20    10    11    2
    21    11    12    1
    22    12    13   ar
    23    13    14   ar
    24    14    15   ar
    25    15    16   ar
    26    16    17   ar
    27    17    18   ar
    28    18    22    1
    29    22    23   ar
    30    23    24   ar
    31    24    25   ar
    32    25    26   ar
    33    26    27   ar
    34    27    28   ar
    35    28    29   ar
    36    29    30   ar
    37    30    31   ar
    38    18    19   ar
    39    19    20   ar
    40    20    21   ar
    41     4     5   ar
    42     5     6   ar
    43     6    49    1
    44    49    50    1
    45    49    51    1
    46    49    52    1
    47    35    36   ar
    48    36    37   ar
    49    46    47    1
    50    47    48    1
    51    48    43    1
    52    37    32   ar
    53     6     1   ar
    54    21     7    1
    55    21    12   ar
    56    20    15   ar
    57    31    22   ar
    58    30    25   ar
    59    38    41    1
@<TRIPOS>MOLECULE
*****
 52 59 0 0 0
SMALL
GASTEIGER

@<TRIPOS>ATOM
      1 C          61.3669   87.2314   10.8972 C.ar    1  UNL1        0.0043
      2 C          61.9266   86.1352   10.2203 C.ar    1  UNL1        0.0060
      3 C          61.1855   84.9786    9.9991 C.ar    1  UNL1        0.0691
      4 C          59.8618   84.8926   10.4460 C.ar    1  UNL1        0.2270
      5 C          59.2994   85.9662   11.1497 C.ar    1  UNL1        0.0729
      6 C          60.0205   87.1593   11.3560 C.ar    1  UNL1        0.0773
      7 N          59.0835   83.7052   10.1855 N.am    1  UNL1       -0.0905
      8 C          58.1588   83.7906    9.1669 C.2     1  UNL1        0.4229
      9 O          57.8793   84.9026    8.6370 O.2     1  UNL1       -0.2135
     10 C          57.5354   82.6516    8.6683 C.2     1  UNL1        0.1157
     11 C          57.8909   81.4076    9.1547 C.2     1  UNL1        0.0173
     12 C          58.8116   81.3046   10.1968 C.ar    1  UNL1        0.0828
     13 C          59.2029   80.0385   10.6365 C.ar    1  UNL1        0.1047
     14 N          60.0806   79.9109   11.6544 N.ar    1  UNL1       -0.2434
     15 C          60.5678   80.9820   12.3246 C.ar    1  UNL1        0.0870
     16 C          61.4173   80.7541   13.4120 C.ar    1  UNL1        0.0193
     17 C          61.8572   81.8139   14.1973 C.ar    1  UNL1        0.0016
     18 C          61.4236   83.1120   13.9240 C.ar    1  UNL1        0.0018
     19 C          60.5615   83.3476   12.8428 C.ar    1  UNL1        0.0075
     20 C          60.1779   82.3033   11.9630 C.ar    1  UNL1        0.0810
     21 C          59.3571   82.4788   10.7889 C.ar    1  UNL1        0.2297
     22 C          61.8726   84.2278   14.7753 C.ar    1  UNL1        0.0192
     23 C          62.8419   84.0215   15.7668 C.ar    1  UNL1        0.0988
     24 N          63.2744   85.0608   16.5296 N.ar    1  UNL1       -0.2438
     25 C          62.8054   86.3248   16.3504 C.ar    1  UNL1        0.0813
     26 C          63.2849   87.3729   17.1453 C.ar    1  UNL1        0.0191
     27 C          62.8226   88.6766   16.9377 C.ar    1  UNL1        0.0015
     28 C          61.8856   88.9382   15.9334 C.ar    1  UNL1        0.0001
     29 C          61.3959   87.8968   15.1400 C.ar    1  UNL1        0.0015
     30 C          61.8426   86.5839   15.3496 C.ar    1  UNL1        0.0177
     31 C          61.3651   85.5187   14.5752 C.ar    1  UNL1        0.0030
     32 C          63.8175   90.7261   11.4180 C.ar    1  UNL1        0.0534
     33 C          63.7831   89.7189   12.3976 C.ar    1  UNL1        0.0045
     34 C          62.9824   88.5891   12.2224 C.ar    1  UNL1        0.0001
     35 C          62.2125   88.4355   11.0601 C.ar    1  UNL1       -0.0000
     36 C          62.2253   89.4488   10.0902 C.ar    1  UNL1        0.0001
     37 C          63.0324   90.5782   10.2609 C.ar    1  UNL1        0.0045
     38 N          65.5019   92.0650   12.7593 N.am    1  UNL1       -0.3024
     39 C          64.6890   91.9114   11.5849 C.2     1  UNL1        0.2458
     40 O          64.7172   92.7954   10.6855 O.2     1  UNL1       -0.2701
     41 H          65.2297   91.5357   13.6171 H       1  UNL1        0.1497
     42 C          66.3904   92.4337   16.4102 C.3     1  UNL1        0.0896
     43 N          67.5597   92.7412   15.5701 N.3     1  UNL1       -0.2714
     44 C          67.8625   91.6440   14.6127 C.3     1  UNL1        0.0738
     45 C          67.9315   92.0976   13.1451 C.3     1  UNL1        0.0369
     46 C          66.6916   92.9278   12.7781 C.3     1  UNL1        0.0746
     47 C          66.5050   94.1236   13.7508 C.3     1  UNL1        0.0369
     48 C          67.4591   94.0850   14.9603 C.3     1  UNL1        0.0738
     49 C          59.3400   88.2971   12.0962 C.3     1  UNL1        0.4188
     50 F          60.0960   88.7240   13.1709 F       1  UNL1       -0.1659
     51 F          58.1036   87.8759   12.5475 F       1  UNL1       -0.1659
     52 F          59.1554   89.3880   11.2635 F       1  UNL1       -0.1659
@<TRIPOS>BOND
     1    42    43    1
     2    43    44    1
     3    44    45    1
     4    45    46    1
     5    46    38    1
     6    38    39   am
     7    39    40    2
     8    39    32    1
     9    32    33   ar
    10    33    34   ar
    11    34    35   ar
    12    35     1    1
    13     1     2   ar
    14     2     3   ar
    15     3     4   ar
    16     4     7    1
    17     7     8    1
    18     8     9    2
    19     8    10    1
    20    10    11    2
    21    11    12    1
    22    12    13   ar
    23    13    14   ar
    24    14    15   ar
    25    15    16   ar
    26    16    17   ar
    27    17    18   ar
    28    18    22    1
    29    22    23   ar
    30    23    24   ar
    31    24    25   ar
    32    25    26   ar
    33    26    27   ar
    34    27    28   ar
    35    28    29   ar
    36    29    30   ar
    37    30    31   ar
    38    18    19   ar
    39    19    20   ar
    40    20    21   ar
    41     4     5   ar
    42     5     6   ar
    43     6    49    1
    44    49    50    1
    45    49    51    1
    46    49    52    1
    47    35    36   ar
    48    36    37   ar
    49    46    47    1
    50    47    48    1
    51    48    43    1
    52    37    32   ar
    53     6     1   ar
    54    21     7    1
    55    21    12   ar
    56    20    15   ar
    57    31    22   ar
    58    30    25   ar
    59    38    41    1
@<TRIPOS>MOLECULE
*****
 52 59 0 0 0
SMALL
GASTEIGER

@<TRIPOS>ATOM
      1 C          61.2394   86.5684   10.5259 C.ar    1  UNL1        0.0043
      2 C          60.0845   86.3929   11.3060 C.ar    1  UNL1        0.0060
      3 C          59.3479   85.2145   11.2358 C.ar    1  UNL1        0.0691
      4 C          59.7530   84.1788   10.3859 C.ar    1  UNL1        0.2270
      5 C          60.8857   84.3510    9.5788 C.ar    1  UNL1        0.0729
      6 C          61.6650   85.5225    9.6579 C.ar    1  UNL1        0.0773
      7 N          59.0072   82.9438   10.3399 N.am    1  UNL1       -0.0905
      8 C          58.0396   82.8490    9.3628 C.2     1  UNL1        0.4229
      9 O          57.6999   83.8606    8.6870 O.2     1  UNL1       -0.2135
     10 C          57.4372   81.6307    9.0675 C.2     1  UNL1        0.1157
     11 C          57.8558   80.4843    9.7164 C.2     1  UNL1        0.0173
     12 C          58.8210   80.5651   10.7195 C.ar    1  UNL1        0.0828
     13 C          59.2742   79.3910   11.3240 C.ar    1  UNL1        0.1047
     14 N          60.1963   79.4426   12.3088 N.ar    1  UNL1       -0.2434
     15 C          60.6720   80.6157   12.7900 C.ar    1  UNL1        0.0870
     16 C          61.5724   80.5778   13.8595 C.ar    1  UNL1        0.0193
     17 C          62.0060   81.7555   14.4582 C.ar    1  UNL1        0.0016
     18 C          61.5161   82.9850   14.0153 C.ar    1  UNL1        0.0018
     19 C          60.6031   83.0311   12.9512 C.ar    1  UNL1        0.0075
     20 C          60.2215   81.8561   12.2544 C.ar    1  UNL1        0.0810
     21 C          59.3482   81.8301   11.1055 C.ar    1  UNL1        0.2297
     22 C          61.9595   84.2282   14.6705 C.ar    1  UNL1        0.0192
     23 C          63.1667   84.2666   15.3820 C.ar    1  UNL1        0.0988
     24 N          63.5857   85.4241   15.9594 N.ar    1  UNL1       -0.2438
     25 C          62.8711   86.5766   15.8545 C.ar    1  UNL1        0.0813
     26 C          63.3414   87.7532   16.4503 C.ar    1  UNL1        0.0191
     27 C          62.6191   88.9433   16.3146 C.ar    1  UNL1        0.0015
     28 C          61.4296   88.9633   15.5800 C.ar    1  UNL1        0.0001
     29 C          60.9488   87.7919   14.9880 C.ar    1  UNL1        0.0015
     30 C          61.6584   86.5904   15.1301 C.ar    1  UNL1        0.0177
     31 C          61.1982   85.3992   14.5544 C.ar    1  UNL1        0.0030
     32 C          63.3972   90.2521   11.0397 C.ar    1  UNL1        0.0534
     33 C          63.4935   89.2229   11.9919 C.ar    1  UNL1        0.0045
     34 C          62.7873   88.0314   11.8194 C.ar    1  UNL1        0.0001
     35 C          61.9834   87.8381   10.6864 C.ar    1  UNL1       -0.0000
     36 C          61.8655   88.8712    9.7448 C.ar    1  UNL1        0.0001
     37 C          62.5780   90.0629    9.9126 C.ar    1  UNL1        0.0045
     38 N          65.1582   91.6287   12.2366 N.am    1  UNL1       -0.3024
     39 C          64.1688   91.5053   11.2025 C.2     1  UNL1        0.2458
     40 O          63.9541   92.4745   10.4242 O.2     1  UNL1       -0.2701
     41 H          65.0931   90.9864   13.0572 H       1  UNL1        0.1497
     42 C          65.9817   92.4527   15.8279 C.3     1  UNL1        0.0896
     43 N          67.1145   92.8020   14.9548 N.3     1  UNL1       -0.2714
     44 C          67.5410   91.6553   14.1091 C.3     1  UNL1        0.0738
     45 C          67.5675   91.9661   12.6034 C.3     1  UNL1        0.0369
     46 C          66.2459   92.6146   12.1630 C.3     1  UNL1        0.0746
     47 C          65.9239   93.8730   13.0135 C.3     1  UNL1        0.0369
     48 C          66.8701   94.0596   14.2155 C.3     1  UNL1        0.0738
     49 C          62.8998   85.6307    8.7809 C.3     1  UNL1        0.4188
     50 F          63.3853   86.9237    8.7497 F       1  UNL1       -0.1659
     51 F          62.5859   85.2308    7.4958 F       1  UNL1       -0.1659
     52 F          63.9168   84.8204    9.2569 F       1  UNL1       -0.1659
@<TRIPOS>BOND
     1    42    43    1
     2    43    44    1
     3    44    45    1
     4    45    46    1
     5    46    38    1
     6    38    39   am
     7    39    40    2
     8    39    32    1
     9    32    33   ar
    10    33    34   ar
    11    34    35   ar
    12    35     1    1
    13     1     2   ar
    14     2     3   ar
    15     3     4   ar
    16     4     7    1
    17     7     8    1
    18     8     9    2
    19     8    10    1
    20    10    11    2
    21    11    12    1
    22    12    13   ar
    23    13    14   ar
    24    14    15   ar
    25    15    16   ar
    26    16    17   ar
    27    17    18   ar
    28    18    22    1
    29    22    23   ar
    30    23    24   ar
    31    24    25   ar
    32    25    26   ar
    33    26    27   ar
    34    27    28   ar
    35    28    29   ar
    36    29    30   ar
    37    30    31   ar
    38    18    19   ar
    39    19    20   ar
    40    20    21   ar
    41     4     5   ar
    42     5     6   ar
    43     6    49    1
    44    49    50    1
    45    49    51    1
    46    49    52    1
    47    35    36   ar
    48    36    37   ar
    49    46    47    1
    50    47    48    1
    51    48    43    1
    52    37    32   ar
    53     6     1   ar
    54    21     7    1
    55    21    12   ar
    56    20    15   ar
    57    31    22   ar
    58    30    25   ar
    59    38    41    1
@<TRIPOS>MOLECULE
*****
 52 59 0 0 0
SMALL
GASTEIGER

@<TRIPOS>ATOM
      1 C          62.1004   87.1842   14.1026 C.ar    1  UNL1        0.0043
      2 C          61.3922   88.3973   14.1033 C.ar    1  UNL1        0.0060
      3 C          62.0072   89.5828   14.4938 C.ar    1  UNL1        0.0691
      4 C          63.3501   89.5842   14.8886 C.ar    1  UNL1        0.2270
      5 C          64.0611   88.3769   14.9224 C.ar    1  UNL1        0.0729
      6 C          63.4681   87.1704   14.4999 C.ar    1  UNL1        0.0773
      7 N          63.9961   90.8203   15.2604 N.am    1  UNL1       -0.0905
      8 C          64.1037   91.0725   16.6112 C.2     1  UNL1        0.4229
      9 O          63.4934   90.3572   17.4546 O.2     1  UNL1       -0.2135
     10 C          64.9159   92.0969   17.0859 C.2     1  UNL1        0.1157
     11 C          65.6769   92.8348   16.1987 C.2     1  UNL1        0.0173
     12 C          65.5668   92.6043   14.8279 C.ar    1  UNL1        0.0828
     13 C          66.3849   93.3179   13.9500 C.ar    1  UNL1        0.1047
     14 N          66.2872   93.1254   12.6173 N.ar    1  UNL1       -0.2434
     15 C          65.3676   92.2922   12.0750 C.ar    1  UNL1        0.0870
     16 C          65.2895   92.2071   10.6812 C.ar    1  UNL1        0.0193
     17 C          64.2931   91.4495   10.0757 C.ar    1  UNL1        0.0016
     18 C          63.3409   90.7952   10.8588 C.ar    1  UNL1        0.0018
     19 C          63.4047   90.8856   12.2572 C.ar    1  UNL1        0.0075
     20 C          64.4674   91.5652   12.9055 C.ar    1  UNL1        0.0810
     21 C          64.6435   91.6385   14.3362 C.ar    1  UNL1        0.2297
     22 C          62.2721   90.0148   10.2109 C.ar    1  UNL1        0.0192
     23 C          61.0711   90.6303    9.8314 C.ar    1  UNL1        0.0988
     24 N          60.1000   89.9120    9.2069 N.ar    1  UNL1       -0.2438
     25 C          60.2609   88.5939    8.9130 C.ar    1  UNL1        0.0813
     26 C          59.2445   87.8899    8.2559 C.ar    1  UNL1        0.0191
     27 C          59.4257   86.5423    7.9283 C.ar    1  UNL1        0.0015
     28 C          60.6229   85.8958    8.2503 C.ar    1  UNL1        0.0001
     29 C          61.6402   86.5887    8.9129 C.ar    1  UNL1        0.0015
     30 C          61.4626   87.9365    9.2584 C.ar    1  UNL1        0.0177
     31 C          62.4609   88.6551    9.9286 C.ar    1  UNL1        0.0030
     32 C          59.9810   83.7019   12.7348 C.ar    1  UNL1        0.0534
     33 C          60.0519   84.8592   11.9406 C.ar    1  UNL1        0.0045
     34 C          60.7390   85.9866   12.3933 C.ar    1  UNL1        0.0001
     35 C          61.3812   85.9758   13.6402 C.ar    1  UNL1       -0.0000
     36 C          61.2937   84.8314   14.4467 C.ar    1  UNL1        0.0001
     37 C          60.6115   83.6985   13.9916 C.ar    1  UNL1        0.0045
     38 N          58.6604   82.4778   10.9498 N.am    1  UNL1       -0.3024
     39 C          59.2798   82.4929   12.2457 C.2     1  UNL1        0.2458
     40 O          59.2263   81.4657   12.9759 O.2     1  UNL1       -0.2701
     41 H          58.4155   83.3936   10.5122 H       1  UNL1        0.1497
     42 C          60.1658   82.9432    7.5188 C.3     1  UNL1        0.0896
     43 N          59.9887   81.5099    7.8047 N.3     1  UNL1       -0.2714
     44 C          60.6261   81.1145    9.0891 C.3     1  UNL1        0.0738
     45 C          59.6713   80.4144   10.0702 C.3     1  UNL1        0.0369
     46 C          58.3766   81.2255   10.2345 C.3     1  UNL1        0.0746
     47 C          57.7050   81.5005    8.8619 C.3     1  UNL1        0.0369
     48 C          58.5774   81.0916    7.6592 C.3     1  UNL1        0.0738
     49 C          64.3050   85.9038   14.5288 C.3     1  UNL1        0.4188
     50 F          63.8744   85.0364   15.5141 F       1  UNL1       -0.1659
     51 F          65.6274   86.2333   14.7580 F       1  UNL1       -0.1659
     52 F          64.2231   85.2295   13.3221 F       1  UNL1       -0.1659
@<TRIPOS>BOND
     1    42    43    1
     2    43    44    1
     3    44    45    1
     4    45    46    1
     5    46    38    1
     6    38    39   am
     7    39    40    2
     8    39    32    1
     9    32    33   ar
    10    33    34   ar
    11    34    35   ar
    12    35     1    1
    13     1     2   ar
    14     2     3   ar
    15     3     4   ar
    16     4     7    1
    17     7     8    1
    18     8     9    2
    19     8    10    1
    20    10    11    2
    21    11    12    1
    22    12    13   ar
    23    13    14   ar
    24    14    15   ar
    25    15    16   ar
    26    16    17   ar
    27    17    18   ar
    28    18    22    1
    29    22    23   ar
    30    23    24   ar
    31    24    25   ar
    32    25    26   ar
    33    26    27   ar
    34    27    28   ar
    35    28    29   ar
    36    29    30   ar
    37    30    31   ar
    38    18    19   ar
    39    19    20   ar
    40    20    21   ar
    41     4     5   ar
    42     5     6   ar
    43     6    49    1
    44    49    50    1
    45    49    51    1
    46    49    52    1
    47    35    36   ar
    48    36    37   ar
    49    46    47    1
    50    47    48    1
    51    48    43    1
    52    37    32   ar
    53     6     1   ar
    54    21     7    1
    55    21    12   ar
    56    20    15   ar
    57    31    22   ar
    58    30    25   ar
    59    38    41    1
@<TRIPOS>MOLECULE
*****
 52 59 0 0 0
SMALL
GASTEIGER

@<TRIPOS>ATOM
      1 C          61.3437   87.1752   10.9655 C.ar    1  UNL1        0.0043
      2 C          61.9444   86.0950   10.2981 C.ar    1  UNL1        0.0060
      3 C          61.2566   84.9002   10.1105 C.ar    1  UNL1        0.0691
      4 C          59.9464   84.7587   10.5823 C.ar    1  UNL1        0.2270
      5 C          59.3446   85.8167   11.2770 C.ar    1  UNL1        0.0729
      6 C          60.0104   87.0468   11.4494 C.ar    1  UNL1        0.0773
      7 N          59.2223   83.5306   10.3566 N.am    1  UNL1       -0.0905
      8 C          58.2811   83.5511    9.3498 C.2     1  UNL1        0.4229
      9 O          57.9419   84.6374    8.8020 O.2     1  UNL1       -0.2135
     10 C          57.7062   82.3738    8.8829 C.2     1  UNL1        0.1157
     11 C          58.1272   81.1583    9.3888 C.2     1  UNL1        0.0173
     12 C          59.0656   81.1205   10.4195 C.ar    1  UNL1        0.0828
     13 C          59.5227   79.8838   10.8786 C.ar    1  UNL1        0.1047
     14 N          60.4190   79.8189   11.8862 N.ar    1  UNL1       -0.2434
     15 C          60.8633   80.9255   12.5280 C.ar    1  UNL1        0.0870
     16 C          61.7372   80.7605   13.6074 C.ar    1  UNL1        0.0193
     17 C          62.1364   81.8559   14.3652 C.ar    1  UNL1        0.0016
     18 C          61.6377   83.1261   14.0723 C.ar    1  UNL1        0.0018
     19 C          60.7509   83.2983   12.9991 C.ar    1  UNL1        0.0075
     20 C          60.4060   82.2191   12.1458 C.ar    1  UNL1        0.0810
     21 C          59.5622   82.3313   10.9803 C.ar    1  UNL1        0.2297
     22 C          62.0442   84.2792   14.8948 C.ar    1  UNL1        0.0192
     23 C          63.0513   84.1451   15.8607 C.ar    1  UNL1        0.0988
     24 N          63.4434   85.2195   16.5962 N.ar    1  UNL1       -0.2438
     25 C          62.8962   86.4511   16.4132 C.ar    1  UNL1        0.0813
     26 C          63.3355   87.5376   17.1793 C.ar    1  UNL1        0.0191
     27 C          62.7919   88.8087   16.9672 C.ar    1  UNL1        0.0015
     28 C          61.8133   88.9998   15.9869 C.ar    1  UNL1        0.0001
     29 C          61.3634   87.9194   15.2224 C.ar    1  UNL1        0.0015
     30 C          61.8921   86.6381   15.4372 C.ar    1  UNL1        0.0177
     31 C          61.4564   85.5351   14.6917 C.ar    1  UNL1        0.0030
     32 C          63.6419   90.7954   11.2859 C.ar    1  UNL1        0.0534
     33 C          62.8906   90.5199   10.1306 C.ar    1  UNL1        0.0045
     34 C          62.1499   89.3409   10.0331 C.ar    1  UNL1        0.0001
     35 C          62.1326   88.4215   11.0922 C.ar    1  UNL1       -0.0000
     36 C          62.8992   88.6808   12.2380 C.ar    1  UNL1        0.0001
     37 C          63.6364   89.8649   12.3401 C.ar    1  UNL1        0.0045
     38 N          65.1245   92.3693   12.6102 N.am    1  UNL1       -0.3024
     39 C          64.4041   92.0590   11.4067 C.2     1  UNL1        0.2458
     40 O          64.4204   92.8713   10.4417 O.2     1  UNL1       -0.2701
     41 H          64.8401   91.8857   13.4908 H       1  UNL1        0.1497
     42 C          67.4265   91.1488   15.3426 C.3     1  UNL1        0.0896
     43 N          68.1607   92.0247   14.4144 N.3     1  UNL1       -0.2714
     44 C          68.0241   91.5797   13.0018 C.3     1  UNL1        0.0738
     45 C          67.5016   92.6699   12.0517 C.3     1  UNL1        0.0369
     46 C          66.2384   93.3280   12.6284 C.3     1  UNL1        0.0746
     47 C          66.4895   93.8727   14.0605 C.3     1  UNL1        0.0369
     48 C          67.8514   93.4524   14.6466 C.3     1  UNL1        0.0738
     49 C          59.2881   88.1640   12.1814 C.3     1  UNL1        0.4188
     50 F          57.9791   87.8213   12.4602 F       1  UNL1       -0.1659
     51 F          59.3044   89.3067   11.4044 F       1  UNL1       -0.1659
     52 F          59.9063   88.4446   13.3883 F       1  UNL1       -0.1659
@<TRIPOS>BOND
     1    42    43    1
     2    43    44    1
     3    44    45    1
     4    45    46    1
     5    46    38    1
     6    38    39   am
     7    39    40    2
     8    39    32    1
     9    32    33   ar
    10    33    34   ar
    11    34    35   ar
    12    35     1    1
    13     1     2   ar
    14     2     3   ar
    15     3     4   ar
    16     4     7    1
    17     7     8    1
    18     8     9    2
    19     8    10    1
    20    10    11    2
    21    11    12    1
    22    12    13   ar
    23    13    14   ar
    24    14    15   ar
    25    15    16   ar
    26    16    17   ar
    27    17    18   ar
    28    18    22    1
    29    22    23   ar
    30    23    24   ar
    31    24    25   ar
    32    25    26   ar
    33    26    27   ar
    34    27    28   ar
    35    28    29   ar
    36    29    30   ar
    37    30    31   ar
    38    18    19   ar
    39    19    20   ar
    40    20    21   ar
    41     4     5   ar
    42     5     6   ar
    43     6    49    1
    44    49    50    1
    45    49    51    1
    46    49    52    1
    47    35    36   ar
    48    36    37   ar
    49    46    47    1
    50    47    48    1
    51    48    43    1
    52    37    32   ar
    53     6     1   ar
    54    21     7    1
    55    21    12   ar
    56    20    15   ar
    57    31    22   ar
    58    30    25   ar
    59    38    41    1
@<TRIPOS>MOLECULE
*****
 52 59 0 0 0
SMALL
GASTEIGER

@<TRIPOS>ATOM
      1 C          62.0363   86.1379   14.0598 C.ar    1  UNL1        0.0043
      2 C          62.9495   85.0988   13.8162 C.ar    1  UNL1        0.0060
      3 C          62.5186   83.8701   13.3257 C.ar    1  UNL1        0.0691
      4 C          61.1615   83.6527   13.0611 C.ar    1  UNL1        0.2270
      5 C          60.2344   84.6694   13.3279 C.ar    1  UNL1        0.0729
      6 C          60.6523   85.9322   13.7935 C.ar    1  UNL1        0.0773
      7 N          60.7207   82.3893   12.5199 N.am    1  UNL1       -0.0905
      8 C          61.1743   81.2568   13.1616 C.2     1  UNL1        0.4229
      9 O          62.0780   81.3284   14.0411 O.2     1  UNL1       -0.2135
     10 C          60.6244   80.0092   12.8866 C.2     1  UNL1        0.1157
     11 C          59.5653   79.9067   12.0043 C.2     1  UNL1        0.0173
     12 C          59.1057   81.0396   11.3337 C.ar    1  UNL1        0.0828
     13 C          57.9983   80.9289   10.4907 C.ar    1  UNL1        0.1047
     14 N          57.5430   82.0068    9.8172 N.ar    1  UNL1       -0.2434
     15 C          58.1626   83.2094    9.8783 C.ar    1  UNL1        0.0870
     16 C          57.6640   84.2533    9.0924 C.ar    1  UNL1        0.0193
     17 C          58.3277   85.4740    9.0380 C.ar    1  UNL1        0.0016
     18 C          59.5186   85.6528    9.7435 C.ar    1  UNL1        0.0018
     19 C          60.0321   84.6067   10.5243 C.ar    1  UNL1        0.0075
     20 C          59.3256   83.3868   10.6811 C.ar    1  UNL1        0.0810
     21 C          59.7498   82.2949   11.5243 C.ar    1  UNL1        0.2297
     22 C          60.2311   86.9401    9.6617 C.ar    1  UNL1        0.0192
     23 C          59.9296   87.8574    8.6455 C.ar    1  UNL1        0.0988
     24 N          60.5690   89.0563    8.5922 N.ar    1  UNL1       -0.2438
     25 C          61.4974   89.4149    9.5192 C.ar    1  UNL1        0.0813
     26 C          62.1249   90.6640    9.4405 C.ar    1  UNL1        0.0191
     27 C          63.0568   91.0415   10.4128 C.ar    1  UNL1        0.0015
     28 C          63.3605   90.1762   11.4684 C.ar    1  UNL1        0.0001
     29 C          62.7444   88.9242   11.5508 C.ar    1  UNL1        0.0015
     30 C          61.8190   88.5307   10.5730 C.ar    1  UNL1        0.0177
     31 C          61.1906   87.2798   10.6250 C.ar    1  UNL1        0.0030
     32 C          63.6667   89.8557   15.4775 C.ar    1  UNL1        0.0534
     33 C          64.3958   89.0401   14.5952 C.ar    1  UNL1        0.0045
     34 C          63.8608   87.8332   14.1422 C.ar    1  UNL1        0.0001
     35 C          62.5823   87.4241   14.5489 C.ar    1  UNL1       -0.0000
     36 C          61.8602   88.2231   15.4478 C.ar    1  UNL1        0.0001
     37 C          62.3919   89.4361   15.8971 C.ar    1  UNL1        0.0045
     38 N          65.5832   91.5049   15.6678 N.am    1  UNL1       -0.3024
     39 C          64.2169   91.1516   15.9362 C.2     1  UNL1        0.2458
     40 O          63.4770   91.9533   16.5695 O.2     1  UNL1       -0.2701
     41 H          66.2575   90.7350   15.4609 H       1  UNL1        0.1497
     42 C          68.9448   91.4324   13.9506 C.3     1  UNL1        0.0896
     43 N          68.3836   92.7928   13.9096 N.3     1  UNL1       -0.2714
     44 C          67.0112   92.8129   13.3366 C.3     1  UNL1        0.0738
     45 C          65.9645   93.4767   14.2467 C.3     1  UNL1        0.0369
     46 C          66.0435   92.9007   15.6691 C.3     1  UNL1        0.0746
     47 C          67.4796   93.0198   16.2472 C.3     1  UNL1        0.0369
     48 C          68.5217   93.4828   15.2107 C.3     1  UNL1        0.0738
     49 C          59.5999   87.0009   14.0295 C.3     1  UNL1        0.4188
     50 F          59.6070   87.4358   15.3407 F       1  UNL1       -0.1659
     51 F          58.3521   86.4906   13.7254 F       1  UNL1       -0.1659
     52 F          59.8296   88.1064   13.2277 F       1  UNL1       -0.1659
@<TRIPOS>BOND
     1    42    43    1
     2    43    44    1
     3    44    45    1
     4    45    46    1
     5    46    38    1
     6    38    39   am
     7    39    40    2
     8    39    32    1
     9    32    33   ar
    10    33    34   ar
    11    34    35   ar
    12    35     1    1
    13     1     2   ar
    14     2     3   ar
    15     3     4   ar
    16     4     7    1
    17     7     8    1
    18     8     9    2
    19     8    10    1
    20    10    11    2
    21    11    12    1
    22    12    13   ar
    23    13    14   ar
    24    14    15   ar
    25    15    16   ar
    26    16    17   ar
    27    17    18   ar
    28    18    22    1
    29    22    23   ar
    30    23    24   ar
    31    24    25   ar
    32    25    26   ar
    33    26    27   ar
    34    27    28   ar
    35    28    29   ar
    36    29    30   ar
    37    30    31   ar
    38    18    19   ar
    39    19    20   ar
    40    20    21   ar
    41     4     5   ar
    42     5     6   ar
    43     6    49    1
    44    49    50    1
    45    49    51    1
    46    49    52    1
    47    35    36   ar
    48    36    37   ar
    49    46    47    1
    50    47    48    1
    51    48    43    1
    52    37    32   ar
    53     6     1   ar
    54    21     7    1
    55    21    12   ar
    56    20    15   ar
    57    31    22   ar
    58    30    25   ar
    59    38    41    1
