@<TRIPOS>MOLECULE
*****
 51 56 0 0 0
SMALL
GASTEIGER

@<TRIPOS>ATOM
      1 O         -62.9529  -54.5686  -22.4297 O.2     1  UNL1       -0.2701
      2 C         -63.8999  -53.7903  -22.7284 C.2     1  UNL1        0.2483
      3 N         -65.2528  -54.1648  -22.4253 N.am    1  UNL1       -0.2945
      4 H         -65.9874  -53.4213  -22.4095 H       1  UNL1        0.1501
      5 C         -63.5953  -52.4853  -23.3575 C.ar    1  UNL1        0.0808
      6 C         -64.4435  -51.9825  -24.3571 C.ar    1  UNL1        0.0080
      7 C         -64.1744  -50.7549  -24.9674 C.ar    1  UNL1        0.0148
      8 C         -63.0557  -49.9952  -24.5834 C.ar    1  UNL1        0.0502
      9 C         -62.2148  -50.4928  -23.5730 C.ar    1  UNL1        0.0443
     10 C         -62.4814  -51.7213  -22.9607 C.ar    1  UNL1        0.1457
     11 F         -61.6772  -52.1313  -21.9476 F       1  UNL1       -0.2040
     12 N         -62.7723  -48.7274  -25.2164 N.pl3   1  UNL1       -0.3040
     13 C         -61.7841  -48.6447  -26.3012 C.3     1  UNL1        0.1123
     14 C         -62.1621  -47.5438  -27.2984 C.3     1  UNL1        0.1136
     15 N         -62.4697  -46.2721  -26.6221 N.pl3   1  UNL1       -0.2897
     16 C         -62.6397  -46.2467  -25.1623 C.3     1  UNL1        0.1136
     17 C         -63.3827  -47.4983  -24.6857 C.3     1  UNL1        0.1123
     18 C         -62.4677  -45.0305  -27.3629 C.ar    1  UNL1        0.1349
     19 C         -62.0169  -44.9710  -28.6899 C.ar    1  UNL1        0.0345
     20 C         -62.0299  -43.7544  -29.3703 C.ar    1  UNL1        0.0114
     21 C         -62.4924  -42.5859  -28.7399 C.ar    1  UNL1        0.1243
     22 C         -62.9438  -42.6866  -27.4026 C.ar    1  UNL1        0.2266
     23 O         -63.4246  -41.5842  -26.6936 O.3     1  UNL1       -0.4920
     24 N         -62.9159  -43.8898  -26.7702 N.ar    1  UNL1       -0.1969
     25 H         -63.4833  -40.6526  -27.0822 H       1  UNL1        0.2937
     26 C         -62.5048  -41.2669  -29.4823 C.3     1  UNL1        0.4229
     27 F         -61.9671  -41.4389  -30.7450 F       1  UNL1       -0.1657
     28 F         -63.8050  -40.8085  -29.5947 F       1  UNL1       -0.1657
     29 F         -61.7623  -40.3005  -28.8251 F       1  UNL1       -0.1657
     30 C         -65.5963  -55.5036  -21.9356 C.3     1  UNL1        0.1535
     31 C         -66.6161  -55.4004  -20.8351 C.2     1  UNL1        0.2443
     32 O         -66.6012  -56.2378  -19.8916 O.2     1  UNL1       -0.2730
     33 N         -67.5397  -54.3008  -20.8176 N.am    1  UNL1       -0.2825
     34 H         -67.3152  -53.4671  -21.4069 H       1  UNL1        0.1549
     35 C         -68.6968  -54.2354  -19.9668 C.ar    1  UNL1        0.0535
     36 C         -69.8683  -53.6301  -20.4422 C.ar    1  UNL1        0.0353
     37 C         -71.0026  -53.5844  -19.6282 C.ar    1  UNL1        0.1002
     38 N         -70.9746  -54.1392  -18.3877 N.ar    1  UNL1       -0.2422
     39 C         -69.8601  -54.7503  -17.9064 C.ar    1  UNL1        0.1002
     40 C         -68.7035  -54.8170  -18.6874 C.ar    1  UNL1        0.0353
     41 C         -66.1411  -56.3794  -23.0760 C.3     1  UNL1        0.0569
     42 C         -67.2542  -55.6868  -23.8072 C.ar    1  UNL1       -0.0017
     43 C         -67.1260  -54.8384  -24.9029 C.ar    1  UNL1        0.0681
     44 N         -68.3445  -54.4620  -25.3534 N.ar    1  UNL1       -0.3523
     45 C         -69.2398  -55.0725  -24.5576 C.ar    1  UNL1        0.0563
     46 C         -70.6299  -55.0057  -24.6422 C.ar    1  UNL1        0.0170
     47 C         -71.3816  -55.7465  -23.7116 C.ar    1  UNL1        0.0015
     48 C         -70.7344  -56.5308  -22.7308 C.ar    1  UNL1        0.0001
     49 C         -69.3298  -56.5809  -22.6707 C.ar    1  UNL1        0.0012
     50 C         -68.6122  -55.8323  -23.6039 C.ar    1  UNL1        0.0131
     51 H         -68.5446  -53.8364  -26.1652 H       1  UNL1        0.1660
@<TRIPOS>BOND
     1     1     2    2
     2     2     3   am
     3     3    30    1
     4    30    41    1
     5    41    42    1
     6    42    43   ar
     7    43    44   ar
     8    44    45   ar
     9    45    46   ar
    10    46    47   ar
    11    47    48   ar
    12    48    49   ar
    13    49    50   ar
    14    30    31    1
    15    31    32    2
    16    31    33   am
    17    33    35    1
    18    35    36   ar
    19    36    37   ar
    20    37    38   ar
    21    38    39   ar
    22    39    40   ar
    23     2     5    1
    24     5     6   ar
    25     6     7   ar
    26     7     8   ar
    27     8    12    1
    28    12    13    1
    29    13    14    1
    30    14    15    1
    31    15    18    1
    32    18    19   ar
    33    19    20   ar
    34    20    21   ar
    35    21    26    1
    36    26    27    1
    37    26    28    1
    38    26    29    1
    39    21    22   ar
    40    22    23    1
    41    22    24   ar
    42    15    16    1
    43    16    17    1
    44     8     9   ar
    45     9    10   ar
    46    10    11    1
    47    50    42   ar
    48    40    35   ar
    49    10     5   ar
    50    50    45   ar
    51    17    12    1
    52    24    18   ar
    53     3     4    1
    54    44    51    1
    55    33    34    1
    56    23    25    1
@<TRIPOS>MOLECULE
*****
 51 56 0 0 0
SMALL
GASTEIGER

@<TRIPOS>ATOM
      1 O         -60.8677  -47.1742  -25.4303 O.2     1  UNL1       -0.2701
      2 C         -61.6863  -46.2783  -25.7756 C.2     1  UNL1        0.2483
      3 N         -62.3584  -46.3763  -27.0409 N.am    1  UNL1       -0.2945
      4 H         -63.2216  -45.8074  -27.1956 H       1  UNL1        0.1501
      5 C         -61.9653  -45.1558  -24.8516 C.ar    1  UNL1        0.0808
      6 C         -61.6666  -45.2908  -23.4862 C.ar    1  UNL1        0.0080
      7 C         -61.9242  -44.2464  -22.5949 C.ar    1  UNL1        0.0148
      8 C         -62.4764  -43.0368  -23.0508 C.ar    1  UNL1        0.0502
      9 C         -62.7624  -42.8973  -24.4199 C.ar    1  UNL1        0.0443
     10 C         -62.5059  -43.9412  -25.3144 C.ar    1  UNL1        0.1457
     11 F         -62.7402  -43.7381  -26.6353 F       1  UNL1       -0.2040
     12 N         -62.7484  -41.9565  -22.1301 N.pl3   1  UNL1       -0.3040
     13 C         -61.6417  -41.2106  -21.5145 C.3     1  UNL1        0.1123
     14 C         -62.0444  -39.7544  -21.2567 C.3     1  UNL1        0.1136
     15 N         -63.3391  -39.6573  -20.5615 N.pl3   1  UNL1       -0.2897
     16 C         -64.1872  -40.8510  -20.4326 C.3     1  UNL1        0.1136
     17 C         -64.1339  -41.6893  -21.7132 C.3     1  UNL1        0.1123
     18 C         -63.7172  -38.4360  -19.8864 C.ar    1  UNL1        0.1349
     19 C         -64.7493  -38.4144  -18.9367 C.ar    1  UNL1        0.0345
     20 C         -65.0849  -37.2164  -18.3079 C.ar    1  UNL1        0.0114
     21 C         -64.3974  -36.0290  -18.6150 C.ar    1  UNL1        0.1243
     22 C         -63.3591  -36.0915  -19.5743 C.ar    1  UNL1        0.2266
     23 O         -62.6168  -34.9681  -19.9430 O.3     1  UNL1       -0.4920
     24 N         -63.0598  -37.2775  -20.1679 N.ar    1  UNL1       -0.1969
     25 H         -62.7676  -34.0469  -19.5544 H       1  UNL1        0.2937
     26 C         -64.7650  -34.7303  -17.9300 C.3     1  UNL1        0.4229
     27 F         -65.1209  -34.9815  -16.6171 F       1  UNL1       -0.1657
     28 F         -63.6837  -33.8681  -17.9563 F       1  UNL1       -0.1657
     29 F         -65.8308  -34.1042  -18.5537 F       1  UNL1       -0.1657
     30 C         -61.9993  -47.3940  -28.0336 C.3     1  UNL1        0.1535
     31 C         -63.2398  -47.9117  -28.7081 C.2     1  UNL1        0.2443
     32 O         -63.7530  -48.9970  -28.3201 O.2     1  UNL1       -0.2730
     33 N         -63.8813  -47.1259  -29.7247 N.am    1  UNL1       -0.2825
     34 H         -63.6335  -46.1122  -29.7852 H       1  UNL1        0.1549
     35 C         -64.9123  -47.6228  -30.5949 C.ar    1  UNL1        0.0535
     36 C         -65.1727  -46.9610  -31.8027 C.ar    1  UNL1        0.0353
     37 C         -66.1574  -47.4529  -32.6627 C.ar    1  UNL1        0.1002
     38 N         -66.8476  -48.5775  -32.3367 N.ar    1  UNL1       -0.2422
     39 C         -66.6043  -49.2523  -31.1823 C.ar    1  UNL1        0.1002
     40 C         -65.6288  -48.7937  -30.2934 C.ar    1  UNL1        0.0353
     41 C         -61.0331  -46.8179  -29.0818 C.3     1  UNL1        0.0569
     42 C         -60.9365  -45.3243  -28.9672 C.ar    1  UNL1       -0.0017
     43 C         -60.0368  -44.6085  -28.1831 C.ar    1  UNL1        0.0681
     44 N         -60.1837  -43.2799  -28.3898 N.ar    1  UNL1       -0.3523
     45 C         -61.1613  -43.1519  -29.3037 C.ar    1  UNL1        0.0563
     46 C         -61.6563  -41.9694  -29.8521 C.ar    1  UNL1        0.0170
     47 C         -62.6763  -42.0683  -30.8164 C.ar    1  UNL1        0.0015
     48 C         -63.1704  -43.3323  -31.2087 C.ar    1  UNL1        0.0001
     49 C         -62.6503  -44.5091  -30.6397 C.ar    1  UNL1        0.0012
     50 C         -61.6431  -44.3785  -29.6833 C.ar    1  UNL1        0.0131
     51 H         -59.6356  -42.5132  -27.9401 H       1  UNL1        0.1660
@<TRIPOS>BOND
     1     1     2    2
     2     2     3   am
     3     3    30    1
     4    30    41    1
     5    41    42    1
     6    42    43   ar
     7    43    44   ar
     8    44    45   ar
     9    45    46   ar
    10    46    47   ar
    11    47    48   ar
    12    48    49   ar
    13    49    50   ar
    14    30    31    1
    15    31    32    2
    16    31    33   am
    17    33    35    1
    18    35    36   ar
    19    36    37   ar
    20    37    38   ar
    21    38    39   ar
    22    39    40   ar
    23     2     5    1
    24     5     6   ar
    25     6     7   ar
    26     7     8   ar
    27     8    12    1
    28    12    13    1
    29    13    14    1
    30    14    15    1
    31    15    18    1
    32    18    19   ar
    33    19    20   ar
    34    20    21   ar
    35    21    26    1
    36    26    27    1
    37    26    28    1
    38    26    29    1
    39    21    22   ar
    40    22    23    1
    41    22    24   ar
    42    15    16    1
    43    16    17    1
    44     8     9   ar
    45     9    10   ar
    46    10    11    1
    47    50    42   ar
    48    40    35   ar
    49    10     5   ar
    50    50    45   ar
    51    17    12    1
    52    24    18   ar
    53     3     4    1
    54    44    51    1
    55    33    34    1
    56    23    25    1
@<TRIPOS>MOLECULE
*****
 51 56 0 0 0
SMALL
GASTEIGER

@<TRIPOS>ATOM
      1 O         -63.1154  -54.5651  -22.2121 O.2     1  UNL1       -0.2701
      2 C         -64.0686  -53.8823  -22.6782 C.2     1  UNL1        0.2483
      3 N         -65.4238  -54.2761  -22.4124 N.am    1  UNL1       -0.2945
      4 H         -66.1861  -53.5740  -22.5492 H       1  UNL1        0.1501
      5 C         -63.7714  -52.6641  -23.4649 C.ar    1  UNL1        0.0808
      6 C         -64.5690  -52.3438  -24.5753 C.ar    1  UNL1        0.0080
      7 C         -64.3056  -51.2012  -25.3347 C.ar    1  UNL1        0.0148
      8 C         -63.2442  -50.3448  -24.9939 C.ar    1  UNL1        0.0502
      9 C         -62.4548  -50.6586  -23.8740 C.ar    1  UNL1        0.0443
     10 C         -62.7158  -51.8019  -23.1123 C.ar    1  UNL1        0.1457
     11 F         -61.9666  -52.0304  -22.0044 F       1  UNL1       -0.2040
     12 N         -62.9666  -49.1647  -25.7805 N.pl3   1  UNL1       -0.3040
     13 C         -61.6724  -48.4790  -25.6573 C.3     1  UNL1        0.1123
     14 C         -61.2699  -47.8340  -26.9881 C.3     1  UNL1        0.1136
     15 N         -62.3622  -47.0292  -27.5610 N.pl3   1  UNL1       -0.2897
     16 C         -63.7148  -47.1298  -26.9944 C.3     1  UNL1        0.1136
     17 C         -64.0306  -48.5785  -26.6106 C.3     1  UNL1        0.1123
     18 C         -62.0864  -46.0420  -28.5807 C.ar    1  UNL1        0.1349
     19 C         -60.7865  -45.5646  -28.8041 C.ar    1  UNL1        0.0345
     20 C         -60.5613  -44.6118  -29.7965 C.ar    1  UNL1        0.0114
     21 C         -61.6245  -44.1256  -30.5775 C.ar    1  UNL1        0.1243
     22 C         -62.9207  -44.6348  -30.3260 C.ar    1  UNL1        0.2266
     23 O         -64.0386  -44.2174  -31.0505 O.3     1  UNL1       -0.4920
     24 N         -63.1028  -45.5631  -29.3494 N.ar    1  UNL1       -0.1969
     25 H         -63.9986  -43.5336  -31.7943 H       1  UNL1        0.2937
     26 C         -61.3757  -43.0911  -31.6539 C.3     1  UNL1        0.4229
     27 F         -62.2813  -43.2656  -32.6848 F       1  UNL1       -0.1657
     28 F         -61.5227  -41.8224  -31.1227 F       1  UNL1       -0.1657
     29 F         -60.0988  -43.1933  -32.1793 F       1  UNL1       -0.1657
     30 C         -65.7486  -55.5491  -21.7611 C.3     1  UNL1        0.1535
     31 C         -66.7181  -55.3157  -20.6354 C.2     1  UNL1        0.2443
     32 O         -66.4830  -55.8093  -19.4984 O.2     1  UNL1       -0.2730
     33 N         -67.8547  -54.4612  -20.8367 N.am    1  UNL1       -0.2825
     34 H         -67.8402  -53.8180  -21.6607 H       1  UNL1        0.1549
     35 C         -68.9609  -54.3650  -19.9235 C.ar    1  UNL1        0.0535
     36 C         -68.8803  -54.9960  -18.6745 C.ar    1  UNL1        0.0353
     37 C         -69.9428  -54.8864  -17.7743 C.ar    1  UNL1        0.1002
     38 N         -71.0420  -54.1574  -18.1022 N.ar    1  UNL1       -0.2422
     39 C         -71.1413  -53.5180  -19.2975 C.ar    1  UNL1        0.1002
     40 C         -70.1019  -53.6026  -20.2273 C.ar    1  UNL1        0.0353
     41 C         -66.3458  -56.5429  -22.7711 C.3     1  UNL1        0.0569
     42 C         -67.3244  -55.8646  -23.6853 C.ar    1  UNL1       -0.0017
     43 C         -67.0202  -55.1177  -24.8195 C.ar    1  UNL1        0.0681
     44 N         -68.1540  -54.7258  -25.4445 N.ar    1  UNL1       -0.3523
     45 C         -69.1697  -55.2264  -24.7199 C.ar    1  UNL1        0.0563
     46 C         -70.5341  -55.1044  -24.9798 C.ar    1  UNL1        0.0170
     47 C         -71.4308  -55.7300  -24.0940 C.ar    1  UNL1        0.0015
     48 C         -70.9489  -56.4577  -22.9831 C.ar    1  UNL1        0.0001
     49 C         -69.5663  -56.5658  -22.7468 C.ar    1  UNL1        0.0012
     50 C         -68.7029  -55.9311  -23.6400 C.ar    1  UNL1        0.0131
     51 H         -68.2215  -54.1621  -26.3209 H       1  UNL1        0.1660
@<TRIPOS>BOND
     1     1     2    2
     2     2     3   am
     3     3    30    1
     4    30    41    1
     5    41    42    1
     6    42    43   ar
     7    43    44   ar
     8    44    45   ar
     9    45    46   ar
    10    46    47   ar
    11    47    48   ar
    12    48    49   ar
    13    49    50   ar
    14    30    31    1
    15    31    32    2
    16    31    33   am
    17    33    35    1
    18    35    36   ar
    19    36    37   ar
    20    37    38   ar
    21    38    39   ar
    22    39    40   ar
    23     2     5    1
    24     5     6   ar
    25     6     7   ar
    26     7     8   ar
    27     8    12    1
    28    12    13    1
    29    13    14    1
    30    14    15    1
    31    15    18    1
    32    18    19   ar
    33    19    20   ar
    34    20    21   ar
    35    21    26    1
    36    26    27    1
    37    26    28    1
    38    26    29    1
    39    21    22   ar
    40    22    23    1
    41    22    24   ar
    42    15    16    1
    43    16    17    1
    44     8     9   ar
    45     9    10   ar
    46    10    11    1
    47    50    42   ar
    48    40    35   ar
    49    10     5   ar
    50    50    45   ar
    51    17    12    1
    52    24    18   ar
    53     3     4    1
    54    44    51    1
    55    33    34    1
    56    23    25    1
@<TRIPOS>MOLECULE
*****
 51 56 0 0 0
SMALL
GASTEIGER

@<TRIPOS>ATOM
      1 O         -60.3393  -47.0080  -24.5159 O.2     1  UNL1       -0.2701
      2 C         -61.4080  -46.3737  -24.7341 C.2     1  UNL1        0.2483
      3 N         -62.3320  -46.8534  -25.7233 N.am    1  UNL1       -0.2945
      4 H         -63.3166  -46.5030  -25.7015 H       1  UNL1        0.1501
      5 C         -61.7068  -45.1610  -23.9395 C.ar    1  UNL1        0.0808
      6 C         -61.8551  -45.2633  -22.5470 C.ar    1  UNL1        0.0080
      7 C         -62.1405  -44.1332  -21.7769 C.ar    1  UNL1        0.0148
      8 C         -62.2727  -42.8708  -22.3809 C.ar    1  UNL1        0.0502
      9 C         -62.1105  -42.7668  -23.7732 C.ar    1  UNL1        0.0443
     10 C         -61.8252  -43.8964  -24.5467 C.ar    1  UNL1        0.1457
     11 F         -61.6156  -43.7372  -25.8778 F       1  UNL1       -0.2040
     12 N         -62.5727  -41.7009  -21.5873 N.pl3   1  UNL1       -0.3040
     13 C         -61.6146  -40.5887  -21.5145 C.3     1  UNL1        0.1123
     14 C         -62.3449  -39.2523  -21.3413 C.3     1  UNL1        0.1136
     15 N         -63.3384  -39.3060  -20.2554 N.pl3   1  UNL1       -0.2897
     16 C         -63.7042  -40.6024  -19.6671 C.3     1  UNL1        0.1136
     17 C         -63.7831  -41.6817  -20.7510 C.3     1  UNL1        0.1123
     18 C         -63.8505  -38.0865  -19.6715 C.ar    1  UNL1        0.1349
     19 C         -65.1942  -37.9676  -19.2869 C.ar    1  UNL1        0.0345
     20 C         -65.6501  -36.7746  -18.7280 C.ar    1  UNL1        0.0114
     21 C         -64.7755  -35.6893  -18.5442 C.ar    1  UNL1        0.1243
     22 C         -63.4262  -35.8489  -18.9398 C.ar    1  UNL1        0.2266
     23 O         -62.4818  -34.8311  -18.7942 O.3     1  UNL1       -0.4920
     24 N         -63.0173  -37.0267  -19.4821 N.ar    1  UNL1       -0.1969
     25 H         -62.6943  -33.9242  -18.4008 H       1  UNL1        0.2937
     26 C         -65.2746  -34.3958  -17.9371 C.3     1  UNL1        0.4229
     27 F         -66.5606  -34.1408  -18.3781 F       1  UNL1       -0.1657
     28 F         -65.2734  -34.4983  -16.5577 F       1  UNL1       -0.1657
     29 F         -64.4763  -33.3209  -18.2902 F       1  UNL1       -0.1657
     30 C         -62.0004  -47.9643  -26.6211 C.3     1  UNL1        0.1535
     31 C         -62.1464  -49.2722  -25.8932 C.2     1  UNL1        0.2443
     32 O         -63.1054  -50.0405  -26.1789 O.2     1  UNL1       -0.2730
     33 N         -61.1467  -49.6778  -24.9451 N.am    1  UNL1       -0.2825
     34 H         -60.2208  -49.1937  -24.9770 H       1  UNL1        0.1549
     35 C         -61.3063  -50.7716  -24.0258 C.ar    1  UNL1        0.0535
     36 C         -60.1742  -51.4661  -23.5779 C.ar    1  UNL1        0.0353
     37 C         -60.3215  -52.5146  -22.6668 C.ar    1  UNL1        0.1002
     38 N         -61.5554  -52.8482  -22.2046 N.ar    1  UNL1       -0.2422
     39 C         -62.6697  -52.1808  -22.6051 C.ar    1  UNL1        0.1002
     40 C         -62.5671  -51.1266  -23.5161 C.ar    1  UNL1        0.0353
     41 C         -62.9055  -47.9512  -27.8641 C.3     1  UNL1        0.0569
     42 C         -63.0774  -46.5577  -28.3949 C.ar    1  UNL1       -0.0017
     43 C         -64.2805  -45.8847  -28.5859 C.ar    1  UNL1        0.0681
     44 N         -64.0519  -44.6180  -29.0012 N.ar    1  UNL1       -0.3523
     45 C         -62.7157  -44.4832  -29.0650 C.ar    1  UNL1        0.0563
     46 C         -61.9972  -43.3441  -29.4258 C.ar    1  UNL1        0.0170
     47 C         -60.5923  -43.4188  -29.4046 C.ar    1  UNL1        0.0015
     48 C         -59.9447  -44.6155  -29.0246 C.ar    1  UNL1        0.0001
     49 C         -60.6956  -45.7489  -28.6633 C.ar    1  UNL1        0.0012
     50 C         -62.0864  -45.6452  -28.6984 C.ar    1  UNL1        0.0131
     51 H         -64.7705  -43.8905  -29.2129 H       1  UNL1        0.1660
@<TRIPOS>BOND
     1     1     2    2
     2     2     3   am
     3     3    30    1
     4    30    41    1
     5    41    42    1
     6    42    43   ar
     7    43    44   ar
     8    44    45   ar
     9    45    46   ar
    10    46    47   ar
    11    47    48   ar
    12    48    49   ar
    13    49    50   ar
    14    30    31    1
    15    31    32    2
    16    31    33   am
    17    33    35    1
    18    35    36   ar
    19    36    37   ar
    20    37    38   ar
    21    38    39   ar
    22    39    40   ar
    23     2     5    1
    24     5     6   ar
    25     6     7   ar
    26     7     8   ar
    27     8    12    1
    28    12    13    1
    29    13    14    1
    30    14    15    1
    31    15    18    1
    32    18    19   ar
    33    19    20   ar
    34    20    21   ar
    35    21    26    1
    36    26    27    1
    37    26    28    1
    38    26    29    1
    39    21    22   ar
    40    22    23    1
    41    22    24   ar
    42    15    16    1
    43    16    17    1
    44     8     9   ar
    45     9    10   ar
    46    10    11    1
    47    50    42   ar
    48    40    35   ar
    49    10     5   ar
    50    50    45   ar
    51    17    12    1
    52    24    18   ar
    53     3     4    1
    54    44    51    1
    55    33    34    1
    56    23    25    1
@<TRIPOS>MOLECULE
*****
 51 56 0 0 0
SMALL
GASTEIGER

@<TRIPOS>ATOM
      1 O         -60.0852  -46.7981  -24.5784 O.2     1  UNL1       -0.2701
      2 C         -61.2058  -46.2409  -24.7391 C.2     1  UNL1        0.2483
      3 N         -62.1486  -46.7923  -25.6715 N.am    1  UNL1       -0.2945
      4 H         -63.1523  -46.5103  -25.5958 H       1  UNL1        0.1501
      5 C         -61.5426  -45.0441  -23.9355 C.ar    1  UNL1        0.0808
      6 C         -61.9593  -45.1980  -22.6035 C.ar    1  UNL1        0.0080
      7 C         -62.2855  -44.0835  -21.8269 C.ar    1  UNL1        0.0148
      8 C         -62.1913  -42.7868  -22.3614 C.ar    1  UNL1        0.0502
      9 C         -61.7609  -42.6328  -23.6905 C.ar    1  UNL1        0.0443
     10 C         -61.4340  -43.7465  -24.4704 C.ar    1  UNL1        0.1457
     11 F         -60.9641  -43.5451  -25.7273 F       1  UNL1       -0.2040
     12 N         -62.5329  -41.6325  -21.5617 N.pl3   1  UNL1       -0.3040
     13 C         -61.5454  -40.5671  -21.3378 C.3     1  UNL1        0.1123
     14 C         -62.2363  -39.2063  -21.1964 C.3     1  UNL1        0.1136
     15 N         -63.3490  -39.2527  -20.2326 N.pl3   1  UNL1       -0.2897
     16 C         -63.8318  -40.5509  -19.7404 C.3     1  UNL1        0.1136
     17 C         -63.8293  -41.5880  -20.8675 C.3     1  UNL1        0.1123
     18 C         -63.8751  -38.0323  -19.6633 C.ar    1  UNL1        0.1349
     19 C         -65.2378  -37.8942  -19.3608 C.ar    1  UNL1        0.0345
     20 C         -65.7067  -36.7009  -18.8134 C.ar    1  UNL1        0.0114
     21 C         -64.8264  -35.6345  -18.5594 C.ar    1  UNL1        0.1243
     22 C         -63.4582  -35.8133  -18.8731 C.ar    1  UNL1        0.2266
     23 O         -62.5070  -34.8151  -18.6540 O.3     1  UNL1       -0.4920
     24 N         -63.0369  -36.9907  -19.4067 N.ar    1  UNL1       -0.1969
     25 H         -62.7277  -33.9101  -18.2609 H       1  UNL1        0.2937
     26 C         -65.3396  -34.3406  -17.9650 C.3     1  UNL1        0.4229
     27 F         -66.6227  -34.0964  -18.4203 F       1  UNL1       -0.1657
     28 F         -65.3517  -34.4351  -16.5851 F       1  UNL1       -0.1657
     29 F         -64.5446  -33.2628  -18.3164 F       1  UNL1       -0.1657
     30 C         -61.7920  -47.8862  -26.5806 C.3     1  UNL1        0.1535
     31 C         -61.9715  -49.2082  -25.8864 C.2     1  UNL1        0.2443
     32 O         -62.9015  -49.9803  -26.2477 O.2     1  UNL1       -0.2730
     33 N         -61.0319  -49.6211  -24.8817 N.am    1  UNL1       -0.2825
     34 H         -60.1111  -49.1278  -24.8443 H       1  UNL1        0.1549
     35 C         -61.2399  -50.7326  -23.9938 C.ar    1  UNL1        0.0535
     36 C         -60.1428  -51.5039  -23.5865 C.ar    1  UNL1        0.0353
     37 C         -60.3360  -52.5707  -22.7057 C.ar    1  UNL1        0.1002
     38 N         -61.5798  -52.8482  -22.2332 N.ar    1  UNL1       -0.2422
     39 C         -62.6601  -52.1065  -22.5941 C.ar    1  UNL1        0.1002
     40 C         -62.5111  -51.0315  -23.4740 C.ar    1  UNL1        0.0353
     41 C         -62.6522  -47.8407  -27.8542 C.3     1  UNL1        0.0569
     42 C         -62.4616  -46.5470  -28.5913 C.ar    1  UNL1       -0.0017
     43 C         -61.3570  -45.7040  -28.5161 C.ar    1  UNL1        0.0681
     44 N         -61.4925  -44.6705  -29.3782 N.ar    1  UNL1       -0.3523
     45 C         -62.6681  -44.8593  -30.0026 C.ar    1  UNL1        0.0563
     46 C         -63.2351  -44.0621  -30.9961 C.ar    1  UNL1        0.0170
     47 C         -64.4748  -44.4594  -31.5300 C.ar    1  UNL1        0.0015
     48 C         -65.1109  -45.6326  -31.0666 C.ar    1  UNL1        0.0001
     49 C         -64.5140  -46.4189  -30.0644 C.ar    1  UNL1        0.0012
     50 C         -63.2872  -45.9968  -29.5517 C.ar    1  UNL1        0.0131
     51 H         -60.8119  -43.8942  -29.5350 H       1  UNL1        0.1660
@<TRIPOS>BOND
     1     1     2    2
     2     2     3   am
     3     3    30    1
     4    30    41    1
     5    41    42    1
     6    42    43   ar
     7    43    44   ar
     8    44    45   ar
     9    45    46   ar
    10    46    47   ar
    11    47    48   ar
    12    48    49   ar
    13    49    50   ar
    14    30    31    1
    15    31    32    2
    16    31    33   am
    17    33    35    1
    18    35    36   ar
    19    36    37   ar
    20    37    38   ar
    21    38    39   ar
    22    39    40   ar
    23     2     5    1
    24     5     6   ar
    25     6     7   ar
    26     7     8   ar
    27     8    12    1
    28    12    13    1
    29    13    14    1
    30    14    15    1
    31    15    18    1
    32    18    19   ar
    33    19    20   ar
    34    20    21   ar
    35    21    26    1
    36    26    27    1
    37    26    28    1
    38    26    29    1
    39    21    22   ar
    40    22    23    1
    41    22    24   ar
    42    15    16    1
    43    16    17    1
    44     8     9   ar
    45     9    10   ar
    46    10    11    1
    47    50    42   ar
    48    40    35   ar
    49    10     5   ar
    50    50    45   ar
    51    17    12    1
    52    24    18   ar
    53     3     4    1
    54    44    51    1
    55    33    34    1
    56    23    25    1
@<TRIPOS>MOLECULE
*****
 51 56 0 0 0
SMALL
GASTEIGER

@<TRIPOS>ATOM
      1 O         -71.6693  -57.2177  -20.0475 O.2     1  UNL1       -0.2701
      2 C         -72.4195  -56.2890  -20.4559 C.2     1  UNL1        0.2483
      3 N         -73.0158  -55.3869  -19.5110 N.am    1  UNL1       -0.2945
      4 H         -73.3904  -54.4742  -19.8565 H       1  UNL1        0.1501
      5 C         -72.6447  -56.1250  -21.9098 C.ar    1  UNL1        0.0808
      6 C         -71.5587  -55.8350  -22.7514 C.ar    1  UNL1        0.0080
      7 C         -71.7475  -55.6726  -24.1261 C.ar    1  UNL1        0.0148
      8 C         -73.0265  -55.8082  -24.6934 C.ar    1  UNL1        0.0502
      9 C         -74.1108  -56.1121  -23.8522 C.ar    1  UNL1        0.0443
     10 C         -73.9249  -56.2748  -22.4758 C.ar    1  UNL1        0.1457
     11 F         -74.9898  -56.6288  -21.7130 F       1  UNL1       -0.2040
     12 N         -73.2254  -55.6360  -26.1144 N.pl3   1  UNL1       -0.3040
     13 C         -74.5107  -55.9923  -26.7318 C.3     1  UNL1        0.1123
     14 C         -74.8077  -55.0858  -27.9314 C.3     1  UNL1        0.1136
     15 N         -73.6624  -55.0023  -28.8536 N.pl3   1  UNL1       -0.2897
     16 C         -72.3542  -55.5291  -28.4390 C.3     1  UNL1        0.1136
     17 C         -72.0951  -55.2228  -26.9609 C.3     1  UNL1        0.1123
     18 C         -73.8474  -54.5351  -30.2093 C.ar    1  UNL1        0.1349
     19 C         -74.4996  -53.3238  -30.4830 C.ar    1  UNL1        0.0345
     20 C         -74.6591  -52.9079  -31.8040 C.ar    1  UNL1        0.0114
     21 C         -74.1707  -53.6901  -32.8653 C.ar    1  UNL1        0.1243
     22 C         -73.5139  -54.9030  -32.5493 C.ar    1  UNL1        0.2266
     23 O         -72.9917  -55.7455  -33.5324 O.3     1  UNL1       -0.4920
     24 N         -73.3773  -55.2771  -31.2493 N.ar    1  UNL1       -0.1969
     25 H         -73.0453  -55.5486  -34.5227 H       1  UNL1        0.2937
     26 C         -74.3459  -53.2349  -34.2981 C.3     1  UNL1        0.4229
     27 F         -73.1059  -53.0587  -34.8851 F       1  UNL1       -0.1657
     28 F         -75.0580  -54.1871  -35.0050 F       1  UNL1       -0.1657
     29 F         -75.0344  -52.0361  -34.3758 F       1  UNL1       -0.1657
     30 C         -72.9275  -55.6085  -18.0641 C.3     1  UNL1        0.1535
     31 C         -71.5702  -55.1962  -17.5648 C.2     1  UNL1        0.2443
     32 O         -71.0934  -54.0793  -17.9068 O.2     1  UNL1       -0.2730
     33 N         -70.8669  -56.0330  -16.6333 N.am    1  UNL1       -0.2825
     34 H         -71.4155  -56.7630  -16.1244 H       1  UNL1        0.1549
     35 C         -69.4822  -55.8634  -16.2856 C.ar    1  UNL1        0.0535
     36 C         -69.0790  -56.0408  -14.9550 C.ar    1  UNL1        0.0353
     37 C         -67.7313  -55.8998  -14.6159 C.ar    1  UNL1        0.1002
     38 N         -66.8136  -55.6086  -15.5753 N.ar    1  UNL1       -0.2422
     39 C         -67.1707  -55.4501  -16.8771 C.ar    1  UNL1        0.1002
     40 C         -68.5083  -55.5813  -17.2589 C.ar    1  UNL1        0.0353
     41 C         -74.0211  -54.8217  -17.3231 C.3     1  UNL1        0.0569
     42 C         -73.9995  -55.1180  -15.8517 C.ar    1  UNL1       -0.0017
     43 C         -74.5159  -56.2482  -15.2250 C.ar    1  UNL1        0.0681
     44 N         -74.2462  -56.2179  -13.8999 N.ar    1  UNL1       -0.3523
     45 C         -73.5565  -55.0836  -13.6870 C.ar    1  UNL1        0.0563
     46 C         -73.0398  -54.6229  -12.4767 C.ar    1  UNL1        0.0170
     47 C         -72.3273  -53.4096  -12.4853 C.ar    1  UNL1        0.0015
     48 C         -72.1467  -52.6940  -13.6899 C.ar    1  UNL1        0.0001
     49 C         -72.6776  -53.1842  -14.8969 C.ar    1  UNL1        0.0012
     50 C         -73.3827  -54.3872  -14.8556 C.ar    1  UNL1        0.0131
     51 H         -74.5085  -56.9394  -13.1921 H       1  UNL1        0.1660
@<TRIPOS>BOND
     1     1     2    2
     2     2     3   am
     3     3    30    1
     4    30    41    1
     5    41    42    1
     6    42    43   ar
     7    43    44   ar
     8    44    45   ar
     9    45    46   ar
    10    46    47   ar
    11    47    48   ar
    12    48    49   ar
    13    49    50   ar
    14    30    31    1
    15    31    32    2
    16    31    33   am
    17    33    35    1
    18    35    36   ar
    19    36    37   ar
    20    37    38   ar
    21    38    39   ar
    22    39    40   ar
    23     2     5    1
    24     5     6   ar
    25     6     7   ar
    26     7     8   ar
    27     8    12    1
    28    12    13    1
    29    13    14    1
    30    14    15    1
    31    15    18    1
    32    18    19   ar
    33    19    20   ar
    34    20    21   ar
    35    21    26    1
    36    26    27    1
    37    26    28    1
    38    26    29    1
    39    21    22   ar
    40    22    23    1
    41    22    24   ar
    42    15    16    1
    43    16    17    1
    44     8     9   ar
    45     9    10   ar
    46    10    11    1
    47    50    42   ar
    48    40    35   ar
    49    10     5   ar
    50    50    45   ar
    51    17    12    1
    52    24    18   ar
    53     3     4    1
    54    44    51    1
    55    33    34    1
    56    23    25    1
@<TRIPOS>MOLECULE
*****
 51 56 0 0 0
SMALL
GASTEIGER

@<TRIPOS>ATOM
      1 O         -60.3871  -41.7916  -21.7874 O.2     1  UNL1       -0.2701
      2 C         -61.5210  -41.5529  -22.2867 C.2     1  UNL1        0.2483
      3 N         -62.3732  -40.5682  -21.6813 N.am    1  UNL1       -0.2945
      4 H         -63.1636  -40.1762  -22.2419 H       1  UNL1        0.1501
      5 C         -61.9397  -42.2706  -23.5119 C.ar    1  UNL1        0.0808
      6 C         -61.2299  -43.4094  -23.9252 C.ar    1  UNL1        0.0080
      7 C         -61.6044  -44.1010  -25.0798 C.ar    1  UNL1        0.0148
      8 C         -62.7062  -43.6761  -25.8424 C.ar    1  UNL1        0.0502
      9 C         -63.4246  -42.5440  -25.4204 C.ar    1  UNL1        0.0443
     10 C         -63.0518  -41.8496  -24.2654 C.ar    1  UNL1        0.1457
     11 F         -63.8124  -40.8004  -23.8632 F       1  UNL1       -0.2040
     12 N         -63.0929  -44.3868  -27.0398 N.pl3   1  UNL1       -0.3040
     13 C         -62.6805  -45.7834  -27.2389 C.3     1  UNL1        0.1123
     14 C         -63.7327  -46.5512  -28.0468 C.3     1  UNL1        0.1136
     15 N         -64.1256  -45.8256  -29.2667 N.pl3   1  UNL1       -0.2897
     16 C         -63.7140  -44.4259  -29.4454 C.3     1  UNL1        0.1136
     17 C         -63.7926  -43.6685  -28.1165 C.3     1  UNL1        0.1123
     18 C         -64.7908  -46.5182  -30.3475 C.ar    1  UNL1        0.1349
     19 C         -64.9592  -45.9207  -31.6054 C.ar    1  UNL1        0.0345
     20 C         -65.6069  -46.6210  -32.6220 C.ar    1  UNL1        0.0114
     21 C         -66.0916  -47.9218  -32.3996 C.ar    1  UNL1        0.1243
     22 C         -65.8984  -48.4930  -31.1194 C.ar    1  UNL1        0.2266
     23 O         -66.3401  -49.7790  -30.8030 O.3     1  UNL1       -0.4920
     24 N         -65.2629  -47.7800  -30.1518 N.ar    1  UNL1       -0.1969
     25 H         -66.8201  -50.3815  -31.4579 H       1  UNL1        0.2937
     26 C         -66.7943  -48.6787  -33.5060 C.3     1  UNL1        0.4229
     27 F         -67.9752  -48.0362  -33.8317 F       1  UNL1       -0.1657
     28 F         -65.9787  -48.7351  -34.6218 F       1  UNL1       -0.1657
     29 F         -67.0986  -49.9756  -33.1285 F       1  UNL1       -0.1657
     30 C         -62.0485  -39.9471  -20.3933 C.3     1  UNL1        0.1535
     31 C         -62.5994  -38.5485  -20.3457 C.2     1  UNL1        0.2443
     32 O         -62.1495  -37.6745  -21.1365 O.2     1  UNL1       -0.2730
     33 N         -63.6924  -38.2406  -19.4665 N.am    1  UNL1       -0.2825
     34 H         -64.2482  -39.0385  -19.0829 H       1  UNL1        0.1549
     35 C         -64.1290  -36.9049  -19.1627 C.ar    1  UNL1        0.0535
     36 C         -65.4118  -36.4943  -19.5505 C.ar    1  UNL1        0.0353
     37 C         -65.8497  -35.2052  -19.2375 C.ar    1  UNL1        0.1002
     38 N         -65.0412  -34.3596  -18.5456 N.ar    1  UNL1       -0.2422
     39 C         -63.7999  -34.7353  -18.1388 C.ar    1  UNL1        0.1002
     40 C         -63.3226  -36.0153  -18.4321 C.ar    1  UNL1        0.0353
     41 C         -62.6163  -40.7751  -19.2287 C.3     1  UNL1        0.0569
     42 C         -63.6373  -41.7631  -19.7132 C.ar    1  UNL1       -0.0017
     43 C         -63.5976  -43.1447  -19.5510 C.ar    1  UNL1        0.0681
     44 N         -64.7240  -43.7101  -20.0420 N.ar    1  UNL1       -0.3523
     45 C         -65.4774  -42.6968  -20.5038 C.ar    1  UNL1        0.0563
     46 C         -66.7416  -42.7805  -21.0861 C.ar    1  UNL1        0.0170
     47 C         -67.3633  -41.5823  -21.4830 C.ar    1  UNL1        0.0015
     48 C         -66.7163  -40.3415  -21.2884 C.ar    1  UNL1        0.0001
     49 C         -65.4415  -40.2873  -20.6961 C.ar    1  UNL1        0.0012
     50 C         -64.8491  -41.4922  -20.3173 C.ar    1  UNL1        0.0131
     51 H         -64.9628  -44.7266  -20.0451 H       1  UNL1        0.1660
@<TRIPOS>BOND
     1     1     2    2
     2     2     3   am
     3     3    30    1
     4    30    41    1
     5    41    42    1
     6    42    43   ar
     7    43    44   ar
     8    44    45   ar
     9    45    46   ar
    10    46    47   ar
    11    47    48   ar
    12    48    49   ar
    13    49    50   ar
    14    30    31    1
    15    31    32    2
    16    31    33   am
    17    33    35    1
    18    35    36   ar
    19    36    37   ar
    20    37    38   ar
    21    38    39   ar
    22    39    40   ar
    23     2     5    1
    24     5     6   ar
    25     6     7   ar
    26     7     8   ar
    27     8    12    1
    28    12    13    1
    29    13    14    1
    30    14    15    1
    31    15    18    1
    32    18    19   ar
    33    19    20   ar
    34    20    21   ar
    35    21    26    1
    36    26    27    1
    37    26    28    1
    38    26    29    1
    39    21    22   ar
    40    22    23    1
    41    22    24   ar
    42    15    16    1
    43    16    17    1
    44     8     9   ar
    45     9    10   ar
    46    10    11    1
    47    50    42   ar
    48    40    35   ar
    49    10     5   ar
    50    50    45   ar
    51    17    12    1
    52    24    18   ar
    53     3     4    1
    54    44    51    1
    55    33    34    1
    56    23    25    1
@<TRIPOS>MOLECULE
*****
 51 56 0 0 0
SMALL
GASTEIGER

@<TRIPOS>ATOM
      1 O         -60.3634  -41.7476  -21.6559 O.2     1  UNL1       -0.2701
      2 C         -61.4934  -41.5397  -22.1772 C.2     1  UNL1        0.2483
      3 N         -62.3766  -40.5659  -21.5992 N.am    1  UNL1       -0.2945
      4 H         -63.1655  -40.1981  -22.1781 H       1  UNL1        0.1501
      5 C         -61.8758  -42.2818  -23.3998 C.ar    1  UNL1        0.0808
      6 C         -62.9475  -41.8233  -24.1826 C.ar    1  UNL1        0.0080
      7 C         -63.3286  -42.5089  -25.3386 C.ar    1  UNL1        0.0148
      8 C         -62.6383  -43.6639  -25.7456 C.ar    1  UNL1        0.0502
      9 C         -61.5569  -44.1144  -24.9689 C.ar    1  UNL1        0.0443
     10 C         -61.1734  -43.4304  -23.8111 C.ar    1  UNL1        0.1457
     11 F         -60.0852  -43.8667  -23.1281 F       1  UNL1       -0.2040
     12 N         -63.0335  -44.3778  -26.9383 N.pl3   1  UNL1       -0.3040
     13 C         -62.6575  -45.7873  -27.1176 C.3     1  UNL1        0.1123
     14 C         -63.7228  -46.5357  -27.9264 C.3     1  UNL1        0.1136
     15 N         -64.0850  -45.8141  -29.1581 N.pl3   1  UNL1       -0.2897
     16 C         -63.6339  -44.4281  -29.3489 C.3     1  UNL1        0.1136
     17 C         -63.7037  -43.6534  -28.0296 C.3     1  UNL1        0.1123
     18 C         -64.7590  -46.5009  -30.2370 C.ar    1  UNL1        0.1349
     19 C         -64.9673  -45.8844  -31.4797 C.ar    1  UNL1        0.0345
     20 C         -65.6223  -46.5798  -32.4950 C.ar    1  UNL1        0.0114
     21 C         -66.0749  -47.8945  -32.2864 C.ar    1  UNL1        0.1243
     22 C         -65.8419  -48.4845  -31.0215 C.ar    1  UNL1        0.2266
     23 O         -66.2496  -49.7851  -30.7196 O.3     1  UNL1       -0.4920
     24 N         -65.2003  -47.7758  -30.0546 N.ar    1  UNL1       -0.1969
     25 H         -66.7312  -50.3857  -31.3751 H       1  UNL1        0.2937
     26 C         -66.7856  -48.6459  -33.3914 C.3     1  UNL1        0.4229
     27 F         -67.9862  -48.0225  -33.6801 F       1  UNL1       -0.1657
     28 F         -65.9933  -48.6654  -34.5250 F       1  UNL1       -0.1657
     29 F         -67.0551  -49.9554  -33.0312 F       1  UNL1       -0.1657
     30 C         -62.0872  -39.9216  -20.3142 C.3     1  UNL1        0.1535
     31 C         -62.6817  -38.5405  -20.2883 C.2     1  UNL1        0.2443
     32 O         -62.2745  -37.6716  -21.1073 O.2     1  UNL1       -0.2730
     33 N         -63.7678  -38.2467  -19.3957 N.am    1  UNL1       -0.2825
     34 H         -64.2906  -39.0526  -18.9834 H       1  UNL1        0.1549
     35 C         -64.2414  -36.9187  -19.1144 C.ar    1  UNL1        0.0535
     36 C         -65.5086  -36.5283  -19.5689 C.ar    1  UNL1        0.0353
     37 C         -65.9832  -35.2470  -19.2785 C.ar    1  UNL1        0.1002
     38 N         -65.2260  -34.3895  -18.5446 N.ar    1  UNL1       -0.2422
     39 C         -64.0019  -34.7456  -18.0734 C.ar    1  UNL1        0.1002
     40 C         -63.4891  -36.0172  -18.3419 C.ar    1  UNL1        0.0353
     41 C         -62.6433  -40.7548  -19.1476 C.3     1  UNL1        0.0569
     42 C         -63.9583  -41.3826  -19.5083 C.ar    1  UNL1       -0.0017
     43 C         -65.1956  -40.7475  -19.5567 C.ar    1  UNL1        0.0681
     44 N         -66.1471  -41.6009  -19.9992 N.ar    1  UNL1       -0.3523
     45 C         -65.5194  -42.7654  -20.2389 C.ar    1  UNL1        0.0563
     46 C         -66.0815  -43.9437  -20.7284 C.ar    1  UNL1        0.0170
     47 C         -65.2299  -45.0465  -20.9247 C.ar    1  UNL1        0.0015
     48 C         -63.8510  -44.9468  -20.6339 C.ar    1  UNL1        0.0001
     49 C         -63.3109  -43.7441  -20.1431 C.ar    1  UNL1        0.0012
     50 C         -64.1811  -42.6701  -19.9547 C.ar    1  UNL1        0.0131
     51 H         -67.1599  -41.3892  -20.1398 H       1  UNL1        0.1660
@<TRIPOS>BOND
     1     1     2    2
     2     2     3   am
     3     3    30    1
     4    30    41    1
     5    41    42    1
     6    42    43   ar
     7    43    44   ar
     8    44    45   ar
     9    45    46   ar
    10    46    47   ar
    11    47    48   ar
    12    48    49   ar
    13    49    50   ar
    14    30    31    1
    15    31    32    2
    16    31    33   am
    17    33    35    1
    18    35    36   ar
    19    36    37   ar
    20    37    38   ar
    21    38    39   ar
    22    39    40   ar
    23     2     5    1
    24     5     6   ar
    25     6     7   ar
    26     7     8   ar
    27     8    12    1
    28    12    13    1
    29    13    14    1
    30    14    15    1
    31    15    18    1
    32    18    19   ar
    33    19    20   ar
    34    20    21   ar
    35    21    26    1
    36    26    27    1
    37    26    28    1
    38    26    29    1
    39    21    22   ar
    40    22    23    1
    41    22    24   ar
    42    15    16    1
    43    16    17    1
    44     8     9   ar
    45     9    10   ar
    46    10    11    1
    47    50    42   ar
    48    40    35   ar
    49    10     5   ar
    50    50    45   ar
    51    17    12    1
    52    24    18   ar
    53     3     4    1
    54    44    51    1
    55    33    34    1
    56    23    25    1
@<TRIPOS>MOLECULE
*****
 51 56 0 0 0
SMALL
GASTEIGER

@<TRIPOS>ATOM
      1 O         -58.9660  -47.6602  -23.0032 O.2     1  UNL1       -0.2701
      2 C         -60.1945  -47.4091  -22.8634 C.2     1  UNL1        0.2483
      3 N         -61.1680  -48.4178  -23.1752 N.am    1  UNL1       -0.2945
      4 H         -62.1372  -48.3131  -22.7977 H       1  UNL1        0.1501
      5 C         -60.6101  -46.0857  -22.3462 C.ar    1  UNL1        0.0808
      6 C         -61.8866  -45.9313  -21.7820 C.ar    1  UNL1        0.0080
      7 C         -62.3019  -44.6913  -21.2905 C.ar    1  UNL1        0.0148
      8 C         -61.4449  -43.5782  -21.3412 C.ar    1  UNL1        0.0502
      9 C         -60.1621  -43.7369  -21.8936 C.ar    1  UNL1        0.0443
     10 C         -59.7438  -44.9768  -22.3867 C.ar    1  UNL1        0.1457
     11 F         -58.4754  -45.0968  -22.8535 F       1  UNL1       -0.2040
     12 N         -61.8738  -42.2932  -20.8379 N.pl3   1  UNL1       -0.3040
     13 C         -61.0527  -41.0957  -21.0665 C.3     1  UNL1        0.1123
     14 C         -61.9338  -39.8476  -21.1893 C.3     1  UNL1        0.1136
     15 N         -62.9048  -39.7500  -20.0863 N.pl3   1  UNL1       -0.2897
     16 C         -63.1105  -40.8998  -19.1938 C.3     1  UNL1        0.1136
     17 C         -63.0709  -42.2096  -19.9866 C.3     1  UNL1        0.1123
     18 C         -63.5520  -38.4914  -19.7906 C.ar    1  UNL1        0.1349
     19 C         -64.8376  -38.4434  -19.2315 C.ar    1  UNL1        0.0345
     20 C         -65.4282  -37.2099  -18.9616 C.ar    1  UNL1        0.0114
     21 C         -64.7469  -36.0125  -19.2427 C.ar    1  UNL1        0.1243
     22 C         -63.4500  -36.1015  -19.8017 C.ar    1  UNL1        0.2266
     23 O         -62.6932  -34.9701  -20.1118 O.3     1  UNL1       -0.4920
     24 N         -62.9059  -37.3220  -20.0521 N.ar    1  UNL1       -0.1969
     25 H         -63.0152  -34.0238  -19.9591 H       1  UNL1        0.2937
     26 C         -65.3918  -34.6753  -18.9481 C.3     1  UNL1        0.4229
     27 F         -65.0150  -34.2446  -17.6888 F       1  UNL1       -0.1657
     28 F         -64.9893  -33.7469  -19.8912 F       1  UNL1       -0.1657
     29 F         -66.7738  -34.7528  -18.9820 F       1  UNL1       -0.1657
     30 C         -60.7972  -49.6811  -23.8207 C.3     1  UNL1        0.1535
     31 C         -61.6307  -50.8035  -23.2665 C.2     1  UNL1        0.2443
     32 O         -61.2542  -51.4016  -22.2214 O.2     1  UNL1       -0.2730
     33 N         -62.8904  -51.1265  -23.8759 N.am    1  UNL1       -0.2825
     34 H         -63.3197  -50.4165  -24.5118 H       1  UNL1        0.1549
     35 C         -63.6414  -52.3182  -23.5882 C.ar    1  UNL1        0.0535
     36 C         -63.1269  -53.2548  -22.6812 C.ar    1  UNL1        0.0353
     37 C         -63.8631  -54.4032  -22.3805 C.ar    1  UNL1        0.1002
     38 N         -65.0799  -54.6024  -22.9525 N.ar    1  UNL1       -0.2422
     39 C         -65.6140  -53.7032  -23.8205 C.ar    1  UNL1        0.1002
     40 C         -64.9104  -52.5419  -24.1495 C.ar    1  UNL1        0.0353
     41 C         -60.9835  -49.5914  -25.3444 C.3     1  UNL1        0.0569
     42 C         -61.9850  -48.5336  -25.7068 C.ar    1  UNL1       -0.0017
     43 C         -63.3693  -48.6743  -25.7297 C.ar    1  UNL1        0.0681
     44 N         -63.9590  -47.4927  -26.0226 N.ar    1  UNL1       -0.3523
     45 C         -62.9596  -46.6065  -26.1754 C.ar    1  UNL1        0.0563
     46 C         -63.0719  -45.2475  -26.4661 C.ar    1  UNL1        0.0170
     47 C         -61.8865  -44.4956  -26.5628 C.ar    1  UNL1        0.0015
     48 C         -60.6303  -45.1112  -26.3657 C.ar    1  UNL1        0.0001
     49 C         -60.5475  -46.4843  -26.0713 C.ar    1  UNL1        0.0012
     50 C         -61.7396  -47.2038  -25.9865 C.ar    1  UNL1        0.0131
     51 H         -64.9839  -47.3075  -26.0979 H       1  UNL1        0.1660
@<TRIPOS>BOND
     1     1     2    2
     2     2     3   am
     3     3    30    1
     4    30    41    1
     5    41    42    1
     6    42    43   ar
     7    43    44   ar
     8    44    45   ar
     9    45    46   ar
    10    46    47   ar
    11    47    48   ar
    12    48    49   ar
    13    49    50   ar
    14    30    31    1
    15    31    32    2
    16    31    33   am
    17    33    35    1
    18    35    36   ar
    19    36    37   ar
    20    37    38   ar
    21    38    39   ar
    22    39    40   ar
    23     2     5    1
    24     5     6   ar
    25     6     7   ar
    26     7     8   ar
    27     8    12    1
    28    12    13    1
    29    13    14    1
    30    14    15    1
    31    15    18    1
    32    18    19   ar
    33    19    20   ar
    34    20    21   ar
    35    21    26    1
    36    26    27    1
    37    26    28    1
    38    26    29    1
    39    21    22   ar
    40    22    23    1
    41    22    24   ar
    42    15    16    1
    43    16    17    1
    44     8     9   ar
    45     9    10   ar
    46    10    11    1
    47    50    42   ar
    48    40    35   ar
    49    10     5   ar
    50    50    45   ar
    51    17    12    1
    52    24    18   ar
    53     3     4    1
    54    44    51    1
    55    33    34    1
    56    23    25    1
