@<TRIPOS>MOLECULE
*****
 47 52 0 0 0
SMALL
GASTEIGER

@<TRIPOS>ATOM
      1 C         -66.4937  -53.8543  -23.4255 C.ar    1  UNL1        0.0699
      2 C         -67.6833  -53.4456  -22.8038 C.ar    1  UNL1        0.1149
      3 N         -68.8247  -54.1612  -22.9754 N.ar    1  UNL1       -0.2281
      4 C         -68.8652  -55.2910  -23.7314 C.ar    1  UNL1        0.1300
      5 C         -67.6860  -55.7717  -24.3360 C.ar    1  UNL1        0.0398
      6 C         -66.5039  -55.0332  -24.1807 C.ar    1  UNL1        0.0172
      7 N         -70.1094  -55.9843  -23.8817 N.pl3   1  UNL1       -0.2934
      8 C         -70.3515  -57.2204  -23.1335 C.3     1  UNL1        0.0923
      9 C         -71.7904  -57.2339  -22.6080 C.3     1  UNL1        0.0252
     10 C         -72.8513  -56.8920  -23.6971 C.3     1  UNL1        0.0472
     11 C         -72.2239  -56.5163  -25.0608 C.3     1  UNL1        0.0252
     12 C         -71.0520  -55.5371  -24.9123 C.3     1  UNL1        0.0923
     13 C         -73.8124  -55.7844  -23.2134 C.3     1  UNL1        0.2054
     14 O         -74.5776  -56.2222  -22.0888 O.3     1  UNL1       -0.4755
     15 C         -74.3268  -55.8900  -20.7472 C.ar    1  UNL1        0.1388
     16 C         -75.2109  -56.3713  -19.7761 C.ar    1  UNL1        0.0369
     17 C         -75.0142  -56.0728  -18.4270 C.ar    1  UNL1        0.0033
     18 C         -73.9273  -55.2902  -18.0326 C.ar    1  UNL1        0.0066
     19 C         -73.0213  -54.7989  -18.9886 C.ar    1  UNL1        0.0785
     20 C         -73.2259  -55.1055  -20.3466 C.ar    1  UNL1        0.0433
     21 C         -71.8664  -53.9705  -18.5751 C.2     1  UNL1        0.3381
     22 O         -71.1541  -54.3128  -17.5925 O.2     1  UNL1       -0.2451
     23 O         -71.5552  -52.8030  -19.2677 O.3     1  UNL1       -0.4771
     24 H         -70.7672  -52.2289  -18.9923 H       1  UNL1        0.2954
     25 C         -64.4452  -52.6650  -24.3388 C.2     1  UNL1        0.2839
     26 O         -64.6420  -53.0899  -25.5091 O.2     1  UNL1       -0.2665
     27 N         -65.2629  -53.1309  -23.2530 N.am    1  UNL1       -0.2767
     28 H         -64.9002  -53.0117  -22.2799 H       1  UNL1        0.1553
     29 C         -64.5624  -49.4698  -24.5617 C.3     1  UNL1        0.0345
     30 C         -63.3933  -50.3220  -24.1691 C.ar    1  UNL1        0.0202
     31 C         -63.3461  -51.7174  -24.0738 C.ar    1  UNL1        0.1946
     32 O         -62.1405  -52.1041  -23.6961 O.2     1  UNL1       -0.4492
     33 C         -61.4031  -51.0316  -23.5422 C.ar    1  UNL1        0.1452
     34 C         -60.0699  -50.9731  -23.1517 C.ar    1  UNL1        0.0375
     35 C         -59.4677  -49.7074  -23.0471 C.ar    1  UNL1        0.0031
     36 C         -60.2025  -48.5250  -23.3326 C.ar    1  UNL1        0.0002
     37 C         -61.5580  -48.6290  -23.7276 C.ar    1  UNL1        0.0028
     38 C         -62.1237  -49.9014  -23.8214 C.ar    1  UNL1        0.0337
     39 C         -59.5556  -47.1933  -23.2184 C.ar    1  UNL1        0.0000
     40 C         -58.2399  -47.0760  -22.7312 C.ar    1  UNL1        0.0000
     41 C         -57.6337  -45.8205  -22.6240 C.ar    1  UNL1        0.0000
     42 C         -58.3310  -44.6707  -23.0010 C.ar    1  UNL1        0.0000
     43 C         -59.6366  -44.7737  -23.4860 C.ar    1  UNL1        0.0000
     44 C         -60.2482  -46.0265  -23.5947 C.ar    1  UNL1        0.0000
     45 C         -67.6767  -57.0261  -25.1681 C.3     1  UNL1        0.1664
     46 O         -67.9633  -56.7033  -26.4994 O.3     1  UNL1       -0.3771
     47 H         -67.9823  -57.5637  -26.9935 H       1  UNL1        0.2109
@<TRIPOS>BOND
     1    29    30    1
     2    30    31   ar
     3    31    25    1
     4    25    26    2
     5    25    27   am
     6    27     1    1
     7     1     2   ar
     8     2     3   ar
     9     3     4   ar
    10     4     7    1
    11     7     8    1
    12     8     9    1
    13     9    10    1
    14    10    13    1
    15    13    14    1
    16    14    15    1
    17    15    16   ar
    18    16    17   ar
    19    17    18   ar
    20    18    19   ar
    21    19    21    1
    22    21    22    2
    23    21    23    1
    24    19    20   ar
    25    10    11    1
    26    11    12    1
    27     4     5   ar
    28     5    45    1
    29    45    46    1
    30     5     6   ar
    31    31    32   ar
    32    32    33   ar
    33    33    34   ar
    34    34    35   ar
    35    35    36   ar
    36    36    39    1
    37    39    40   ar
    38    40    41   ar
    39    41    42   ar
    40    42    43   ar
    41    43    44   ar
    42    36    37   ar
    43    37    38   ar
    44    38    30   ar
    45     6     1   ar
    46    38    33   ar
    47    12     7    1
    48    44    39   ar
    49    20    15   ar
    50    27    28    1
    51    23    24    1
    52    46    47    1
@<TRIPOS>MOLECULE
*****
 47 52 0 0 0
SMALL
GASTEIGER

@<TRIPOS>ATOM
      1 C         -62.3526  -41.1538  -20.3588 C.ar    1  UNL1        0.0699
      2 C         -61.2961  -41.7740  -19.6748 C.ar    1  UNL1        0.1149
      3 N         -60.6489  -42.8306  -20.2308 N.ar    1  UNL1       -0.2281
      4 C         -60.9786  -43.3194  -21.4563 C.ar    1  UNL1        0.1300
      5 C         -61.9993  -42.7000  -22.2059 C.ar    1  UNL1        0.0398
      6 C         -62.6869  -41.6184  -21.6366 C.ar    1  UNL1        0.0172
      7 N         -60.2635  -44.4482  -21.9715 N.pl3   1  UNL1       -0.2934
      8 C         -60.5979  -45.7976  -21.5090 C.3     1  UNL1        0.0923
      9 C         -60.5796  -46.7698  -22.6928 C.3     1  UNL1        0.0252
     10 C         -59.2925  -46.6608  -23.5645 C.3     1  UNL1        0.0472
     11 C         -58.3433  -45.5270  -23.1088 C.3     1  UNL1        0.0252
     12 C         -59.0932  -44.2188  -22.8250 C.3     1  UNL1        0.0923
     13 C         -59.6418  -46.5133  -25.0615 C.3     1  UNL1        0.2054
     14 O         -60.7074  -47.3912  -25.4301 O.3     1  UNL1       -0.4755
     15 C         -61.7499  -47.0862  -26.3207 C.ar    1  UNL1        0.1388
     16 C         -62.2060  -45.7648  -26.3688 C.ar    1  UNL1        0.0369
     17 C         -63.2402  -45.4021  -27.2329 C.ar    1  UNL1        0.0033
     18 C         -63.8295  -46.3581  -28.0624 C.ar    1  UNL1        0.0066
     19 C         -63.3855  -47.6917  -28.0370 C.ar    1  UNL1        0.0785
     20 C         -62.3414  -48.0489  -27.1640 C.ar    1  UNL1        0.0433
     21 C         -64.0058  -48.7083  -28.9161 C.2     1  UNL1        0.3381
     22 O         -63.7324  -49.9306  -28.7709 O.2     1  UNL1       -0.2451
     23 O         -64.8982  -48.3241  -29.9139 O.3     1  UNL1       -0.4771
     24 H         -65.3277  -49.0121  -30.5209 H       1  UNL1        0.2954
     25 C         -62.9385  -38.6840  -20.3186 C.2     1  UNL1        0.2839
     26 O         -62.0198  -38.3879  -21.1293 O.2     1  UNL1       -0.2665
     27 N         -63.0494  -40.0227  -19.8085 N.am    1  UNL1       -0.2767
     28 H         -63.6026  -40.1698  -18.9339 H       1  UNL1        0.1553
     29 C         -66.1257  -38.6865  -20.6574 C.3     1  UNL1        0.0345
     30 C         -65.2711  -37.6423  -20.0043 C.ar    1  UNL1        0.0202
     31 C         -63.8792  -37.6447  -19.8592 C.ar    1  UNL1        0.1946
     32 O         -63.4888  -36.5522  -19.2270 O.2     1  UNL1       -0.4492
     33 C         -64.5556  -35.8410  -18.9552 C.ar    1  UNL1        0.1452
     34 C         -64.6088  -34.6171  -18.2974 C.ar    1  UNL1        0.0375
     35 C         -65.8689  -34.0239  -18.1079 C.ar    1  UNL1        0.0031
     36 C         -67.0510  -34.6588  -18.5758 C.ar    1  UNL1        0.0002
     37 C         -66.9525  -35.9044  -19.2413 C.ar    1  UNL1        0.0028
     38 C         -65.6855  -36.4643  -19.4124 C.ar    1  UNL1        0.0337
     39 C         -68.3767  -34.0225  -18.3695 C.ar    1  UNL1        0.0000
     40 C         -68.5111  -32.9069  -17.5213 C.ar    1  UNL1        0.0000
     41 C         -69.7610  -32.3104  -17.3283 C.ar    1  UNL1        0.0000
     42 C         -70.8881  -32.8182  -17.9781 C.ar    1  UNL1        0.0000
     43 C         -70.7679  -33.9242  -18.8223 C.ar    1  UNL1        0.0000
     44 C         -69.5207  -34.5253  -19.0184 C.ar    1  UNL1        0.0000
     45 C         -62.3890  -43.1938  -23.5734 C.3     1  UNL1        0.1664
     46 O         -61.5257  -42.6460  -24.5292 O.3     1  UNL1       -0.3771
     47 H         -61.8480  -42.9709  -25.4098 H       1  UNL1        0.2109
@<TRIPOS>BOND
     1    29    30    1
     2    30    31   ar
     3    31    25    1
     4    25    26    2
     5    25    27   am
     6    27     1    1
     7     1     2   ar
     8     2     3   ar
     9     3     4   ar
    10     4     7    1
    11     7     8    1
    12     8     9    1
    13     9    10    1
    14    10    13    1
    15    13    14    1
    16    14    15    1
    17    15    16   ar
    18    16    17   ar
    19    17    18   ar
    20    18    19   ar
    21    19    21    1
    22    21    22    2
    23    21    23    1
    24    19    20   ar
    25    10    11    1
    26    11    12    1
    27     4     5   ar
    28     5    45    1
    29    45    46    1
    30     5     6   ar
    31    31    32   ar
    32    32    33   ar
    33    33    34   ar
    34    34    35   ar
    35    35    36   ar
    36    36    39    1
    37    39    40   ar
    38    40    41   ar
    39    41    42   ar
    40    42    43   ar
    41    43    44   ar
    42    36    37   ar
    43    37    38   ar
    44    38    30   ar
    45     6     1   ar
    46    38    33   ar
    47    12     7    1
    48    44    39   ar
    49    20    15   ar
    50    27    28    1
    51    23    24    1
    52    46    47    1
@<TRIPOS>MOLECULE
*****
 47 52 0 0 0
SMALL
GASTEIGER

@<TRIPOS>ATOM
      1 C         -62.2771  -41.1702  -20.3475 C.ar    1  UNL1        0.0699
      2 C         -61.1568  -41.7201  -19.7062 C.ar    1  UNL1        0.1149
      3 N         -60.5086  -42.7808  -20.2530 N.ar    1  UNL1       -0.2281
      4 C         -60.8985  -43.3405  -21.4295 C.ar    1  UNL1        0.1300
      5 C         -61.9873  -42.7935  -22.1386 C.ar    1  UNL1        0.0398
      6 C         -62.6758  -41.7085  -21.5769 C.ar    1  UNL1        0.0172
      7 N         -60.1772  -44.4691  -21.9369 N.pl3   1  UNL1       -0.2934
      8 C         -60.5908  -45.8255  -21.5687 C.3     1  UNL1        0.0923
      9 C         -60.5022  -46.7435  -22.7918 C.3     1  UNL1        0.0252
     10 C         -59.1433  -46.6400  -23.5475 C.3     1  UNL1        0.0472
     11 C         -58.2016  -45.5613  -22.9609 C.3     1  UNL1        0.0252
     12 C         -58.9325  -44.2421  -22.6783 C.3     1  UNL1        0.0923
     13 C         -59.3600  -46.4134  -25.0595 C.3     1  UNL1        0.2054
     14 O         -60.6535  -45.8635  -25.3171 O.3     1  UNL1       -0.4755
     15 C         -61.5742  -46.3422  -26.2638 C.ar    1  UNL1        0.1388
     16 C         -61.6101  -47.7194  -26.5056 C.ar    1  UNL1        0.0369
     17 C         -62.5027  -48.2534  -27.4361 C.ar    1  UNL1        0.0033
     18 C         -63.3731  -47.4149  -28.1350 C.ar    1  UNL1        0.0066
     19 C         -63.3605  -46.0279  -27.9063 C.ar    1  UNL1        0.0785
     20 C         -62.4585  -45.4976  -26.9655 C.ar    1  UNL1        0.0433
     21 C         -64.2828  -45.1351  -28.6434 C.2     1  UNL1        0.3381
     22 O         -63.9404  -43.9546  -28.9247 O.2     1  UNL1       -0.2451
     23 O         -65.5397  -45.5906  -29.0334 O.3     1  UNL1       -0.4771
     24 H         -66.1784  -44.9874  -29.5378 H       1  UNL1        0.2954
     25 C         -62.8864  -38.7058  -20.3394 C.2     1  UNL1        0.2839
     26 O         -61.9810  -38.4141  -21.1664 O.2     1  UNL1       -0.2665
     27 N         -62.9779  -40.0371  -19.8065 N.am    1  UNL1       -0.2767
     28 H         -63.5186  -40.1753  -18.9226 H       1  UNL1        0.1553
     29 C         -66.0780  -38.7471  -20.6315 C.3     1  UNL1        0.0345
     30 C         -65.2252  -37.6827  -20.0095 C.ar    1  UNL1        0.0202
     31 C         -63.8314  -37.6682  -19.8847 C.ar    1  UNL1        0.1946
     32 O         -63.4434  -36.5606  -19.2777 O.2     1  UNL1       -0.4492
     33 C         -64.5136  -35.8557  -19.0030 C.ar    1  UNL1        0.1452
     34 C         -64.5702  -34.6210  -18.3662 C.ar    1  UNL1        0.0375
     35 C         -65.8337  -34.0374  -18.1687 C.ar    1  UNL1        0.0031
     36 C         -67.0156  -34.6927  -18.6081 C.ar    1  UNL1        0.0002
     37 C         -66.9136  -35.9489  -19.2528 C.ar    1  UNL1        0.0028
     38 C         -65.6434  -36.4987  -19.4325 C.ar    1  UNL1        0.0337
     39 C         -68.3449  -34.0665  -18.3937 C.ar    1  UNL1        0.0000
     40 C         -69.4912  -34.5862  -19.0247 C.ar    1  UNL1        0.0000
     41 C         -70.7414  -33.9939  -18.8216 C.ar    1  UNL1        0.0000
     42 C         -70.8624  -32.8797  -17.9883 C.ar    1  UNL1        0.0000
     43 C         -69.7330  -32.3549  -17.3564 C.ar    1  UNL1        0.0000
     44 C         -68.4800  -32.9426  -17.5565 C.ar    1  UNL1        0.0000
     45 C         -62.4459  -43.3673  -23.4524 C.3     1  UNL1        0.1664
     46 O         -61.4595  -43.1551  -24.4223 O.3     1  UNL1       -0.3771
     47 H         -61.8258  -43.5156  -25.2713 H       1  UNL1        0.2109
@<TRIPOS>BOND
     1    29    30    1
     2    30    31   ar
     3    31    25    1
     4    25    26    2
     5    25    27   am
     6    27     1    1
     7     1     2   ar
     8     2     3   ar
     9     3     4   ar
    10     4     7    1
    11     7     8    1
    12     8     9    1
    13     9    10    1
    14    10    13    1
    15    13    14    1
    16    14    15    1
    17    15    16   ar
    18    16    17   ar
    19    17    18   ar
    20    18    19   ar
    21    19    21    1
    22    21    22    2
    23    21    23    1
    24    19    20   ar
    25    10    11    1
    26    11    12    1
    27     4     5   ar
    28     5    45    1
    29    45    46    1
    30     5     6   ar
    31    31    32   ar
    32    32    33   ar
    33    33    34   ar
    34    34    35   ar
    35    35    36   ar
    36    36    39    1
    37    39    40   ar
    38    40    41   ar
    39    41    42   ar
    40    42    43   ar
    41    43    44   ar
    42    36    37   ar
    43    37    38   ar
    44    38    30   ar
    45     6     1   ar
    46    38    33   ar
    47    12     7    1
    48    44    39   ar
    49    20    15   ar
    50    27    28    1
    51    23    24    1
    52    46    47    1
@<TRIPOS>MOLECULE
*****
 47 52 0 0 0
SMALL
GASTEIGER

@<TRIPOS>ATOM
      1 C         -62.3060  -41.1307  -20.3615 C.ar    1  UNL1        0.0699
      2 C         -61.2405  -41.7373  -19.6793 C.ar    1  UNL1        0.1149
      3 N         -60.5855  -42.7901  -20.2332 N.ar    1  UNL1       -0.2281
      4 C         -60.9157  -43.2878  -21.4550 C.ar    1  UNL1        0.1300
      5 C         -61.9458  -42.6820  -22.2029 C.ar    1  UNL1        0.0398
      6 C         -62.6414  -41.6045  -21.6356 C.ar    1  UNL1        0.0172
      7 N         -60.1919  -44.4121  -21.9681 N.pl3   1  UNL1       -0.2934
      8 C         -60.6226  -45.7720  -21.6343 C.3     1  UNL1        0.0923
      9 C         -60.5146  -46.6677  -22.8724 C.3     1  UNL1        0.0252
     10 C         -59.1392  -46.5602  -23.5971 C.3     1  UNL1        0.0472
     11 C         -58.2027  -45.4996  -22.9706 C.3     1  UNL1        0.0252
     12 C         -58.9301  -44.1805  -22.6787 C.3     1  UNL1        0.0923
     13 C         -59.3221  -46.3037  -25.1088 C.3     1  UNL1        0.2054
     14 O         -60.5790  -45.6787  -25.3762 O.3     1  UNL1       -0.4755
     15 C         -61.1218  -45.4406  -26.6497 C.ar    1  UNL1        0.1388
     16 C         -62.5146  -45.4131  -26.7744 C.ar    1  UNL1        0.0369
     17 C         -63.1116  -45.1826  -28.0147 C.ar    1  UNL1        0.0033
     18 C         -62.3209  -44.9738  -29.1462 C.ar    1  UNL1        0.0066
     19 C         -60.9187  -44.9911  -29.0464 C.ar    1  UNL1        0.0785
     20 C         -60.3247  -45.2228  -27.7921 C.ar    1  UNL1        0.0433
     21 C         -60.0763  -44.7684  -30.2429 C.2     1  UNL1        0.3381
     22 O         -60.6033  -44.4656  -31.3477 O.2     1  UNL1       -0.2451
     23 O         -58.6916  -44.8917  -30.1602 O.3     1  UNL1       -0.4771
     24 H         -58.1062  -44.7417  -30.9734 H       1  UNL1        0.2954
     25 C         -62.9131  -38.6659  -20.3279 C.2     1  UNL1        0.2839
     26 O         -61.9986  -38.3645  -21.1413 O.2     1  UNL1       -0.2665
     27 N         -63.0115  -40.0039  -19.8134 N.am    1  UNL1       -0.2767
     28 H         -63.5617  -40.1530  -18.9372 H       1  UNL1        0.1553
     29 C         -66.1008  -38.6968  -20.6606 C.3     1  UNL1        0.0345
     30 C         -65.2540  -37.6433  -20.0123 C.ar    1  UNL1        0.0202
     31 C         -63.8618  -37.6333  -19.8699 C.ar    1  UNL1        0.1946
     32 O         -63.4796  -36.5355  -19.2419 O.2     1  UNL1       -0.4492
     33 C         -64.5519  -35.8326  -18.9703 C.ar    1  UNL1        0.1452
     34 C         -64.6144  -34.6072  -18.3162 C.ar    1  UNL1        0.0375
     35 C         -65.8792  -34.0242  -18.1261 C.ar    1  UNL1        0.0031
     36 C         -67.0567  -34.6707  -18.5898 C.ar    1  UNL1        0.0002
     37 C         -66.9488  -35.9175  -19.2515 C.ar    1  UNL1        0.0028
     38 C         -65.6774  -36.4671  -19.4234 C.ar    1  UNL1        0.0337
     39 C         -68.3874  -34.0452  -18.3829 C.ar    1  UNL1        0.0000
     40 C         -69.5278  -34.5580  -19.0299 C.ar    1  UNL1        0.0000
     41 C         -70.7795  -33.9663  -18.8338 C.ar    1  UNL1        0.0000
     42 C         -70.9077  -32.8596  -17.9916 C.ar    1  UNL1        0.0000
     43 C         -69.7841  -32.3417  -17.3438 C.ar    1  UNL1        0.0000
     44 C         -68.5298  -32.9287  -17.5368 C.ar    1  UNL1        0.0000
     45 C         -62.3366  -43.1860  -23.5664 C.3     1  UNL1        0.1664
     46 O         -61.3251  -42.8784  -24.4835 O.3     1  UNL1       -0.3771
     47 H         -61.6480  -43.1962  -25.3665 H       1  UNL1        0.2109
@<TRIPOS>BOND
     1    29    30    1
     2    30    31   ar
     3    31    25    1
     4    25    26    2
     5    25    27   am
     6    27     1    1
     7     1     2   ar
     8     2     3   ar
     9     3     4   ar
    10     4     7    1
    11     7     8    1
    12     8     9    1
    13     9    10    1
    14    10    13    1
    15    13    14    1
    16    14    15    1
    17    15    16   ar
    18    16    17   ar
    19    17    18   ar
    20    18    19   ar
    21    19    21    1
    22    21    22    2
    23    21    23    1
    24    19    20   ar
    25    10    11    1
    26    11    12    1
    27     4     5   ar
    28     5    45    1
    29    45    46    1
    30     5     6   ar
    31    31    32   ar
    32    32    33   ar
    33    33    34   ar
    34    34    35   ar
    35    35    36   ar
    36    36    39    1
    37    39    40   ar
    38    40    41   ar
    39    41    42   ar
    40    42    43   ar
    41    43    44   ar
    42    36    37   ar
    43    37    38   ar
    44    38    30   ar
    45     6     1   ar
    46    38    33   ar
    47    12     7    1
    48    44    39   ar
    49    20    15   ar
    50    27    28    1
    51    23    24    1
    52    46    47    1
@<TRIPOS>MOLECULE
*****
 47 52 0 0 0
SMALL
GASTEIGER

@<TRIPOS>ATOM
      1 C         -64.7383  -52.9408  -24.8722 C.ar    1  UNL1        0.0699
      2 C         -65.6433  -53.4760  -23.9431 C.ar    1  UNL1        0.1149
      3 N         -66.6105  -54.3382  -24.3499 N.ar    1  UNL1       -0.2281
      4 C         -66.7374  -54.7254  -25.6474 C.ar    1  UNL1        0.1300
      5 C         -65.8221  -54.2555  -26.6112 C.ar    1  UNL1        0.0398
      6 C         -64.8287  -53.3517  -26.2076 C.ar    1  UNL1        0.0172
      7 N         -67.7931  -55.6242  -26.0061 N.pl3   1  UNL1       -0.2934
      8 C         -68.1024  -56.7682  -25.1446 C.3     1  UNL1        0.0923
      9 C         -69.6209  -56.9409  -25.0390 C.3     1  UNL1        0.0252
     10 C         -70.3437  -56.9279  -26.4195 C.3     1  UNL1        0.0472
     11 C         -69.3883  -56.6475  -27.6039 C.3     1  UNL1        0.0252
     12 C         -68.4333  -55.4812  -27.3177 C.3     1  UNL1        0.0923
     13 C         -71.5254  -55.9337  -26.4226 C.3     1  UNL1        0.2054
     14 O         -71.7275  -55.3790  -27.7240 O.3     1  UNL1       -0.4755
     15 C         -72.7932  -54.5465  -28.1038 C.ar    1  UNL1        0.1388
     16 C         -73.3876  -54.7693  -29.3501 C.ar    1  UNL1        0.0369
     17 C         -74.4493  -53.9733  -29.7825 C.ar    1  UNL1        0.0033
     18 C         -74.9315  -52.9450  -28.9705 C.ar    1  UNL1        0.0066
     19 C         -74.3549  -52.7041  -27.7112 C.ar    1  UNL1        0.0785
     20 C         -73.2858  -53.5120  -27.2821 C.ar    1  UNL1        0.0433
     21 C         -74.8640  -51.6163  -26.8460 C.2     1  UNL1        0.3381
     22 O         -74.9805  -50.4441  -27.2957 O.2     1  UNL1       -0.2451
     23 O         -75.2193  -51.8771  -25.5250 O.3     1  UNL1       -0.4771
     24 H         -75.5683  -51.1395  -24.9246 H       1  UNL1        0.2954
     25 C         -63.6069  -50.6684  -24.8998 C.2     1  UNL1        0.2839
     26 O         -64.3197  -50.2544  -25.8534 O.2     1  UNL1       -0.2665
     27 N         -63.6915  -52.0385  -24.4751 N.am    1  UNL1       -0.2767
     28 H         -62.9007  -52.4271  -23.9128 H       1  UNL1        0.1553
     29 C         -62.2826  -48.0355  -26.1596 C.3     1  UNL1        0.0345
     30 C         -62.0726  -48.6047  -24.7888 C.ar    1  UNL1        0.0202
     31 C         -62.6524  -49.7554  -24.2427 C.ar    1  UNL1        0.1946
     32 O         -62.2243  -49.9338  -23.0056 O.2     1  UNL1       -0.4492
     33 C         -61.3962  -48.9585  -22.7213 C.ar    1  UNL1        0.1452
     34 C         -60.7134  -48.7523  -21.5277 C.ar    1  UNL1        0.0375
     35 C         -59.8696  -47.6319  -21.4351 C.ar    1  UNL1        0.0031
     36 C         -59.7214  -46.7388  -22.5305 C.ar    1  UNL1        0.0002
     37 C         -60.4345  -46.9856  -23.7283 C.ar    1  UNL1        0.0028
     38 C         -61.2629  -48.1074  -23.7854 C.ar    1  UNL1        0.0337
     39 C         -58.8273  -45.5583  -22.4207 C.ar    1  UNL1        0.0000
     40 C         -59.3642  -44.2615  -22.3098 C.ar    1  UNL1        0.0000
     41 C         -58.5197  -43.1518  -22.2075 C.ar    1  UNL1        0.0000
     42 C         -57.1336  -43.3225  -22.2140 C.ar    1  UNL1        0.0000
     43 C         -56.5887  -44.6036  -22.3233 C.ar    1  UNL1        0.0000
     44 C         -57.4282  -45.7171  -22.4268 C.ar    1  UNL1        0.0000
     45 C         -65.9112  -54.6683  -28.0560 C.3     1  UNL1        0.1664
     46 O         -64.7679  -54.2325  -28.7356 O.3     1  UNL1       -0.3771
     47 H         -64.8945  -54.4952  -29.6843 H       1  UNL1        0.2109
@<TRIPOS>BOND
     1    29    30    1
     2    30    31   ar
     3    31    25    1
     4    25    26    2
     5    25    27   am
     6    27     1    1
     7     1     2   ar
     8     2     3   ar
     9     3     4   ar
    10     4     7    1
    11     7     8    1
    12     8     9    1
    13     9    10    1
    14    10    13    1
    15    13    14    1
    16    14    15    1
    17    15    16   ar
    18    16    17   ar
    19    17    18   ar
    20    18    19   ar
    21    19    21    1
    22    21    22    2
    23    21    23    1
    24    19    20   ar
    25    10    11    1
    26    11    12    1
    27     4     5   ar
    28     5    45    1
    29    45    46    1
    30     5     6   ar
    31    31    32   ar
    32    32    33   ar
    33    33    34   ar
    34    34    35   ar
    35    35    36   ar
    36    36    39    1
    37    39    40   ar
    38    40    41   ar
    39    41    42   ar
    40    42    43   ar
    41    43    44   ar
    42    36    37   ar
    43    37    38   ar
    44    38    30   ar
    45     6     1   ar
    46    38    33   ar
    47    12     7    1
    48    44    39   ar
    49    20    15   ar
    50    27    28    1
    51    23    24    1
    52    46    47    1
@<TRIPOS>MOLECULE
*****
 47 52 0 0 0
SMALL
GASTEIGER

@<TRIPOS>ATOM
      1 C         -62.4907  -41.1154  -20.8640 C.ar    1  UNL1        0.0699
      2 C         -61.6345  -41.9594  -20.1407 C.ar    1  UNL1        0.1149
      3 N         -60.9687  -42.9607  -20.7718 N.ar    1  UNL1       -0.2281
      4 C         -61.0878  -43.1804  -22.1086 C.ar    1  UNL1        0.1300
      5 C         -61.8963  -42.3291  -22.8890 C.ar    1  UNL1        0.0398
      6 C         -62.6025  -41.3014  -22.2472 C.ar    1  UNL1        0.0172
      7 N         -60.3686  -44.2671  -22.7028 N.pl3   1  UNL1       -0.2934
      8 C         -58.9037  -44.2731  -22.6787 C.3     1  UNL1        0.0923
      9 C         -58.3969  -45.6866  -22.3756 C.3     1  UNL1        0.0252
     10 C         -59.0562  -46.7850  -23.2629 C.3     1  UNL1        0.0472
     11 C         -60.1557  -46.2311  -24.2002 C.3     1  UNL1        0.0252
     12 C         -61.1079  -45.2701  -23.4761 C.3     1  UNL1        0.0923
     13 C         -59.6039  -47.9446  -22.4027 C.3     1  UNL1        0.2054
     14 O         -59.7072  -49.1478  -23.1667 O.3     1  UNL1       -0.4755
     15 C         -60.8938  -49.8511  -23.4320 C.ar    1  UNL1        0.1388
     16 C         -61.0236  -51.1405  -22.9058 C.ar    1  UNL1        0.0369
     17 C         -62.1790  -51.8884  -23.1371 C.ar    1  UNL1        0.0033
     18 C         -63.2211  -51.3531  -23.8965 C.ar    1  UNL1        0.0066
     19 C         -63.1176  -50.0574  -24.4319 C.ar    1  UNL1        0.0785
     20 C         -61.9500  -49.3094  -24.1929 C.ar    1  UNL1        0.0433
     21 C         -64.2207  -49.4849  -25.2359 C.2     1  UNL1        0.3381
     22 O         -64.0975  -49.3483  -26.4834 O.2     1  UNL1       -0.2451
     23 O         -65.4067  -49.0905  -24.6217 O.3     1  UNL1       -0.4771
     24 H         -66.1673  -48.6972  -25.1630 H       1  UNL1        0.2954
     25 C         -62.9502  -38.6453  -20.5005 C.2     1  UNL1        0.2839
     26 O         -61.9142  -38.2953  -21.1273 O.2     1  UNL1       -0.2665
     27 N         -63.1988  -40.0349  -20.2323 N.am    1  UNL1       -0.2767
     28 H         -63.8747  -40.2741  -19.4717 H       1  UNL1        0.1553
     29 C         -66.1400  -38.6518  -20.8142 C.3     1  UNL1        0.0345
     30 C         -65.2845  -37.6231  -20.1381 C.ar    1  UNL1        0.0202
     31 C         -63.8915  -37.6236  -20.0040 C.ar    1  UNL1        0.1946
     32 O         -63.5005  -36.5480  -19.3438 O.2     1  UNL1       -0.4492
     33 C         -64.5680  -35.8495  -19.0433 C.ar    1  UNL1        0.1452
     34 C         -64.6210  -34.6453  -18.3502 C.ar    1  UNL1        0.0375
     35 C         -65.8819  -34.0632  -18.1338 C.ar    1  UNL1        0.0031
     36 C         -67.0651  -34.6895  -18.6106 C.ar    1  UNL1        0.0002
     37 C         -66.9669  -35.9151  -19.3123 C.ar    1  UNL1        0.0028
     38 C         -65.6991  -36.4644  -19.5094 C.ar    1  UNL1        0.0337
     39 C         -68.3918  -34.0651  -18.3756 C.ar    1  UNL1        0.0000
     40 C         -68.5153  -32.9401  -17.5382 C.ar    1  UNL1        0.0000
     41 C         -69.7661  -32.3549  -17.3183 C.ar    1  UNL1        0.0000
     42 C         -70.9048  -32.8834  -17.9300 C.ar    1  UNL1        0.0000
     43 C         -70.7955  -33.9989  -18.7631 C.ar    1  UNL1        0.0000
     44 C         -69.5475  -34.5888  -18.9861 C.ar    1  UNL1        0.0000
     45 C         -62.0468  -42.5215  -24.3743 C.3     1  UNL1        0.1664
     46 O         -60.8393  -42.2080  -25.0087 O.3     1  UNL1       -0.3771
     47 H         -61.0036  -42.3140  -25.9816 H       1  UNL1        0.2109
@<TRIPOS>BOND
     1    29    30    1
     2    30    31   ar
     3    31    25    1
     4    25    26    2
     5    25    27   am
     6    27     1    1
     7     1     2   ar
     8     2     3   ar
     9     3     4   ar
    10     4     7    1
    11     7     8    1
    12     8     9    1
    13     9    10    1
    14    10    13    1
    15    13    14    1
    16    14    15    1
    17    15    16   ar
    18    16    17   ar
    19    17    18   ar
    20    18    19   ar
    21    19    21    1
    22    21    22    2
    23    21    23    1
    24    19    20   ar
    25    10    11    1
    26    11    12    1
    27     4     5   ar
    28     5    45    1
    29    45    46    1
    30     5     6   ar
    31    31    32   ar
    32    32    33   ar
    33    33    34   ar
    34    34    35   ar
    35    35    36   ar
    36    36    39    1
    37    39    40   ar
    38    40    41   ar
    39    41    42   ar
    40    42    43   ar
    41    43    44   ar
    42    36    37   ar
    43    37    38   ar
    44    38    30   ar
    45     6     1   ar
    46    38    33   ar
    47    12     7    1
    48    44    39   ar
    49    20    15   ar
    50    27    28    1
    51    23    24    1
    52    46    47    1
@<TRIPOS>MOLECULE
*****
 47 52 0 0 0
SMALL
GASTEIGER

@<TRIPOS>ATOM
      1 C         -62.6296  -41.1086  -20.9180 C.ar    1  UNL1        0.0699
      2 C         -61.8154  -41.9921  -20.1933 C.ar    1  UNL1        0.1149
      3 N         -61.1502  -42.9887  -20.8326 N.ar    1  UNL1       -0.2281
      4 C         -61.2297  -43.1661  -22.1785 C.ar    1  UNL1        0.1300
      5 C         -61.9941  -42.2747  -22.9585 C.ar    1  UNL1        0.0398
      6 C         -62.6995  -41.2512  -22.3090 C.ar    1  UNL1        0.0172
      7 N         -60.5140  -44.2501  -22.7818 N.pl3   1  UNL1       -0.2934
      8 C         -59.0541  -44.3105  -22.6750 C.3     1  UNL1        0.0923
      9 C         -58.6137  -45.7538  -22.4110 C.3     1  UNL1        0.0252
     10 C         -59.2568  -46.7861  -23.3852 C.3     1  UNL1        0.0472
     11 C         -60.2805  -46.1506  -24.3560 C.3     1  UNL1        0.0252
     12 C         -61.2404  -45.1895  -23.6424 C.3     1  UNL1        0.0923
     13 C         -59.8925  -47.9628  -22.6133 C.3     1  UNL1        0.2054
     14 O         -60.7114  -48.7590  -23.4721 O.3     1  UNL1       -0.4755
     15 C         -60.9815  -50.1278  -23.3096 C.ar    1  UNL1        0.1388
     16 C         -59.9375  -50.9566  -22.8858 C.ar    1  UNL1        0.0369
     17 C         -60.1454  -52.3252  -22.7082 C.ar    1  UNL1        0.0033
     18 C         -61.4030  -52.8813  -22.9502 C.ar    1  UNL1        0.0066
     19 C         -62.4701  -52.0689  -23.3715 C.ar    1  UNL1        0.0785
     20 C         -62.2526  -50.6898  -23.5469 C.ar    1  UNL1        0.0433
     21 C         -63.8056  -52.6536  -23.6274 C.2     1  UNL1        0.3381
     22 O         -64.4327  -52.3753  -24.6854 O.2     1  UNL1       -0.2451
     23 O         -64.3838  -53.5175  -22.7006 O.3     1  UNL1       -0.4771
     24 H         -65.2975  -53.9226  -22.8662 H       1  UNL1        0.2954
     25 C         -63.0449  -38.6411  -20.4899 C.2     1  UNL1        0.2839
     26 O         -61.9784  -38.2965  -21.0667 O.2     1  UNL1       -0.2665
     27 N         -63.3354  -40.0321  -20.2771 N.am    1  UNL1       -0.2767
     28 H         -64.0444  -40.2792  -19.5499 H       1  UNL1        0.1553
     29 C         -66.2356  -38.6340  -20.7946 C.3     1  UNL1        0.0345
     30 C         -65.3735  -37.6068  -20.1246 C.ar    1  UNL1        0.0202
     31 C         -63.9801  -37.6133  -19.9945 C.ar    1  UNL1        0.1946
     32 O         -63.5823  -36.5371  -19.3393 O.2     1  UNL1       -0.4492
     33 C         -64.6457  -35.8327  -19.0384 C.ar    1  UNL1        0.1452
     34 C         -64.6912  -34.6257  -18.3495 C.ar    1  UNL1        0.0375
     35 C         -65.9489  -34.0370  -18.1316 C.ar    1  UNL1        0.0031
     36 C         -67.1363  -34.6596  -18.6028 C.ar    1  UNL1        0.0002
     37 C         -67.0456  -35.8881  -19.3003 C.ar    1  UNL1        0.0028
     38 C         -65.7809  -36.4440  -19.4990 C.ar    1  UNL1        0.0337
     39 C         -68.4594  -34.0282  -18.3664 C.ar    1  UNL1        0.0000
     40 C         -69.6156  -34.5342  -18.9903 C.ar    1  UNL1        0.0000
     41 C         -70.8600  -33.9370  -18.7665 C.ar    1  UNL1        0.0000
     42 C         -70.9651  -32.8317  -17.9194 C.ar    1  UNL1        0.0000
     43 C         -69.8257  -32.3205  -17.2943 C.ar    1  UNL1        0.0000
     44 C         -68.5784  -32.9131  -17.5151 C.ar    1  UNL1        0.0000
     45 C         -62.0996  -42.4197  -24.4530 C.3     1  UNL1        0.1664
     46 O         -63.3839  -42.0479  -24.8669 O.3     1  UNL1       -0.3771
     47 H         -63.4113  -42.1975  -25.8477 H       1  UNL1        0.2109
@<TRIPOS>BOND
     1    29    30    1
     2    30    31   ar
     3    31    25    1
     4    25    26    2
     5    25    27   am
     6    27     1    1
     7     1     2   ar
     8     2     3   ar
     9     3     4   ar
    10     4     7    1
    11     7     8    1
    12     8     9    1
    13     9    10    1
    14    10    13    1
    15    13    14    1
    16    14    15    1
    17    15    16   ar
    18    16    17   ar
    19    17    18   ar
    20    18    19   ar
    21    19    21    1
    22    21    22    2
    23    21    23    1
    24    19    20   ar
    25    10    11    1
    26    11    12    1
    27     4     5   ar
    28     5    45    1
    29    45    46    1
    30     5     6   ar
    31    31    32   ar
    32    32    33   ar
    33    33    34   ar
    34    34    35   ar
    35    35    36   ar
    36    36    39    1
    37    39    40   ar
    38    40    41   ar
    39    41    42   ar
    40    42    43   ar
    41    43    44   ar
    42    36    37   ar
    43    37    38   ar
    44    38    30   ar
    45     6     1   ar
    46    38    33   ar
    47    12     7    1
    48    44    39   ar
    49    20    15   ar
    50    27    28    1
    51    23    24    1
    52    46    47    1
@<TRIPOS>MOLECULE
*****
 47 52 0 0 0
SMALL
GASTEIGER

@<TRIPOS>ATOM
      1 C         -62.1219  -41.4891  -20.3581 C.ar    1  UNL1        0.0699
      2 C         -60.7204  -41.5435  -20.3987 C.ar    1  UNL1        0.1149
      3 N         -60.0935  -42.6347  -20.9092 N.ar    1  UNL1       -0.2281
      4 C         -60.7796  -43.6984  -21.4064 C.ar    1  UNL1        0.1300
      5 C         -62.1889  -43.6716  -21.4347 C.ar    1  UNL1        0.0398
      6 C         -62.8491  -42.5580  -20.8955 C.ar    1  UNL1        0.0172
      7 N         -60.0508  -44.8226  -21.9125 N.pl3   1  UNL1       -0.2934
      8 C         -59.9820  -46.0600  -21.1312 C.3     1  UNL1        0.0923
      9 C         -60.1309  -47.2683  -22.0611 C.3     1  UNL1        0.0252
     10 C         -59.1964  -47.2105  -23.3068 C.3     1  UNL1        0.0472
     11 C         -58.3809  -45.8984  -23.3953 C.3     1  UNL1        0.0252
     12 C         -59.2429  -44.6581  -23.1253 C.3     1  UNL1        0.0923
     13 C         -59.9873  -47.4519  -24.6109 C.3     1  UNL1        0.2054
     14 O         -61.3881  -47.5618  -24.3502 O.3     1  UNL1       -0.4755
     15 C         -62.1211  -48.7589  -24.2996 C.ar    1  UNL1        0.1388
     16 C         -63.4286  -48.7488  -24.7962 C.ar    1  UNL1        0.0369
     17 C         -64.2061  -49.9076  -24.7712 C.ar    1  UNL1        0.0033
     18 C         -63.6829  -51.0927  -24.2507 C.ar    1  UNL1        0.0066
     19 C         -62.3696  -51.1304  -23.7504 C.ar    1  UNL1        0.0785
     20 C         -61.5919  -49.9582  -23.7806 C.ar    1  UNL1        0.0433
     21 C         -61.8099  -52.3850  -23.1994 C.2     1  UNL1        0.3381
     22 O         -60.9043  -53.0066  -23.8188 O.2     1  UNL1       -0.2451
     23 O         -62.2790  -52.8924  -21.9903 O.3     1  UNL1       -0.4771
     24 H         -61.9028  -53.7505  -21.6050 H       1  UNL1        0.2954
     25 C         -62.6771  -39.0119  -20.3613 C.2     1  UNL1        0.2839
     26 O         -61.7321  -38.7363  -21.1485 O.2     1  UNL1       -0.2665
     27 N         -62.8196  -40.3433  -19.8401 N.am    1  UNL1       -0.2767
     28 H         -63.3994  -40.4738  -18.9802 H       1  UNL1        0.1553
     29 C         -65.8698  -39.0532  -20.6408 C.3     1  UNL1        0.0345
     30 C         -65.0115  -37.9703  -20.0596 C.ar    1  UNL1        0.0202
     31 C         -63.6172  -37.9559  -19.9402 C.ar    1  UNL1        0.1946
     32 O         -63.2237  -36.8289  -19.3739 O.2     1  UNL1       -0.4492
     33 C         -64.2908  -36.1113  -19.1205 C.ar    1  UNL1        0.1452
     34 C         -64.3413  -34.8547  -18.5275 C.ar    1  UNL1        0.0375
     35 C         -65.6022  -34.2605  -18.3464 C.ar    1  UNL1        0.0031
     36 C         -66.7877  -34.9270  -18.7583 C.ar    1  UNL1        0.0002
     37 C         -66.6919  -36.2055  -19.3588 C.ar    1  UNL1        0.0028
     38 C         -65.4241  -36.7654  -19.5233 C.ar    1  UNL1        0.0337
     39 C         -68.1143  -34.2894  -18.5616 C.ar    1  UNL1        0.0000
     40 C         -69.2365  -34.7334  -19.2866 C.ar    1  UNL1        0.0000
     41 C         -70.4842  -34.1304  -19.0998 C.ar    1  UNL1        0.0000
     42 C         -70.6265  -33.0809  -18.1895 C.ar    1  UNL1        0.0000
     43 C         -69.5211  -32.6315  -17.4640 C.ar    1  UNL1        0.0000
     44 C         -68.2707  -33.2301  -17.6473 C.ar    1  UNL1        0.0000
     45 C         -62.9922  -44.8171  -21.9900 C.3     1  UNL1        0.1664
     46 O         -62.5781  -45.0837  -23.3000 O.3     1  UNL1       -0.3771
     47 H         -63.1611  -45.8161  -23.6295 H       1  UNL1        0.2109
@<TRIPOS>BOND
     1    29    30    1
     2    30    31   ar
     3    31    25    1
     4    25    26    2
     5    25    27   am
     6    27     1    1
     7     1     2   ar
     8     2     3   ar
     9     3     4   ar
    10     4     7    1
    11     7     8    1
    12     8     9    1
    13     9    10    1
    14    10    13    1
    15    13    14    1
    16    14    15    1
    17    15    16   ar
    18    16    17   ar
    19    17    18   ar
    20    18    19   ar
    21    19    21    1
    22    21    22    2
    23    21    23    1
    24    19    20   ar
    25    10    11    1
    26    11    12    1
    27     4     5   ar
    28     5    45    1
    29    45    46    1
    30     5     6   ar
    31    31    32   ar
    32    32    33   ar
    33    33    34   ar
    34    34    35   ar
    35    35    36   ar
    36    36    39    1
    37    39    40   ar
    38    40    41   ar
    39    41    42   ar
    40    42    43   ar
    41    43    44   ar
    42    36    37   ar
    43    37    38   ar
    44    38    30   ar
    45     6     1   ar
    46    38    33   ar
    47    12     7    1
    48    44    39   ar
    49    20    15   ar
    50    27    28    1
    51    23    24    1
    52    46    47    1
@<TRIPOS>MOLECULE
*****
 47 52 0 0 0
SMALL
GASTEIGER

@<TRIPOS>ATOM
      1 C         -63.2616  -41.8694  -21.5990 C.ar    1  UNL1        0.0699
      2 C         -62.8751  -43.0454  -20.9384 C.ar    1  UNL1        0.1149
      3 N         -62.2851  -44.0548  -21.6292 N.ar    1  UNL1       -0.2281
      4 C         -62.0346  -43.9706  -22.9632 C.ar    1  UNL1        0.1300
      5 C         -62.3578  -42.7905  -23.6634 C.ar    1  UNL1        0.0398
      6 C         -62.9827  -41.7468  -22.9655 C.ar    1  UNL1        0.0172
      7 N         -61.4251  -45.0825  -23.6292 N.pl3   1  UNL1       -0.2934
      8 C         -62.2199  -46.2740  -23.9374 C.3     1  UNL1        0.0923
      9 C         -61.8617  -46.7877  -25.3354 C.3     1  UNL1        0.0252
     10 C         -60.3275  -46.9274  -25.5702 C.3     1  UNL1        0.0472
     11 C         -59.4812  -46.4275  -24.3752 C.3     1  UNL1        0.0252
     12 C         -59.9735  -45.0773  -23.8376 C.3     1  UNL1        0.0923
     13 C         -59.8957  -46.2273  -26.8771 C.3     1  UNL1        0.2054
     14 O         -61.0316  -45.8398  -27.6527 O.3     1  UNL1       -0.4755
     15 C         -60.9928  -45.1446  -28.8727 C.ar    1  UNL1        0.1388
     16 C         -62.0406  -44.2634  -29.1590 C.ar    1  UNL1        0.0369
     17 C         -62.0574  -43.5460  -30.3560 C.ar    1  UNL1        0.0033
     18 C         -61.0230  -43.6999  -31.2810 C.ar    1  UNL1        0.0066
     19 C         -59.9557  -44.5752  -31.0146 C.ar    1  UNL1        0.0785
     20 C         -59.9456  -45.2938  -29.8048 C.ar    1  UNL1        0.0433
     21 C         -58.8559  -44.7402  -31.9914 C.2     1  UNL1        0.3381
     22 O         -59.0760  -44.6209  -33.2272 O.2     1  UNL1       -0.2451
     23 O         -57.5657  -45.0298  -31.5545 O.3     1  UNL1       -0.4771
     24 H         -56.8062  -45.1451  -32.2150 H       1  UNL1        0.2954
     25 C         -63.2682  -39.4797  -20.7423 C.2     1  UNL1        0.2839
     26 O         -62.0463  -39.3152  -21.0044 O.2     1  UNL1       -0.2665
     27 N         -63.8735  -40.7737  -20.8970 N.am    1  UNL1       -0.2767
     28 H         -64.7737  -40.9566  -20.3982 H       1  UNL1        0.1553
     29 C         -66.4478  -39.1337  -20.9509 C.3     1  UNL1        0.0345
     30 C         -65.4599  -38.1964  -20.3242 C.ar    1  UNL1        0.0202
     31 C         -64.0719  -38.3509  -20.2360 C.ar    1  UNL1        0.1946
     32 O         -63.5406  -37.3151  -19.6110 O.2     1  UNL1       -0.4492
     33 C         -64.5124  -36.4965  -19.2899 C.ar    1  UNL1        0.1452
     34 C         -64.4065  -35.2826  -18.6200 C.ar    1  UNL1        0.0375
     35 C         -65.5864  -34.5593  -18.3742 C.ar    1  UNL1        0.0031
     36 C         -66.8479  -35.0568  -18.7990 C.ar    1  UNL1        0.0002
     37 C         -66.9115  -36.2971  -19.4785 C.ar    1  UNL1        0.0028
     38 C         -65.7205  -36.9883  -19.7059 C.ar    1  UNL1        0.0337
     39 C         -68.0877  -34.2838  -18.5334 C.ar    1  UNL1        0.0000
     40 C         -69.3045  -34.6525  -19.1380 C.ar    1  UNL1        0.0000
     41 C         -70.4701  -33.9221  -18.8866 C.ar    1  UNL1        0.0000
     42 C         -70.4355  -32.8190  -18.0309 C.ar    1  UNL1        0.0000
     43 C         -69.2348  -32.4433  -17.4247 C.ar    1  UNL1        0.0000
     44 C         -68.0658  -33.1694  -17.6731 C.ar    1  UNL1        0.0000
     45 C         -62.0850  -42.6431  -25.1364 C.3     1  UNL1        0.1664
     46 O         -63.2811  -42.3578  -25.8047 O.3     1  UNL1       -0.3771
     47 H         -63.0528  -42.3088  -26.7693 H       1  UNL1        0.2109
@<TRIPOS>BOND
     1    29    30    1
     2    30    31   ar
     3    31    25    1
     4    25    26    2
     5    25    27   am
     6    27     1    1
     7     1     2   ar
     8     2     3   ar
     9     3     4   ar
    10     4     7    1
    11     7     8    1
    12     8     9    1
    13     9    10    1
    14    10    13    1
    15    13    14    1
    16    14    15    1
    17    15    16   ar
    18    16    17   ar
    19    17    18   ar
    20    18    19   ar
    21    19    21    1
    22    21    22    2
    23    21    23    1
    24    19    20   ar
    25    10    11    1
    26    11    12    1
    27     4     5   ar
    28     5    45    1
    29    45    46    1
    30     5     6   ar
    31    31    32   ar
    32    32    33   ar
    33    33    34   ar
    34    34    35   ar
    35    35    36   ar
    36    36    39    1
    37    39    40   ar
    38    40    41   ar
    39    41    42   ar
    40    42    43   ar
    41    43    44   ar
    42    36    37   ar
    43    37    38   ar
    44    38    30   ar
    45     6     1   ar
    46    38    33   ar
    47    12     7    1
    48    44    39   ar
    49    20    15   ar
    50    27    28    1
    51    23    24    1
    52    46    47    1
