@<TRIPOS>MOLECULE
*****
 47 52 0 0 0
SMALL
GASTEIGER

@<TRIPOS>ATOM
      1 O         -64.9169  -40.0876  -21.7792 O.2     1  UNL1       -0.2701
      2 C         -63.8956  -40.4828  -22.4045 C.2     1  UNL1        0.2483
      3 N         -62.6111  -40.5050  -21.7532 N.am    1  UNL1       -0.2945
      4 H         -61.7578  -40.6099  -22.3472 H       1  UNL1        0.1501
      5 C         -64.0311  -40.8836  -23.8229 C.ar    1  UNL1        0.0808
      6 C         -63.1483  -41.8338  -24.3626 C.ar    1  UNL1        0.0080
      7 C         -63.2595  -42.2299  -25.6978 C.ar    1  UNL1        0.0148
      8 C         -64.2452  -41.6711  -26.5249 C.ar    1  UNL1        0.0502
      9 C         -65.1216  -40.7128  -25.9917 C.ar    1  UNL1        0.0443
     10 C         -65.0152  -40.3156  -24.6552 C.ar    1  UNL1        0.1457
     11 F         -65.8462  -39.3462  -24.1951 F       1  UNL1       -0.2040
     12 N         -64.3681  -42.0888  -27.8975 N.pl3   1  UNL1       -0.3040
     13 C         -64.4838  -43.5126  -28.2395 C.3     1  UNL1        0.1122
     14 C         -63.3903  -43.8901  -29.2415 C.3     1  UNL1        0.1123
     15 N         -63.2791  -42.8848  -30.3072 N.pl3   1  UNL1       -0.3034
     16 C         -64.1908  -41.7368  -30.3549 C.3     1  UNL1        0.1123
     17 C         -64.2872  -41.0836  -28.9698 C.3     1  UNL1        0.1122
     18 C         -62.3967  -43.1333  -31.4084 C.ar    1  UNL1        0.0587
     19 C         -62.8638  -42.9762  -32.7209 C.ar    1  UNL1        0.0162
     20 C         -62.0144  -43.2180  -33.8041 C.ar    1  UNL1        0.0127
     21 C         -60.6916  -43.6138  -33.5822 C.ar    1  UNL1        0.0586
     22 CL        -59.6261  -43.9154  -34.9426 Cl      1  UNL1       -0.0822
     23 C         -60.2171  -43.7639  -32.2747 C.ar    1  UNL1        0.0240
     24 C         -61.0637  -43.5235  -31.1857 C.ar    1  UNL1        0.0718
     25 CL        -60.4264  -43.6824  -29.5546 Cl      1  UNL1       -0.0809
     26 C         -62.4014  -40.3680  -20.3044 C.3     1  UNL1        0.1535
     27 C         -63.3273  -39.3330  -19.7037 C.2     1  UNL1        0.2443
     28 O         -64.0795  -39.6357  -18.7383 O.2     1  UNL1       -0.2730
     29 N         -63.3621  -38.0076  -20.2588 N.am    1  UNL1       -0.2825
     30 H         -63.0014  -37.8824  -21.2319 H       1  UNL1        0.1549
     31 C         -63.8691  -36.8439  -19.5799 C.ar    1  UNL1        0.0535
     32 C         -65.2333  -36.5021  -19.6057 C.ar    1  UNL1        0.0353
     33 C         -65.6795  -35.3897  -18.8882 C.ar    1  UNL1        0.1002
     34 N         -64.8024  -34.6483  -18.1620 N.ar    1  UNL1       -0.2422
     35 C         -63.4815  -34.9622  -18.1066 C.ar    1  UNL1        0.1002
     36 C         -62.9941  -36.0682  -18.8065 C.ar    1  UNL1        0.0353
     37 C         -62.5056  -41.7335  -19.5927 C.3     1  UNL1        0.0569
     38 C         -62.3247  -42.8765  -20.5520 C.ar    1  UNL1       -0.0017
     39 C         -63.3124  -43.7606  -20.9762 C.ar    1  UNL1        0.0681
     40 N         -62.8311  -44.5809  -21.9379 N.ar    1  UNL1       -0.3523
     41 C         -61.5520  -44.2160  -22.1320 C.ar    1  UNL1        0.0563
     42 C         -60.6553  -44.7438  -23.0600 C.ar    1  UNL1        0.0170
     43 C         -59.3676  -44.1810  -23.1243 C.ar    1  UNL1        0.0015
     44 C         -59.0091  -43.1155  -22.2695 C.ar    1  UNL1        0.0001
     45 C         -59.9350  -42.6025  -21.3432 C.ar    1  UNL1        0.0012
     46 C         -61.2048  -43.1798  -21.3032 C.ar    1  UNL1        0.0131
     47 H         -63.3584  -45.3263  -22.4445 H       1  UNL1        0.1660
@<TRIPOS>BOND
     1     1     2    2
     2     2     3   am
     3     3    26    1
     4    26    37    1
     5    37    38    1
     6    38    39   ar
     7    39    40   ar
     8    40    41   ar
     9    41    42   ar
    10    42    43   ar
    11    43    44   ar
    12    44    45   ar
    13    45    46   ar
    14    26    27    1
    15    27    28    2
    16    27    29   am
    17    29    31    1
    18    31    32   ar
    19    32    33   ar
    20    33    34   ar
    21    34    35   ar
    22    35    36   ar
    23     2     5    1
    24     5     6   ar
    25     6     7   ar
    26     7     8   ar
    27     8    12    1
    28    12    13    1
    29    13    14    1
    30    14    15    1
    31    15    18    1
    32    18    19   ar
    33    19    20   ar
    34    20    21   ar
    35    21    22    1
    36    21    23   ar
    37    23    24   ar
    38    24    25    1
    39    15    16    1
    40    16    17    1
    41     8     9   ar
    42     9    10   ar
    43    10    11    1
    44    46    38   ar
    45    36    31   ar
    46    10     5   ar
    47    46    41   ar
    48    17    12    1
    49    24    18   ar
    50     3     4    1
    51    40    47    1
    52    29    30    1
@<TRIPOS>MOLECULE
*****
 47 52 0 0 0
SMALL
GASTEIGER

@<TRIPOS>ATOM
      1 O         -65.1902  -40.3690  -21.6819 O.2     1  UNL1       -0.2701
      2 C         -64.0460  -40.5766  -22.1696 C.2     1  UNL1        0.2483
      3 N         -62.8693  -40.3944  -21.3593 N.am    1  UNL1       -0.2945
      4 H         -61.9422  -40.3446  -21.8387 H       1  UNL1        0.1501
      5 C         -63.9311  -40.9700  -23.5919 C.ar    1  UNL1        0.0808
      6 C         -62.9946  -41.9474  -23.9678 C.ar    1  UNL1        0.0080
      7 C         -62.8710  -42.3370  -25.3038 C.ar    1  UNL1        0.0148
      8 C         -63.6696  -41.7448  -26.2934 C.ar    1  UNL1        0.0502
      9 C         -64.5982  -40.7595  -25.9228 C.ar    1  UNL1        0.0443
     10 C         -64.7268  -40.3685  -24.5863 C.ar    1  UNL1        0.1457
     11 F         -65.5971  -39.3735  -24.2791 F       1  UNL1       -0.2040
     12 N         -63.5512  -42.1556  -27.6685 N.pl3   1  UNL1       -0.3040
     13 C         -64.4359  -41.5926  -28.6970 C.3     1  UNL1        0.1122
     14 C         -65.1494  -42.7267  -29.4368 C.3     1  UNL1        0.1123
     15 N         -64.2126  -43.8045  -29.7827 N.pl3   1  UNL1       -0.3034
     16 C         -62.7833  -43.6847  -29.4759 C.3     1  UNL1        0.1123
     17 C         -62.5938  -43.2145  -28.0275 C.3     1  UNL1        0.1122
     18 C         -64.6732  -44.8926  -30.5931 C.ar    1  UNL1        0.0587
     19 C         -65.2060  -44.6343  -31.8639 C.ar    1  UNL1        0.0162
     20 C         -65.6614  -45.6862  -32.6635 C.ar    1  UNL1        0.0127
     21 C         -65.5827  -47.0033  -32.2000 C.ar    1  UNL1        0.0586
     22 CL        -66.1530  -48.3227  -33.2052 Cl      1  UNL1       -0.0822
     23 C         -65.0439  -47.2683  -30.9363 C.ar    1  UNL1        0.0240
     24 C         -64.5867  -46.2184  -30.1307 C.ar    1  UNL1        0.0718
     25 CL        -63.8785  -46.5873  -28.5641 Cl      1  UNL1       -0.0809
     26 C         -62.8711  -40.2491  -19.8961 C.3     1  UNL1        0.1535
     27 C         -63.8387  -39.1770  -19.4448 C.2     1  UNL1        0.2443
     28 O         -64.7825  -39.4615  -18.6588 O.2     1  UNL1       -0.2730
     29 N         -63.6898  -37.8357  -19.9394 N.am    1  UNL1       -0.2825
     30 H         -63.1375  -37.7036  -20.8171 H       1  UNL1        0.1549
     31 C         -64.2558  -36.6639  -19.3241 C.ar    1  UNL1        0.0535
     32 C         -63.5283  -35.8753  -18.4147 C.ar    1  UNL1        0.0353
     33 C         -64.1086  -34.7203  -17.8849 C.ar    1  UNL1        0.1002
     34 N         -65.3646  -34.3558  -18.2537 N.ar    1  UNL1       -0.2422
     35 C         -66.0862  -35.0898  -19.1408 C.ar    1  UNL1        0.1002
     36 C         -65.5424  -36.2499  -19.6967 C.ar    1  UNL1        0.0353
     37 C         -63.1270  -41.6026  -19.2002 C.3     1  UNL1        0.0569
     38 C         -62.8024  -42.7617  -20.1005 C.ar    1  UNL1       -0.0017
     39 C         -63.6918  -43.7375  -20.5408 C.ar    1  UNL1        0.0681
     40 N         -63.0935  -44.5511  -21.4404 N.ar    1  UNL1       -0.3523
     41 C         -61.8379  -44.0916  -21.5800 C.ar    1  UNL1        0.0563
     42 C         -60.8511  -44.5791  -22.4357 C.ar    1  UNL1        0.0170
     43 C         -59.6099  -43.9170  -22.4533 C.ar    1  UNL1        0.0015
     44 C         -59.3856  -42.7954  -21.6250 C.ar    1  UNL1        0.0001
     45 C         -60.4002  -42.3252  -20.7720 C.ar    1  UNL1        0.0012
     46 C         -61.6210  -43.0011  -20.7769 C.ar    1  UNL1        0.0131
     47 H         -63.5308  -45.3547  -21.9437 H       1  UNL1        0.1660
@<TRIPOS>BOND
     1     1     2    2
     2     2     3   am
     3     3    26    1
     4    26    37    1
     5    37    38    1
     6    38    39   ar
     7    39    40   ar
     8    40    41   ar
     9    41    42   ar
    10    42    43   ar
    11    43    44   ar
    12    44    45   ar
    13    45    46   ar
    14    26    27    1
    15    27    28    2
    16    27    29   am
    17    29    31    1
    18    31    32   ar
    19    32    33   ar
    20    33    34   ar
    21    34    35   ar
    22    35    36   ar
    23     2     5    1
    24     5     6   ar
    25     6     7   ar
    26     7     8   ar
    27     8    12    1
    28    12    13    1
    29    13    14    1
    30    14    15    1
    31    15    18    1
    32    18    19   ar
    33    19    20   ar
    34    20    21   ar
    35    21    22    1
    36    21    23   ar
    37    23    24   ar
    38    24    25    1
    39    15    16    1
    40    16    17    1
    41     8     9   ar
    42     9    10   ar
    43    10    11    1
    44    46    38   ar
    45    36    31   ar
    46    10     5   ar
    47    46    41   ar
    48    17    12    1
    49    24    18   ar
    50     3     4    1
    51    40    47    1
    52    29    30    1
@<TRIPOS>MOLECULE
*****
 47 52 0 0 0
SMALL
GASTEIGER

@<TRIPOS>ATOM
      1 O         -61.2260  -44.7368  -27.8651 O.2     1  UNL1       -0.2701
      2 C         -62.2267  -44.0162  -27.6016 C.2     1  UNL1        0.2483
      3 N         -63.1668  -43.6752  -28.6382 N.am    1  UNL1       -0.2945
      4 H         -63.8448  -42.9014  -28.4551 H       1  UNL1        0.1501
      5 C         -62.3968  -43.4968  -26.2260 C.ar    1  UNL1        0.0808
      6 C         -61.8580  -44.2116  -25.1432 C.ar    1  UNL1        0.0080
      7 C         -62.0031  -43.7388  -23.8365 C.ar    1  UNL1        0.0148
      8 C         -62.7045  -42.5504  -23.5847 C.ar    1  UNL1        0.0502
      9 C         -63.2540  -41.8398  -24.6635 C.ar    1  UNL1        0.0443
     10 C         -63.1089  -42.3083  -25.9730 C.ar    1  UNL1        0.1457
     11 F         -63.7030  -41.6206  -26.9810 F       1  UNL1       -0.2040
     12 N         -62.8429  -42.0563  -22.2392 N.pl3   1  UNL1       -0.3040
     13 C         -64.1228  -42.1703  -21.5276 C.3     1  UNL1        0.1122
     14 C         -64.5643  -40.7880  -21.0411 C.3     1  UNL1        0.1123
     15 N         -63.4446  -40.0603  -20.4281 N.pl3   1  UNL1       -0.3034
     16 C         -62.1276  -40.6900  -20.2858 C.3     1  UNL1        0.1123
     17 C         -61.7153  -41.3519  -21.6074 C.3     1  UNL1        0.1122
     18 C         -63.6972  -38.7988  -19.7974 C.ar    1  UNL1        0.0587
     19 C         -63.2209  -37.6200  -20.3881 C.ar    1  UNL1        0.0162
     20 C         -63.4579  -36.3832  -19.7820 C.ar    1  UNL1        0.0127
     21 C         -64.1766  -36.3164  -18.5842 C.ar    1  UNL1        0.0586
     22 CL        -64.4748  -34.7634  -17.8254 Cl      1  UNL1       -0.0822
     23 C         -64.6621  -37.4885  -17.9944 C.ar    1  UNL1        0.0240
     24 C         -64.4271  -38.7303  -18.5968 C.ar    1  UNL1        0.0718
     25 CL        -65.0843  -40.1812  -17.8518 Cl      1  UNL1       -0.0809
     26 C         -63.2345  -44.3220  -29.9569 C.3     1  UNL1        0.1535
     27 C         -64.3593  -45.3317  -30.0241 C.2     1  UNL1        0.2443
     28 O         -65.4617  -45.0949  -29.4601 O.2     1  UNL1       -0.2730
     29 N         -64.1533  -46.5756  -30.7143 N.am    1  UNL1       -0.2825
     30 H         -63.1665  -46.8832  -30.8701 H       1  UNL1        0.1549
     31 C         -65.2040  -47.4347  -31.1937 C.ar    1  UNL1        0.0535
     32 C         -65.7978  -47.2519  -32.4557 C.ar    1  UNL1        0.0353
     33 C         -66.7791  -48.1451  -32.8924 C.ar    1  UNL1        0.1002
     34 N         -67.1506  -49.1896  -32.1067 N.ar    1  UNL1       -0.2422
     35 C         -66.5849  -49.4000  -30.8892 C.ar    1  UNL1        0.1002
     36 C         -65.5978  -48.5326  -30.4159 C.ar    1  UNL1        0.0353
     37 C         -63.3150  -43.2762  -31.0891 C.3     1  UNL1        0.0569
     38 C         -62.2522  -43.4981  -32.1286 C.ar    1  UNL1       -0.0017
     39 C         -62.3289  -43.1479  -33.4734 C.ar    1  UNL1        0.0681
     40 N         -61.1459  -43.3738  -34.0888 N.ar    1  UNL1       -0.3523
     41 C         -60.3201  -43.8534  -33.1428 C.ar    1  UNL1        0.0563
     42 C         -58.9753  -44.1910  -33.2885 C.ar    1  UNL1        0.0170
     43 C         -58.2817  -44.6369  -32.1488 C.ar    1  UNL1        0.0015
     44 C         -58.9400  -44.7341  -30.9031 C.ar    1  UNL1        0.0001
     45 C         -60.2977  -44.3858  -30.7856 C.ar    1  UNL1        0.0012
     46 C         -60.9592  -43.9458  -31.9328 C.ar    1  UNL1        0.0131
     47 H         -60.9165  -43.1852  -35.0899 H       1  UNL1        0.1660
@<TRIPOS>BOND
     1     1     2    2
     2     2     3   am
     3     3    26    1
     4    26    37    1
     5    37    38    1
     6    38    39   ar
     7    39    40   ar
     8    40    41   ar
     9    41    42   ar
    10    42    43   ar
    11    43    44   ar
    12    44    45   ar
    13    45    46   ar
    14    26    27    1
    15    27    28    2
    16    27    29   am
    17    29    31    1
    18    31    32   ar
    19    32    33   ar
    20    33    34   ar
    21    34    35   ar
    22    35    36   ar
    23     2     5    1
    24     5     6   ar
    25     6     7   ar
    26     7     8   ar
    27     8    12    1
    28    12    13    1
    29    13    14    1
    30    14    15    1
    31    15    18    1
    32    18    19   ar
    33    19    20   ar
    34    20    21   ar
    35    21    22    1
    36    21    23   ar
    37    23    24   ar
    38    24    25    1
    39    15    16    1
    40    16    17    1
    41     8     9   ar
    42     9    10   ar
    43    10    11    1
    44    46    38   ar
    45    36    31   ar
    46    10     5   ar
    47    46    41   ar
    48    17    12    1
    49    24    18   ar
    50     3     4    1
    51    40    47    1
    52    29    30    1
@<TRIPOS>MOLECULE
*****
 47 52 0 0 0
SMALL
GASTEIGER

@<TRIPOS>ATOM
      1 O         -60.4156  -42.0832  -21.6030 O.2     1  UNL1       -0.2701
      2 C         -61.4882  -41.7330  -22.1659 C.2     1  UNL1        0.2483
      3 N         -62.5203  -41.0712  -21.4101 N.am    1  UNL1       -0.2945
      4 H         -63.4741  -41.0025  -21.8313 H       1  UNL1        0.1501
      5 C         -61.6840  -42.0471  -23.5991 C.ar    1  UNL1        0.0808
      6 C         -60.5790  -42.4107  -24.3867 C.ar    1  UNL1        0.0080
      7 C         -60.7404  -42.7148  -25.7408 C.ar    1  UNL1        0.0148
      8 C         -62.0076  -42.6451  -26.3385 C.ar    1  UNL1        0.0502
      9 C         -63.1120  -42.2708  -25.5569 C.ar    1  UNL1        0.0443
     10 C         -62.9550  -41.9680  -24.2007 C.ar    1  UNL1        0.1457
     11 F         -64.0389  -41.5569  -23.4950 F       1  UNL1       -0.2040
     12 N         -62.1760  -42.9711  -27.7310 N.pl3   1  UNL1       -0.3040
     13 C         -63.0987  -42.1998  -28.5744 C.3     1  UNL1        0.1122
     14 C         -64.1028  -43.1467  -29.2356 C.3     1  UNL1        0.1123
     15 N         -63.4310  -44.3357  -29.7777 N.pl3   1  UNL1       -0.3034
     16 C         -61.9725  -44.4729  -29.7052 C.3     1  UNL1        0.1123
     17 C         -61.4829  -44.1439  -28.2886 C.3     1  UNL1        0.1122
     18 C         -64.1921  -45.2739  -30.5481 C.ar    1  UNL1        0.0587
     19 C         -64.8060  -44.8583  -31.7381 C.ar    1  UNL1        0.0162
     20 C         -65.5534  -45.7625  -32.4976 C.ar    1  UNL1        0.0127
     21 C         -65.6882  -47.0887  -32.0752 C.ar    1  UNL1        0.0586
     22 CL        -66.6253  -48.2229  -33.0303 Cl      1  UNL1       -0.0822
     23 C         -65.0707  -47.5117  -30.8931 C.ar    1  UNL1        0.0240
     24 C         -64.3212  -46.6102  -30.1279 C.ar    1  UNL1        0.0718
     25 CL        -63.5247  -47.1820  -28.6682 Cl      1  UNL1       -0.0809
     26 C         -62.3421  -40.4975  -20.0681 C.3     1  UNL1        0.1535
     27 C         -62.6046  -39.0074  -20.0608 C.2     1  UNL1        0.2443
     28 O         -62.1622  -38.2787  -20.9895 O.2     1  UNL1       -0.2730
     29 N         -63.3406  -38.4239  -18.9728 N.am    1  UNL1       -0.2825
     30 H         -63.3967  -38.9676  -18.0817 H       1  UNL1        0.1549
     31 C         -63.9936  -37.1418  -19.0147 C.ar    1  UNL1        0.0535
     32 C         -65.2978  -36.9864  -19.5179 C.ar    1  UNL1        0.0353
     33 C         -65.9030  -35.7277  -19.4893 C.ar    1  UNL1        0.1002
     34 N         -65.2392  -34.6621  -18.9695 N.ar    1  UNL1       -0.2422
     35 C         -63.9841  -34.7843  -18.4633 C.ar    1  UNL1        0.1002
     36 C         -63.3437  -36.0255  -18.4695 C.ar    1  UNL1        0.0353
     37 C         -63.1916  -41.2491  -19.0214 C.3     1  UNL1        0.0569
     38 C         -64.3711  -41.9360  -19.6509 C.ar    1  UNL1       -0.0017
     39 C         -64.7647  -43.2546  -19.4425 C.ar    1  UNL1        0.0681
     40 N         -65.9405  -43.5007  -20.0639 N.ar    1  UNL1       -0.3523
     41 C         -66.2980  -42.3470  -20.6539 C.ar    1  UNL1        0.0563
     42 C         -67.4630  -42.0943  -21.3768 C.ar    1  UNL1        0.0170
     43 C         -67.6586  -40.7935  -21.8756 C.ar    1  UNL1        0.0015
     44 C         -66.6966  -39.7861  -21.6434 C.ar    1  UNL1        0.0001
     45 C         -65.5306  -40.0697  -20.9097 C.ar    1  UNL1        0.0012
     46 C         -65.3645  -41.3682  -20.4264 C.ar    1  UNL1        0.0131
     47 H         -66.4734  -44.3987  -20.0595 H       1  UNL1        0.1660
@<TRIPOS>BOND
     1     1     2    2
     2     2     3   am
     3     3    26    1
     4    26    37    1
     5    37    38    1
     6    38    39   ar
     7    39    40   ar
     8    40    41   ar
     9    41    42   ar
    10    42    43   ar
    11    43    44   ar
    12    44    45   ar
    13    45    46   ar
    14    26    27    1
    15    27    28    2
    16    27    29   am
    17    29    31    1
    18    31    32   ar
    19    32    33   ar
    20    33    34   ar
    21    34    35   ar
    22    35    36   ar
    23     2     5    1
    24     5     6   ar
    25     6     7   ar
    26     7     8   ar
    27     8    12    1
    28    12    13    1
    29    13    14    1
    30    14    15    1
    31    15    18    1
    32    18    19   ar
    33    19    20   ar
    34    20    21   ar
    35    21    22    1
    36    21    23   ar
    37    23    24   ar
    38    24    25    1
    39    15    16    1
    40    16    17    1
    41     8     9   ar
    42     9    10   ar
    43    10    11    1
    44    46    38   ar
    45    36    31   ar
    46    10     5   ar
    47    46    41   ar
    48    17    12    1
    49    24    18   ar
    50     3     4    1
    51    40    47    1
    52    29    30    1
@<TRIPOS>MOLECULE
*****
 47 52 0 0 0
SMALL
GASTEIGER

@<TRIPOS>ATOM
      1 O         -59.9953  -45.9353  -24.5585 O.2     1  UNL1       -0.2701
      2 C         -60.8907  -45.0873  -24.8217 C.2     1  UNL1        0.2483
      3 N         -61.3405  -44.9063  -26.1780 N.am    1  UNL1       -0.2945
      4 H         -61.9014  -44.0537  -26.4028 H       1  UNL1        0.1501
      5 C         -61.4403  -44.2580  -23.7258 C.ar    1  UNL1        0.0808
      6 C         -62.1736  -44.8686  -22.6947 C.ar    1  UNL1        0.0080
      7 C         -62.6988  -44.1063  -21.6482 C.ar    1  UNL1        0.0148
      8 C         -62.5158  -42.7158  -21.6206 C.ar    1  UNL1        0.0502
      9 C         -61.7934  -42.1011  -22.6555 C.ar    1  UNL1        0.0443
     10 C         -61.2639  -42.8608  -23.7034 C.ar    1  UNL1        0.1457
     11 F         -60.6203  -42.2206  -24.7122 F       1  UNL1       -0.2040
     12 N         -63.0460  -41.9318  -20.5353 N.pl3   1  UNL1       -0.3040
     13 C         -64.4964  -41.7756  -20.3631 C.3     1  UNL1        0.1122
     14 C         -64.8509  -40.2873  -20.3227 C.3     1  UNL1        0.1123
     15 N         -63.9237  -39.5458  -19.4570 N.pl3   1  UNL1       -0.3034
     16 C         -62.8679  -40.2434  -18.7155 C.3     1  UNL1        0.1123
     17 C         -62.1221  -41.2095  -19.6456 C.3     1  UNL1        0.1122
     18 C         -64.1764  -38.1604  -19.1928 C.ar    1  UNL1        0.0587
     19 C         -65.1413  -37.8002  -18.2416 C.ar    1  UNL1        0.0162
     20 C         -65.3995  -36.4527  -17.9762 C.ar    1  UNL1        0.0127
     21 C         -64.6917  -35.4566  -18.6564 C.ar    1  UNL1        0.0586
     22 CL        -65.0157  -33.7656  -18.3212 Cl      1  UNL1       -0.0822
     23 C         -63.7215  -35.8098  -19.6005 C.ar    1  UNL1        0.0240
     24 C         -63.4590  -37.1582  -19.8708 C.ar    1  UNL1        0.0718
     25 CL        -62.2060  -37.5700  -21.0337 Cl      1  UNL1       -0.0809
     26 C         -61.0512  -45.8252  -27.2888 C.3     1  UNL1        0.1535
     27 C         -61.4866  -47.2386  -26.9692 C.2     1  UNL1        0.2443
     28 O         -61.0562  -48.2069  -27.6522 O.2     1  UNL1       -0.2730
     29 N         -62.4157  -47.4674  -25.8966 N.am    1  UNL1       -0.2825
     30 H         -62.9988  -46.6586  -25.5826 H       1  UNL1        0.1549
     31 C         -62.6123  -48.7296  -25.2331 C.ar    1  UNL1        0.0535
     32 C         -61.6221  -49.3031  -24.4152 C.ar    1  UNL1        0.0353
     33 C         -61.8840  -50.5059  -23.7550 C.ar    1  UNL1        0.1002
     34 N         -63.0917  -51.1130  -23.8945 N.ar    1  UNL1       -0.2422
     35 C         -64.0726  -50.5757  -24.6663 C.ar    1  UNL1        0.1002
     36 C         -63.8533  -49.3728  -25.3413 C.ar    1  UNL1        0.0353
     37 C         -61.6544  -45.3094  -28.6125 C.3     1  UNL1        0.0569
     38 C         -60.5973  -45.0929  -29.6589 C.ar    1  UNL1       -0.0017
     39 C         -59.3046  -45.6087  -29.6436 C.ar    1  UNL1        0.0681
     40 N         -58.6682  -45.3234  -30.8024 N.ar    1  UNL1       -0.3523
     41 C         -59.5504  -44.6415  -31.5532 C.ar    1  UNL1        0.0563
     42 C         -59.3669  -44.1710  -32.8527 C.ar    1  UNL1        0.0170
     43 C         -60.4453  -43.5143  -33.4730 C.ar    1  UNL1        0.0015
     44 C         -61.6690  -43.3447  -32.7886 C.ar    1  UNL1        0.0001
     45 C         -61.8258  -43.8306  -31.4781 C.ar    1  UNL1        0.0012
     46 C         -60.7394  -44.4788  -30.8890 C.ar    1  UNL1        0.0131
     47 H         -57.6977  -45.6032  -31.0674 H       1  UNL1        0.1660
@<TRIPOS>BOND
     1     1     2    2
     2     2     3   am
     3     3    26    1
     4    26    37    1
     5    37    38    1
     6    38    39   ar
     7    39    40   ar
     8    40    41   ar
     9    41    42   ar
    10    42    43   ar
    11    43    44   ar
    12    44    45   ar
    13    45    46   ar
    14    26    27    1
    15    27    28    2
    16    27    29   am
    17    29    31    1
    18    31    32   ar
    19    32    33   ar
    20    33    34   ar
    21    34    35   ar
    22    35    36   ar
    23     2     5    1
    24     5     6   ar
    25     6     7   ar
    26     7     8   ar
    27     8    12    1
    28    12    13    1
    29    13    14    1
    30    14    15    1
    31    15    18    1
    32    18    19   ar
    33    19    20   ar
    34    20    21   ar
    35    21    22    1
    36    21    23   ar
    37    23    24   ar
    38    24    25    1
    39    15    16    1
    40    16    17    1
    41     8     9   ar
    42     9    10   ar
    43    10    11    1
    44    46    38   ar
    45    36    31   ar
    46    10     5   ar
    47    46    41   ar
    48    17    12    1
    49    24    18   ar
    50     3     4    1
    51    40    47    1
    52    29    30    1
@<TRIPOS>MOLECULE
*****
 47 52 0 0 0
SMALL
GASTEIGER

@<TRIPOS>ATOM
      1 O         -60.0735  -45.9508  -25.3736 O.2     1  UNL1       -0.2701
      2 C         -61.2208  -45.4276  -25.3793 C.2     1  UNL1        0.2483
      3 N         -62.0617  -45.5386  -26.5433 N.am    1  UNL1       -0.2945
      4 H         -62.8949  -44.9117  -26.6124 H       1  UNL1        0.1501
      5 C         -61.6705  -44.6678  -24.1913 C.ar    1  UNL1        0.0808
      6 C         -61.7513  -43.2666  -24.2538 C.ar    1  UNL1        0.0080
      7 C         -62.1765  -42.5290  -23.1460 C.ar    1  UNL1        0.0148
      8 C         -62.5134  -43.1764  -21.9481 C.ar    1  UNL1        0.0502
      9 C         -62.4226  -44.5756  -21.8787 C.ar    1  UNL1        0.0443
     10 C         -61.9999  -45.3177  -22.9859 C.ar    1  UNL1        0.1457
     11 F         -61.8729  -46.6630  -22.8590 F       1  UNL1       -0.2040
     12 N         -62.9640  -42.4172  -20.8104 N.pl3   1  UNL1       -0.3040
     13 C         -64.3974  -42.2860  -20.5178 C.3     1  UNL1        0.1122
     14 C         -64.7686  -40.8042  -20.4244 C.3     1  UNL1        0.1123
     15 N         -63.7843  -40.0615  -19.6254 N.pl3   1  UNL1       -0.3034
     16 C         -62.6614  -40.7537  -18.9841 C.3     1  UNL1        0.1123
     17 C         -61.9807  -41.6941  -19.9876 C.3     1  UNL1        0.1122
     18 C         -64.0342  -38.6844  -19.3189 C.ar    1  UNL1        0.0587
     19 C         -64.9637  -38.3527  -18.3232 C.ar    1  UNL1        0.0162
     20 C         -65.2189  -37.0134  -18.0163 C.ar    1  UNL1        0.0127
     21 C         -64.5432  -35.9972  -18.6993 C.ar    1  UNL1        0.0586
     22 CL        -64.8632  -34.3166  -18.3119 Cl      1  UNL1       -0.0822
     23 C         -63.6080  -36.3219  -19.6878 C.ar    1  UNL1        0.0240
     24 C         -63.3487  -37.6619  -19.9999 C.ar    1  UNL1        0.0718
     25 CL        -62.1390  -38.0384  -21.2193 Cl      1  UNL1       -0.0809
     26 C         -61.8260  -46.4591  -27.6653 C.3     1  UNL1        0.1535
     27 C         -60.9008  -45.8525  -28.6975 C.2     1  UNL1        0.2443
     28 O         -59.6989  -46.2257  -28.7726 O.2     1  UNL1       -0.2730
     29 N         -61.3954  -44.8280  -29.5760 N.am    1  UNL1       -0.2825
     30 H         -62.2562  -44.3135  -29.2808 H       1  UNL1        0.1549
     31 C         -60.7862  -44.4491  -30.8239 C.ar    1  UNL1        0.0535
     32 C         -59.4582  -44.7899  -31.1380 C.ar    1  UNL1        0.0353
     33 C         -58.9323  -44.4400  -32.3839 C.ar    1  UNL1        0.1002
     34 N         -59.7023  -43.7832  -33.2905 N.ar    1  UNL1       -0.2422
     35 C         -60.9927  -43.4532  -33.0211 C.ar    1  UNL1        0.1002
     36 C         -61.5586  -43.7870  -31.7886 C.ar    1  UNL1        0.0353
     37 C         -61.3301  -47.8330  -27.1667 C.3     1  UNL1        0.0569
     38 C         -62.3180  -48.4767  -26.2345 C.ar    1  UNL1       -0.0017
     39 C         -63.6876  -48.6056  -26.4462 C.ar    1  UNL1        0.0681
     40 N         -64.2492  -49.3506  -25.4670 N.ar    1  UNL1       -0.3523
     41 C         -63.2453  -49.7020  -24.6449 C.ar    1  UNL1        0.0563
     42 C         -63.3254  -50.5123  -23.5133 C.ar    1  UNL1        0.0170
     43 C         -62.1350  -50.7893  -22.8168 C.ar    1  UNL1        0.0015
     44 C         -60.9052  -50.2565  -23.2620 C.ar    1  UNL1        0.0001
     45 C         -60.8543  -49.4425  -24.4079 C.ar    1  UNL1        0.0012
     46 C         -62.0508  -49.1861  -25.0787 C.ar    1  UNL1        0.0131
     47 H         -65.2548  -49.6199  -25.3857 H       1  UNL1        0.1660
@<TRIPOS>BOND
     1     1     2    2
     2     2     3   am
     3     3    26    1
     4    26    37    1
     5    37    38    1
     6    38    39   ar
     7    39    40   ar
     8    40    41   ar
     9    41    42   ar
    10    42    43   ar
    11    43    44   ar
    12    44    45   ar
    13    45    46   ar
    14    26    27    1
    15    27    28    2
    16    27    29   am
    17    29    31    1
    18    31    32   ar
    19    32    33   ar
    20    33    34   ar
    21    34    35   ar
    22    35    36   ar
    23     2     5    1
    24     5     6   ar
    25     6     7   ar
    26     7     8   ar
    27     8    12    1
    28    12    13    1
    29    13    14    1
    30    14    15    1
    31    15    18    1
    32    18    19   ar
    33    19    20   ar
    34    20    21   ar
    35    21    22    1
    36    21    23   ar
    37    23    24   ar
    38    24    25    1
    39    15    16    1
    40    16    17    1
    41     8     9   ar
    42     9    10   ar
    43    10    11    1
    44    46    38   ar
    45    36    31   ar
    46    10     5   ar
    47    46    41   ar
    48    17    12    1
    49    24    18   ar
    50     3     4    1
    51    40    47    1
    52    29    30    1
@<TRIPOS>MOLECULE
*****
 47 52 0 0 0
SMALL
GASTEIGER

@<TRIPOS>ATOM
      1 O         -60.0903  -45.7476  -25.4830 O.2     1  UNL1       -0.2701
      2 C         -60.7168  -44.6618  -25.6201 C.2     1  UNL1        0.2483
      3 N         -60.8808  -44.0803  -26.9276 N.am    1  UNL1       -0.2945
      4 H         -61.1914  -43.0846  -26.9900 H       1  UNL1        0.1501
      5 C         -61.2435  -43.9787  -24.4173 C.ar    1  UNL1        0.0808
      6 C         -60.8670  -42.6513  -24.1528 C.ar    1  UNL1        0.0080
      7 C         -61.3543  -41.9853  -23.0254 C.ar    1  UNL1        0.0148
      8 C         -62.2148  -42.6388  -22.1308 C.ar    1  UNL1        0.0502
      9 C         -62.5839  -43.9689  -22.3862 C.ar    1  UNL1        0.0443
     10 C         -62.1002  -44.6383  -23.5147 C.ar    1  UNL1        0.1457
     11 F         -62.4372  -45.9406  -23.6944 F       1  UNL1       -0.2040
     12 N         -62.7274  -41.9482  -20.9758 N.pl3   1  UNL1       -0.3040
     13 C         -64.1728  -41.8847  -20.7216 C.3     1  UNL1        0.1122
     14 C         -64.6044  -40.4236  -20.5758 C.3     1  UNL1        0.1123
     15 N         -63.6734  -39.6801  -19.7161 N.pl3   1  UNL1       -0.3034
     16 C         -62.5430  -40.3567  -19.0712 C.3     1  UNL1        0.1123
     17 C         -61.7974  -41.2253  -20.0931 C.3     1  UNL1        0.1122
     18 C         -63.9859  -38.3283  -19.3584 C.ar    1  UNL1        0.0587
     19 C         -64.9597  -38.0764  -18.3818 C.ar    1  UNL1        0.0162
     20 C         -65.2761  -36.7626  -18.0255 C.ar    1  UNL1        0.0127
     21 C         -64.6178  -35.6924  -18.6396 C.ar    1  UNL1        0.0586
     22 CL        -65.0147  -34.0439  -18.1903 Cl      1  UNL1       -0.0822
     23 C         -63.6390  -35.9375  -19.6086 C.ar    1  UNL1        0.0240
     24 C         -63.3183  -37.2516  -19.9699 C.ar    1  UNL1        0.0718
     25 CL        -62.0557  -37.5278  -21.1622 Cl      1  UNL1       -0.0809
     26 C         -60.6215  -44.7777  -28.1958 C.3     1  UNL1        0.1535
     27 C         -61.1249  -46.2041  -28.1592 C.2     1  UNL1        0.2443
     28 O         -60.3109  -47.1650  -28.1003 O.2     1  UNL1       -0.2730
     29 N         -62.5386  -46.4573  -28.2182 N.am    1  UNL1       -0.2825
     30 H         -63.1493  -45.6984  -28.5976 H       1  UNL1        0.1549
     31 C         -63.1733  -47.6821  -27.8070 C.ar    1  UNL1        0.0535
     32 C         -63.6517  -48.6218  -28.7379 C.ar    1  UNL1        0.0353
     33 C         -64.2147  -49.8171  -28.2844 C.ar    1  UNL1        0.1002
     34 N         -64.2906  -50.0745  -26.9524 N.ar    1  UNL1       -0.2422
     35 C         -63.8241  -49.1924  -26.0300 C.ar    1  UNL1        0.1002
     36 C         -63.2509  -47.9867  -26.4407 C.ar    1  UNL1        0.0353
     37 C         -61.1854  -43.9860  -29.3947 C.3     1  UNL1        0.0569
     38 C         -60.2917  -44.0878  -30.5989 C.ar    1  UNL1       -0.0017
     39 C         -59.0042  -44.6158  -30.6275 C.ar    1  UNL1        0.0681
     40 N         -58.5437  -44.6701  -31.8980 N.ar    1  UNL1       -0.3523
     41 C         -59.5323  -44.1910  -32.6727 C.ar    1  UNL1        0.0563
     42 C         -59.5423  -44.0922  -34.0633 C.ar    1  UNL1        0.0170
     43 C         -60.7061  -43.5970  -34.6793 C.ar    1  UNL1        0.0015
     44 C         -61.8210  -43.2162  -33.9006 C.ar    1  UNL1        0.0001
     45 C         -61.7828  -43.3275  -32.4990 C.ar    1  UNL1        0.0012
     46 C         -60.6157  -43.8232  -31.9163 C.ar    1  UNL1        0.0131
     47 H         -57.6179  -45.0374  -32.2118 H       1  UNL1        0.1660
@<TRIPOS>BOND
     1     1     2    2
     2     2     3   am
     3     3    26    1
     4    26    37    1
     5    37    38    1
     6    38    39   ar
     7    39    40   ar
     8    40    41   ar
     9    41    42   ar
    10    42    43   ar
    11    43    44   ar
    12    44    45   ar
    13    45    46   ar
    14    26    27    1
    15    27    28    2
    16    27    29   am
    17    29    31    1
    18    31    32   ar
    19    32    33   ar
    20    33    34   ar
    21    34    35   ar
    22    35    36   ar
    23     2     5    1
    24     5     6   ar
    25     6     7   ar
    26     7     8   ar
    27     8    12    1
    28    12    13    1
    29    13    14    1
    30    14    15    1
    31    15    18    1
    32    18    19   ar
    33    19    20   ar
    34    20    21   ar
    35    21    22    1
    36    21    23   ar
    37    23    24   ar
    38    24    25    1
    39    15    16    1
    40    16    17    1
    41     8     9   ar
    42     9    10   ar
    43    10    11    1
    44    46    38   ar
    45    36    31   ar
    46    10     5   ar
    47    46    41   ar
    48    17    12    1
    49    24    18   ar
    50     3     4    1
    51    40    47    1
    52    29    30    1
@<TRIPOS>MOLECULE
*****
 47 52 0 0 0
SMALL
GASTEIGER

@<TRIPOS>ATOM
      1 O         -60.1160  -42.2125  -20.8472 O.2     1  UNL1       -0.2701
      2 C         -61.2310  -42.3245  -21.4254 C.2     1  UNL1        0.2483
      3 N         -62.4338  -41.8757  -20.7724 N.am    1  UNL1       -0.2945
      4 H         -63.3525  -42.1859  -21.1619 H       1  UNL1        0.1501
      5 C         -61.2875  -42.9577  -22.7621 C.ar    1  UNL1        0.0808
      6 C         -60.3700  -43.9700  -23.0894 C.ar    1  UNL1        0.0080
      7 C         -60.4067  -44.5843  -24.3438 C.ar    1  UNL1        0.0148
      8 C         -61.3508  -44.1869  -25.3021 C.ar    1  UNL1        0.0502
      9 C         -62.2616  -43.1677  -24.9823 C.ar    1  UNL1        0.0443
     10 C         -62.2298  -42.5520  -23.7271 C.ar    1  UNL1        0.1457
     11 F         -63.0914  -41.5333  -23.4787 F       1  UNL1       -0.2040
     12 N         -61.3971  -44.8289  -26.5903 N.pl3   1  UNL1       -0.3040
     13 C         -60.2613  -45.6272  -27.0704 C.3     1  UNL1        0.1122
     14 C         -59.8054  -45.1027  -28.4339 C.3     1  UNL1        0.1123
     15 N         -60.9537  -44.8534  -29.3159 N.pl3   1  UNL1       -0.3034
     16 C         -62.3187  -45.1639  -28.8778 C.3     1  UNL1        0.1123
     17 C         -62.5580  -44.6076  -27.4679 C.3     1  UNL1        0.1122
     18 C         -60.7158  -44.4823  -30.6792 C.ar    1  UNL1        0.0587
     19 C         -59.5241  -44.8719  -31.3065 C.ar    1  UNL1        0.0162
     20 C         -59.2782  -44.5143  -32.6350 C.ar    1  UNL1        0.0127
     21 C         -60.2239  -43.7690  -33.3463 C.ar    1  UNL1        0.0586
     22 CL        -59.9147  -43.3221  -35.0141 Cl      1  UNL1       -0.0822
     23 C         -61.4188  -43.3846  -32.7285 C.ar    1  UNL1        0.0240
     24 C         -61.6703  -43.7396  -31.3978 C.ar    1  UNL1        0.0718
     25 CL        -63.1985  -43.2755  -30.6620 Cl      1  UNL1       -0.0809
     26 C         -62.4717  -41.0239  -19.5746 C.3     1  UNL1        0.1535
     27 C         -62.4806  -39.5548  -19.9368 C.2     1  UNL1        0.2443
     28 O         -61.9664  -39.1630  -21.0191 O.2     1  UNL1       -0.2730
     29 N         -63.0571  -38.6048  -19.0251 N.am    1  UNL1       -0.2825
     30 H         -63.1617  -38.8964  -18.0267 H       1  UNL1        0.1549
     31 C         -63.4876  -37.2784  -19.3819 C.ar    1  UNL1        0.0535
     32 C         -64.7679  -36.7975  -19.0533 C.ar    1  UNL1        0.0353
     33 C         -65.1166  -35.4848  -19.3797 C.ar    1  UNL1        0.1002
     34 N         -64.2208  -34.6745  -20.0021 N.ar    1  UNL1       -0.2422
     35 C         -62.9721  -35.1064  -20.3193 C.ar    1  UNL1        0.1002
     36 C         -62.5816  -36.4108  -20.0080 C.ar    1  UNL1        0.0353
     37 C         -63.6473  -41.4089  -18.6517 C.3     1  UNL1        0.0569
     38 C         -64.8195  -41.9334  -19.4328 C.ar    1  UNL1       -0.0017
     39 C         -65.3742  -43.2059  -19.3317 C.ar    1  UNL1        0.0681
     40 N         -66.4958  -43.2936  -20.0825 N.ar    1  UNL1       -0.3523
     41 C         -66.6602  -42.0853  -20.6482 C.ar    1  UNL1        0.0563
     42 C         -67.7060  -41.6751  -21.4738 C.ar    1  UNL1        0.0170
     43 C         -67.7042  -40.3426  -21.9249 C.ar    1  UNL1        0.0015
     44 C         -66.6691  -39.4601  -21.5450 C.ar    1  UNL1        0.0001
     45 C         -65.6268  -39.9015  -20.7101 C.ar    1  UNL1        0.0012
     46 C         -65.6559  -41.2279  -20.2773 C.ar    1  UNL1        0.0131
     47 H         -67.1205  -44.1249  -20.1776 H       1  UNL1        0.1660
@<TRIPOS>BOND
     1     1     2    2
     2     2     3   am
     3     3    26    1
     4    26    37    1
     5    37    38    1
     6    38    39   ar
     7    39    40   ar
     8    40    41   ar
     9    41    42   ar
    10    42    43   ar
    11    43    44   ar
    12    44    45   ar
    13    45    46   ar
    14    26    27    1
    15    27    28    2
    16    27    29   am
    17    29    31    1
    18    31    32   ar
    19    32    33   ar
    20    33    34   ar
    21    34    35   ar
    22    35    36   ar
    23     2     5    1
    24     5     6   ar
    25     6     7   ar
    26     7     8   ar
    27     8    12    1
    28    12    13    1
    29    13    14    1
    30    14    15    1
    31    15    18    1
    32    18    19   ar
    33    19    20   ar
    34    20    21   ar
    35    21    22    1
    36    21    23   ar
    37    23    24   ar
    38    24    25    1
    39    15    16    1
    40    16    17    1
    41     8     9   ar
    42     9    10   ar
    43    10    11    1
    44    46    38   ar
    45    36    31   ar
    46    10     5   ar
    47    46    41   ar
    48    17    12    1
    49    24    18   ar
    50     3     4    1
    51    40    47    1
    52    29    30    1
@<TRIPOS>MOLECULE
*****
 47 52 0 0 0
SMALL
GASTEIGER

@<TRIPOS>ATOM
      1 O         -65.0006  -40.7677  -21.5621 O.2     1  UNL1       -0.2701
      2 C         -63.9744  -40.4850  -22.2382 C.2     1  UNL1        0.2483
      3 N         -62.8852  -39.7622  -21.6335 N.am    1  UNL1       -0.2945
      4 H         -62.1626  -39.3421  -22.2607 H       1  UNL1        0.1501
      5 C         -63.9252  -40.8712  -23.6662 C.ar    1  UNL1        0.0808
      6 C         -62.9846  -41.8224  -24.0955 C.ar    1  UNL1        0.0080
      7 C         -62.9222  -42.2049  -25.4378 C.ar    1  UNL1        0.0148
      8 C         -63.7877  -41.6314  -26.3810 C.ar    1  UNL1        0.0502
      9 C         -64.7210  -40.6721  -25.9574 C.ar    1  UNL1        0.0443
     10 C         -64.7884  -40.2884  -24.6143 C.ar    1  UNL1        0.1457
     11 F         -65.6670  -39.3176  -24.2571 F       1  UNL1       -0.2040
     12 N         -63.7321  -42.0350  -27.7622 N.pl3   1  UNL1       -0.3040
     13 C         -64.0791  -43.4069  -28.1560 C.3     1  UNL1        0.1122
     14 C         -62.9197  -44.0241  -28.9415 C.3     1  UNL1        0.1123
     15 N         -62.3970  -43.0824  -29.9409 N.pl3   1  UNL1       -0.3034
     16 C         -63.0187  -41.7677  -30.1316 C.3     1  UNL1        0.1123
     17 C         -63.2371  -41.0871  -28.7737 C.3     1  UNL1        0.1122
     18 C         -61.3937  -43.5303  -30.8605 C.ar    1  UNL1        0.0587
     19 C         -60.2364  -44.1550  -30.3748 C.ar    1  UNL1        0.0162
     20 C         -59.2488  -44.5942  -31.2607 C.ar    1  UNL1        0.0127
     21 C         -59.4137  -44.4160  -32.6379 C.ar    1  UNL1        0.0586
     22 CL        -58.1741  -44.9692  -33.7489 Cl      1  UNL1       -0.0822
     23 C         -60.5704  -43.8012  -33.1294 C.ar    1  UNL1        0.0240
     24 C         -61.5628  -43.3588  -32.2465 C.ar    1  UNL1        0.0718
     25 CL        -63.0226  -42.6257  -32.8973 Cl      1  UNL1       -0.0809
     26 C         -62.7191  -39.5473  -20.1885 C.3     1  UNL1        0.1535
     27 C         -63.8246  -38.6821  -19.6241 C.2     1  UNL1        0.2443
     28 O         -64.6668  -39.1684  -18.8218 O.2     1  UNL1       -0.2730
     29 N         -63.9236  -37.3067  -20.0297 N.am    1  UNL1       -0.2825
     30 H         -63.4469  -37.0300  -20.9180 H       1  UNL1        0.1549
     31 C         -64.6413  -36.2863  -19.3115 C.ar    1  UNL1        0.0535
     32 C         -64.0828  -35.6221  -18.2046 C.ar    1  UNL1        0.0353
     33 C         -64.8036  -34.6048  -17.5746 C.ar    1  UNL1        0.1002
     34 N         -66.0327  -34.2526  -18.0346 N.ar    1  UNL1       -0.2422
     35 C         -66.5921  -34.8664  -19.1102 C.ar    1  UNL1        0.1002
     36 C         -65.9040  -35.8864  -19.7712 C.ar    1  UNL1        0.0353
     37 C         -62.5797  -40.8878  -19.4363 C.3     1  UNL1        0.0569
     38 C         -61.6763  -41.8433  -20.1642 C.ar    1  UNL1       -0.0017
     39 C         -60.2953  -41.7322  -20.2978 C.ar    1  UNL1        0.0681
     40 N         -59.7887  -42.8325  -20.8995 N.ar    1  UNL1       -0.3523
     41 C         -60.8354  -43.6416  -21.1375 C.ar    1  UNL1        0.0563
     42 C         -60.8060  -44.9156  -21.7030 C.ar    1  UNL1        0.0170
     43 C         -62.0232  -45.6107  -21.8222 C.ar    1  UNL1        0.0015
     44 C         -63.2287  -45.0237  -21.3786 C.ar    1  UNL1        0.0001
     45 C         -63.2281  -43.7368  -20.8111 C.ar    1  UNL1        0.0012
     46 C         -62.0057  -43.0721  -20.7046 C.ar    1  UNL1        0.0131
     47 H         -58.7836  -43.0231  -21.1088 H       1  UNL1        0.1660
@<TRIPOS>BOND
     1     1     2    2
     2     2     3   am
     3     3    26    1
     4    26    37    1
     5    37    38    1
     6    38    39   ar
     7    39    40   ar
     8    40    41   ar
     9    41    42   ar
    10    42    43   ar
    11    43    44   ar
    12    44    45   ar
    13    45    46   ar
    14    26    27    1
    15    27    28    2
    16    27    29   am
    17    29    31    1
    18    31    32   ar
    19    32    33   ar
    20    33    34   ar
    21    34    35   ar
    22    35    36   ar
    23     2     5    1
    24     5     6   ar
    25     6     7   ar
    26     7     8   ar
    27     8    12    1
    28    12    13    1
    29    13    14    1
    30    14    15    1
    31    15    18    1
    32    18    19   ar
    33    19    20   ar
    34    20    21   ar
    35    21    22    1
    36    21    23   ar
    37    23    24   ar
    38    24    25    1
    39    15    16    1
    40    16    17    1
    41     8     9   ar
    42     9    10   ar
    43    10    11    1
    44    46    38   ar
    45    36    31   ar
    46    10     5   ar
    47    46    41   ar
    48    17    12    1
    49    24    18   ar
    50     3     4    1
    51    40    47    1
    52    29    30    1
