@<TRIPOS>MOLECULE
*****
 41 45 0 0 0
SMALL
GASTEIGER

@<TRIPOS>ATOM
      1 C         -27.8806   51.2162   -7.7417 C.ar    1  UNL1        0.0848
      2 C         -28.9865   50.7566   -8.4947 C.ar    1  UNL1        0.1398
      3 C         -30.1432   50.3183   -7.9064 C.ar    1  UNL1        0.0325
      4 C         -30.2367   50.3225   -6.5241 C.ar    1  UNL1        0.0752
      5 N         -31.2613   49.9589   -5.7455 N.ar    1  UNL1       -0.3255
      6 C         -30.7900   50.1685   -4.4898 C.ar    1  UNL1        0.1984
      7 N         -29.5226   50.6590   -4.4488 N.ar    1  UNL1       -0.2140
      8 C         -29.1909   50.7436   -5.7516 C.ar    1  UNL1        0.0957
      9 C         -27.9736   51.1851   -6.3123 C.ar    1  UNL1        0.0046
     10 C         -26.8388   51.5995   -5.4141 C.3     1  UNL1        0.0329
     11 C         -31.1367   49.9172   -8.9336 C.3     1  UNL1        0.0709
     12 C         -30.3635   50.1917  -10.2674 C.3     1  UNL1        0.1375
     13 C         -31.0795   51.2485  -11.1189 C.3     1  UNL1        0.0439
     14 C         -30.1655   48.9002  -11.0720 C.3     1  UNL1        0.0439
     15 O         -29.0843   50.6974   -9.8698 O.3     1  UNL1       -0.4824
     16 H         -32.2027   49.6198   -6.0438 H       1  UNL1        0.1686
     17 N         -25.5226   50.8631   -8.5837 N.am    1  UNL1       -0.2806
     18 C         -26.6823   51.7018   -8.4529 C.2     1  UNL1        0.2522
     19 O         -26.6852   52.8682   -8.9317 O.2     1  UNL1       -0.2697
     20 H         -25.5698   49.8894   -8.2101 H       1  UNL1        0.1552
     21 C         -25.3973   50.9672  -11.4946 C.3     1  UNL1        0.0323
     22 C         -24.2160   51.3262  -10.6339 C.ar    1  UNL1       -0.0084
     23 C         -23.0030   51.6934  -11.2416 C.ar    1  UNL1        0.0008
     24 C         -21.8854   52.0433  -10.4662 C.ar    1  UNL1        0.0712
     25 C         -21.9744   51.9637   -9.0684 C.ar    1  UNL1        0.0051
     26 C         -23.1711   51.5905   -8.4551 C.ar    1  UNL1        0.0143
     27 C         -24.3054   51.2840   -9.2247 C.ar    1  UNL1        0.0465
     28 C         -20.5768   52.3932  -11.1298 C.3     1  UNL1        0.4186
     29 F         -20.0555   51.2938  -11.7898 F       1  UNL1       -0.1659
     30 F         -19.6759   52.8101  -10.1678 F       1  UNL1       -0.1659
     31 F         -20.7515   53.4088  -12.0541 F       1  UNL1       -0.1659
     32 N         -31.5637   49.9485   -3.3035 N.pl3   1  UNL1       -0.2816
     33 H         -32.5456   50.3047   -3.2871 H       1  UNL1        0.1551
     34 C         -31.0878   49.1854   -2.1843 C.ar    1  UNL1        0.0889
     35 C         -31.1043   49.7325   -0.8867 C.ar    1  UNL1        0.1543
     36 F         -31.5830   50.9836   -0.6704 F       1  UNL1       -0.2028
     37 C         -30.6583   48.9763    0.2012 C.ar    1  UNL1        0.0310
     38 C         -30.2062   47.6695    0.0091 C.ar    1  UNL1        0.0033
     39 C         -30.2054   47.1109   -1.2708 C.ar    1  UNL1        0.0128
     40 C         -30.6502   47.8591   -2.3673 C.ar    1  UNL1        0.0733
     41 CL        -30.6161   47.1254   -3.9652 Cl      1  UNL1       -0.0809
@<TRIPOS>BOND
     1    21    22    1
     2    22    23   ar
     3    23    24   ar
     4    24    28    1
     5    28    29    1
     6    28    30    1
     7    28    31    1
     8    24    25   ar
     9    25    26   ar
    10    26    27   ar
    11    27    17    1
    12    17    18   am
    13    18    19    2
    14    18     1    1
    15     1     2   ar
    16     2     3   ar
    17     3     4   ar
    18     4     5   ar
    19     5     6   ar
    20     6    32    1
    21    32    34    1
    22    34    35   ar
    23    35    36    1
    24    35    37   ar
    25    37    38   ar
    26    38    39   ar
    27    39    40   ar
    28    40    41    1
    29     6     7   ar
    30     7     8   ar
    31     8     9   ar
    32     9    10    1
    33     3    11    1
    34    11    12    1
    35    12    13    1
    36    12    14    1
    37    12    15    1
    38    27    22   ar
    39     9     1   ar
    40    15     2    1
    41     8     4   ar
    42    40    34   ar
    43    17    20    1
    44     5    16    1
    45    32    33    1
@<TRIPOS>MOLECULE
*****
 41 45 0 0 0
SMALL
GASTEIGER

@<TRIPOS>ATOM
      1 C         -27.1904   50.1857   -8.4127 C.ar    1  UNL1        0.0848
      2 C         -27.8564   50.4915   -9.6227 C.ar    1  UNL1        0.1398
      3 C         -27.1985   50.9873  -10.7170 C.ar    1  UNL1        0.0325
      4 C         -25.8316   51.1996  -10.6393 C.ar    1  UNL1        0.0752
      5 N         -24.9927   51.6552  -11.5758 N.ar    1  UNL1       -0.3255
      6 C         -23.7910   51.6593  -10.9444 C.ar    1  UNL1        0.1984
      7 N         -23.8387   51.2145   -9.6604 N.ar    1  UNL1       -0.2140
      8 C         -25.1447   50.9333   -9.4882 C.ar    1  UNL1        0.0957
      9 C         -25.7829   50.4402   -8.3303 C.ar    1  UNL1        0.0046
     10 C         -24.9854   50.2028   -7.0757 C.3     1  UNL1        0.0329
     11 C         -28.1385   51.1948  -11.8467 C.3     1  UNL1        0.0709
     12 C         -29.5025   50.7327  -11.2319 C.3     1  UNL1        0.1375
     13 C         -30.0821   49.5363  -11.9982 C.3     1  UNL1        0.0439
     14 C         -30.5149   51.8853  -11.1938 C.3     1  UNL1        0.0439
     15 O         -29.2000   50.3297   -9.8917 O.3     1  UNL1       -0.4824
     16 H         -25.2159   51.9182  -12.5613 H       1  UNL1        0.1686
     17 N         -28.0694   50.3381   -6.0466 N.am    1  UNL1       -0.2806
     18 C         -27.9669   49.6249   -7.2901 C.2     1  UNL1        0.2522
     19 O         -28.5272   48.5043   -7.4326 O.2     1  UNL1       -0.2697
     20 H         -27.6264   51.2808   -5.9775 H       1  UNL1        0.1552
     21 C         -30.7031   51.4048   -5.3943 C.3     1  UNL1        0.0323
     22 C         -30.0416   50.3477   -4.5516 C.ar    1  UNL1       -0.0084
     23 C         -30.6903   49.8769   -3.3970 C.ar    1  UNL1        0.0008
     24 C         -30.1038   48.8842   -2.5950 C.ar    1  UNL1        0.0712
     25 C         -28.8271   48.4067   -2.9271 C.ar    1  UNL1        0.0051
     26 C         -28.1700   48.8748   -4.0658 C.ar    1  UNL1        0.0143
     27 C         -28.7717   49.8341   -4.8967 C.ar    1  UNL1        0.0465
     28 C         -30.7897   48.4186   -1.3348 C.3     1  UNL1        0.4186
     29 F         -29.8575   48.0593   -0.3767 F       1  UNL1       -0.1659
     30 F         -31.5818   47.3237   -1.6257 F       1  UNL1       -0.1659
     31 F         -31.5841   49.4229   -0.8089 F       1  UNL1       -0.1659
     32 N         -22.5630   52.0442  -11.5753 N.pl3   1  UNL1       -0.2816
     33 H         -22.4397   51.8135  -12.5867 H       1  UNL1        0.1551
     34 C         -21.5443   52.8089  -10.9129 C.ar    1  UNL1        0.0889
     35 C         -21.7852   54.1431  -10.5323 C.ar    1  UNL1        0.1543
     36 F         -22.9881   54.7236  -10.7720 F       1  UNL1       -0.2028
     37 C         -20.7957   54.8753   -9.8695 C.ar    1  UNL1        0.0310
     38 C         -19.5674   54.2833   -9.5696 C.ar    1  UNL1        0.0033
     39 C         -19.3264   52.9543   -9.9247 C.ar    1  UNL1        0.0128
     40 C         -20.3105   52.2119  -10.5883 C.ar    1  UNL1        0.0733
     41 CL        -19.9609   50.5470  -11.0342 Cl      1  UNL1       -0.0809
@<TRIPOS>BOND
     1    21    22    1
     2    22    23   ar
     3    23    24   ar
     4    24    28    1
     5    28    29    1
     6    28    30    1
     7    28    31    1
     8    24    25   ar
     9    25    26   ar
    10    26    27   ar
    11    27    17    1
    12    17    18   am
    13    18    19    2
    14    18     1    1
    15     1     2   ar
    16     2     3   ar
    17     3     4   ar
    18     4     5   ar
    19     5     6   ar
    20     6    32    1
    21    32    34    1
    22    34    35   ar
    23    35    36    1
    24    35    37   ar
    25    37    38   ar
    26    38    39   ar
    27    39    40   ar
    28    40    41    1
    29     6     7   ar
    30     7     8   ar
    31     8     9   ar
    32     9    10    1
    33     3    11    1
    34    11    12    1
    35    12    13    1
    36    12    14    1
    37    12    15    1
    38    27    22   ar
    39     9     1   ar
    40    15     2    1
    41     8     4   ar
    42    40    34   ar
    43    17    20    1
    44     5    16    1
    45    32    33    1
@<TRIPOS>MOLECULE
*****
 41 45 0 0 0
SMALL
GASTEIGER

@<TRIPOS>ATOM
      1 C         -24.6909   51.2776   -9.0975 C.ar    1  UNL1        0.0848
      2 C         -25.6846   51.0842   -8.1094 C.ar    1  UNL1        0.1398
      3 C         -27.0190   51.0247   -8.4129 C.ar    1  UNL1        0.0325
      4 C         -27.4136   51.1600   -9.7342 C.ar    1  UNL1        0.0752
      5 N         -28.6438   51.1193  -10.2569 N.ar    1  UNL1       -0.3255
      6 C         -28.4269   51.3123  -11.5830 C.ar    1  UNL1        0.1984
      7 N         -27.1163   51.4583  -11.9142 N.ar    1  UNL1       -0.2140
      8 C         -26.4932   51.3628  -10.7238 C.ar    1  UNL1        0.0957
      9 C         -25.1104   51.4504  -10.4565 C.ar    1  UNL1        0.0046
     10 C         -24.1430   51.7160  -11.5789 C.3     1  UNL1        0.0329
     11 C         -27.8271   50.7945   -7.1895 C.3     1  UNL1        0.0709
     12 C         -26.7292   50.7271   -6.0750 C.3     1  UNL1        0.1375
     13 C         -26.7247   49.3594   -5.3795 C.3     1  UNL1        0.0439
     14 C         -26.9113   51.8505   -5.0457 C.3     1  UNL1        0.0439
     15 O         -25.4830   50.9118   -6.7553 O.3     1  UNL1       -0.4824
     16 H         -29.5458   50.9535   -9.7579 H       1  UNL1        0.1686
     17 N         -22.3232   52.1121   -9.4003 N.am    1  UNL1       -0.2806
     18 C         -23.2722   51.2981   -8.6917 C.2     1  UNL1        0.2522
     19 O         -22.9020   50.5804   -7.7234 O.2     1  UNL1       -0.2697
     20 H         -22.6720   52.7237  -10.1710 H       1  UNL1        0.1552
     21 C         -20.3781   51.4657  -11.4736 C.3     1  UNL1        0.0323
     22 C         -19.9591   51.8236  -10.0731 C.ar    1  UNL1       -0.0084
     23 C         -18.5945   51.8185   -9.7363 C.ar    1  UNL1        0.0008
     24 C         -18.1706   52.1571   -8.4408 C.ar    1  UNL1        0.0712
     25 C         -19.1341   52.4442   -7.4623 C.ar    1  UNL1        0.0051
     26 C         -20.4922   52.4423   -7.7836 C.ar    1  UNL1        0.0143
     27 C         -20.9190   52.1492   -9.0892 C.ar    1  UNL1        0.0465
     28 C         -16.7070   52.1055   -8.0798 C.3     1  UNL1        0.4186
     29 F         -16.4782   51.1473   -7.1074 F       1  UNL1       -0.1659
     30 F         -16.3134   53.3398   -7.5976 F       1  UNL1       -0.1659
     31 F         -15.9394   51.7884   -9.1873 F       1  UNL1       -0.1659
     32 N         -29.4689   51.3119  -12.5670 N.pl3   1  UNL1       -0.2816
     33 H         -29.7616   52.2303  -12.9696 H       1  UNL1        0.1551
     34 C         -30.0572   50.1108  -13.0894 C.ar    1  UNL1        0.0889
     35 C         -29.6346   49.5868  -14.3263 C.ar    1  UNL1        0.1543
     36 F         -28.6551   50.1996  -15.0380 F       1  UNL1       -0.2028
     37 C         -30.1975   48.4058  -14.8192 C.ar    1  UNL1        0.0310
     38 C         -31.1727   47.7322  -14.0814 C.ar    1  UNL1        0.0033
     39 C         -31.5836   48.2329  -12.8442 C.ar    1  UNL1        0.0128
     40 C         -31.0262   49.4144  -12.3410 C.ar    1  UNL1        0.0733
     41 CL        -31.5840   50.0214  -10.7875 Cl      1  UNL1       -0.0809
@<TRIPOS>BOND
     1    21    22    1
     2    22    23   ar
     3    23    24   ar
     4    24    28    1
     5    28    29    1
     6    28    30    1
     7    28    31    1
     8    24    25   ar
     9    25    26   ar
    10    26    27   ar
    11    27    17    1
    12    17    18   am
    13    18    19    2
    14    18     1    1
    15     1     2   ar
    16     2     3   ar
    17     3     4   ar
    18     4     5   ar
    19     5     6   ar
    20     6    32    1
    21    32    34    1
    22    34    35   ar
    23    35    36    1
    24    35    37   ar
    25    37    38   ar
    26    38    39   ar
    27    39    40   ar
    28    40    41    1
    29     6     7   ar
    30     7     8   ar
    31     8     9   ar
    32     9    10    1
    33     3    11    1
    34    11    12    1
    35    12    13    1
    36    12    14    1
    37    12    15    1
    38    27    22   ar
    39     9     1   ar
    40    15     2    1
    41     8     4   ar
    42    40    34   ar
    43    17    20    1
    44     5    16    1
    45    32    33    1
@<TRIPOS>MOLECULE
*****
 41 45 0 0 0
SMALL
GASTEIGER

@<TRIPOS>ATOM
      1 C         -27.4864   51.1789  -10.8623 C.ar    1  UNL1        0.0848
      2 C         -28.4242   50.6491   -9.9451 C.ar    1  UNL1        0.1398
      3 C         -29.6049   50.0835  -10.3478 C.ar    1  UNL1        0.0325
      4 C         -29.8954   50.0277  -11.7014 C.ar    1  UNL1        0.0752
      5 N         -30.9664   49.5134  -12.3151 N.ar    1  UNL1       -0.3255
      6 C         -30.7138   49.7416  -13.6292 C.ar    1  UNL1        0.1984
      7 N         -29.5276   50.3630  -13.8652 N.ar    1  UNL1       -0.2140
      8 C         -29.0288   50.5386  -12.6264 C.ar    1  UNL1        0.0957
      9 C         -27.8105   51.1477  -12.2576 C.ar    1  UNL1        0.0046
     10 C         -26.9114   51.7311  -13.3147 C.3     1  UNL1        0.0329
     11 C         -30.3797   49.5952   -9.1798 C.3     1  UNL1        0.0709
     12 C         -29.4460   49.9740   -7.9811 C.3     1  UNL1        0.1375
     13 C         -28.9964   48.7263   -7.2094 C.3     1  UNL1        0.0439
     14 C         -30.1302   50.9705   -7.0358 C.3     1  UNL1        0.0439
     15 O         -28.3009   50.5984   -8.5718 O.3     1  UNL1       -0.4824
     16 H         -31.7839   49.0319  -11.8791 H       1  UNL1        0.1686
     17 N         -24.9609   51.1747  -10.7364 N.am    1  UNL1       -0.2806
     18 C         -26.2230   51.7427  -10.3491 C.2     1  UNL1        0.2522
     19 O         -26.2671   52.7210   -9.5548 O.2     1  UNL1       -0.2697
     20 H         -24.9604   50.3913  -11.4264 H       1  UNL1        0.1552
     21 C         -24.1983   50.6105   -7.9796 C.3     1  UNL1        0.0323
     22 C         -23.3100   51.3963   -8.9061 C.ar    1  UNL1       -0.0084
     23 C         -22.0893   51.9043   -8.4291 C.ar    1  UNL1        0.0008
     24 C         -21.2337   52.6333   -9.2712 C.ar    1  UNL1        0.0712
     25 C         -21.6403   52.9030  -10.5866 C.ar    1  UNL1        0.0051
     26 C         -22.8550   52.4118  -11.0672 C.ar    1  UNL1        0.0143
     27 C         -23.6934   51.6434  -10.2430 C.ar    1  UNL1        0.0465
     28 C         -19.9471   53.2104   -8.7357 C.3     1  UNL1        0.4186
     29 F         -19.7692   54.5068   -9.1873 F       1  UNL1       -0.1659
     30 F         -18.8868   52.4343   -9.1649 F       1  UNL1       -0.1659
     31 F         -19.9581   53.2331   -7.3517 F       1  UNL1       -0.1659
     32 N         -31.5828   49.3244  -14.6898 N.pl3   1  UNL1       -0.2816
     33 H         -32.6108   49.4586  -14.5610 H       1  UNL1        0.1551
     34 C         -31.1047   48.8235  -15.9476 C.ar    1  UNL1        0.0889
     35 C         -31.1092   49.6436  -17.0924 C.ar    1  UNL1        0.1543
     36 F         -31.5517   50.9245  -17.0230 F       1  UNL1       -0.2028
     37 C         -30.6234   49.1558  -18.3091 C.ar    1  UNL1        0.0310
     38 C         -30.1188   47.8568  -18.3929 C.ar    1  UNL1        0.0033
     39 C         -30.0911   47.0428  -17.2584 C.ar    1  UNL1        0.0128
     40 C         -30.5747   47.5214  -16.0349 C.ar    1  UNL1        0.0733
     41 CL        -30.5389   46.4586  -14.6341 Cl      1  UNL1       -0.0809
@<TRIPOS>BOND
     1    21    22    1
     2    22    23   ar
     3    23    24   ar
     4    24    28    1
     5    28    29    1
     6    28    30    1
     7    28    31    1
     8    24    25   ar
     9    25    26   ar
    10    26    27   ar
    11    27    17    1
    12    17    18   am
    13    18    19    2
    14    18     1    1
    15     1     2   ar
    16     2     3   ar
    17     3     4   ar
    18     4     5   ar
    19     5     6   ar
    20     6    32    1
    21    32    34    1
    22    34    35   ar
    23    35    36    1
    24    35    37   ar
    25    37    38   ar
    26    38    39   ar
    27    39    40   ar
    28    40    41    1
    29     6     7   ar
    30     7     8   ar
    31     8     9   ar
    32     9    10    1
    33     3    11    1
    34    11    12    1
    35    12    13    1
    36    12    14    1
    37    12    15    1
    38    27    22   ar
    39     9     1   ar
    40    15     2    1
    41     8     4   ar
    42    40    34   ar
    43    17    20    1
    44     5    16    1
    45    32    33    1
