@<TRIPOS>MOLECULE
*****
 30 33 0 0 0
SMALL
GASTEIGER

@<TRIPOS>ATOM
      1 C         -23.9515  -12.4121  -14.1987 C.ar    1  UNL1       -0.0145
      2 C         -24.0903  -11.2534  -13.4005 C.ar    1  UNL1        0.0134
      3 C         -23.0501  -10.9076  -12.5343 C.ar    1  UNL1        0.0597
      4 C         -21.9165  -11.6864  -12.4432 C.ar    1  UNL1        0.0177
      5 C         -21.7472  -12.8413  -13.1996 C.ar    1  UNL1        0.0079
      6 C         -22.7755  -13.2120  -14.0851 C.ar    1  UNL1        0.0307
      7 BR        -22.5342  -14.8221  -15.1002 Br      1  UNL1       -0.0493
      8 C         -21.1165  -11.0997  -11.4891 C.ar    1  UNL1        0.0177
      9 C         -19.8742  -11.4658  -10.9746 C.ar    1  UNL1        0.0082
     10 C         -19.3190  -10.6578   -9.9660 C.ar    1  UNL1        0.0347
     11 BR        -17.6194  -11.1065   -9.2205 Br      1  UNL1       -0.0490
     12 C         -20.0138   -9.5199   -9.4976 C.ar    1  UNL1        0.0082
     13 C         -21.2684   -9.1759  -10.0326 C.ar    1  UNL1        0.0177
     14 C         -21.7997   -9.9874  -11.0399 C.ar    1  UNL1        0.0600
     15 N         -22.9868   -9.8512  -11.6832 N.ar    1  UNL1       -0.3246
     16 C         -26.1342  -13.6167  -14.3520 C.3     1  UNL1        0.0050
     17 C         -25.0889  -12.8042  -15.1096 C.3     1  UNL1        0.0269
     18 C         -24.0161   -8.8352  -11.4398 C.3     1  UNL1        0.1365
     19 C         -23.6500   -7.5176  -12.1411 C.3     1  UNL1        0.1486
     20 O         -24.3705   -6.4593  -11.5639 O.3     1  UNL1       -0.3811
     21 H         -23.9131   -5.6203  -11.8333 H       1  UNL1        0.2105
     22 C         -23.9368   -7.5970  -13.6498 C.3     1  UNL1        0.1001
     23 N         -22.7242   -7.9887  -14.3861 N.3     1  UNL1       -0.2965
     24 H         -22.5052   -8.9710  -14.0982 H       1  UNL1        0.1233
     25 C         -22.9184   -7.9300  -15.8511 C.3     1  UNL1        0.0540
     26 C         -23.5286   -9.2561  -16.3896 C.3     1  UNL1        0.0157
     27 C         -22.4795  -10.3314  -16.7541 C.3     1  UNL1        0.0014
     28 C         -21.1648  -10.1481  -15.9887 C.3     1  UNL1        0.0001
     29 C         -20.5335   -8.7677  -16.2588 C.3     1  UNL1        0.0014
     30 C         -21.5726   -7.6673  -16.5593 C.3     1  UNL1        0.0157
@<TRIPOS>BOND
     1    16    17    1
     2    17     1    1
     3     1     2   ar
     4     2     3   ar
     5     3     4   ar
     6     4     5   ar
     7     5     6   ar
     8     6     7    1
     9     4     8   ar
    10     8     9   ar
    11     9    10   ar
    12    10    11    1
    13    10    12   ar
    14    12    13   ar
    15    13    14   ar
    16    14    15   ar
    17    15    18    1
    18    18    19    1
    19    19    20    1
    20    19    22    1
    21    22    23    1
    22    23    25    1
    23    25    26    1
    24    26    27    1
    25    27    28    1
    26    28    29    1
    27    29    30    1
    28     6     1   ar
    29    14     8   ar
    30    30    25    1
    31    15     3   ar
    32    20    21    1
    33    23    24    1
@<TRIPOS>MOLECULE
*****
 30 33 0 0 0
SMALL
GASTEIGER

@<TRIPOS>ATOM
      1 C         -22.4865  -11.1458  -12.8495 C.ar    1  UNL1       -0.0145
      2 C         -23.3061  -10.6953  -11.7892 C.ar    1  UNL1        0.0134
      3 C         -24.1657   -9.6179  -12.0177 C.ar    1  UNL1        0.0597
      4 C         -24.2054   -8.9921  -13.2452 C.ar    1  UNL1        0.0177
      5 C         -23.4052   -9.3947  -14.3092 C.ar    1  UNL1        0.0079
      6 C         -22.5333  -10.4808  -14.1109 C.ar    1  UNL1        0.0307
      7 BR        -21.4194  -11.0040  -15.5828 Br      1  UNL1       -0.0493
      8 C         -25.1134   -7.9642  -13.1291 C.ar    1  UNL1        0.0177
      9 C         -25.5330   -6.9966  -14.0400 C.ar    1  UNL1        0.0082
     10 C         -26.4724   -6.0466  -13.6001 C.ar    1  UNL1        0.0347
     11 BR        -27.0869   -4.6953  -14.8010 Br      1  UNL1       -0.0490
     12 C         -26.9594   -6.0830  -12.2742 C.ar    1  UNL1        0.0082
     13 C         -26.5155   -7.0691  -11.3746 C.ar    1  UNL1        0.0177
     14 C         -25.5873   -8.0091  -11.8333 C.ar    1  UNL1        0.0600
     15 N         -25.0203   -9.0296  -11.1414 N.ar    1  UNL1       -0.3246
     16 C         -20.6115  -11.9711  -11.4203 C.3     1  UNL1        0.0050
     17 C         -21.5339  -12.2878  -12.5933 C.3     1  UNL1        0.0269
     18 C         -25.2202   -9.3610   -9.7268 C.3     1  UNL1        0.1365
     19 C         -23.8904   -9.7739   -9.0764 C.3     1  UNL1        0.1486
     20 O         -24.1289  -10.7423   -8.0876 O.3     1  UNL1       -0.3811
     21 H         -23.2579  -11.1797   -7.8986 H       1  UNL1        0.2105
     22 C         -23.1719   -8.5577   -8.4686 C.3     1  UNL1        0.1001
     23 N         -22.9432   -7.5274   -9.4943 N.3     1  UNL1       -0.2965
     24 H         -23.6701   -6.7896   -9.3427 H       1  UNL1        0.1233
     25 C         -21.5952   -6.9278   -9.3908 C.3     1  UNL1        0.0540
     26 C         -21.6196   -5.4219   -9.7814 C.3     1  UNL1        0.0157
     27 C         -21.4228   -5.1583  -11.2919 C.3     1  UNL1        0.0014
     28 C         -21.8371   -6.3561  -12.1528 C.3     1  UNL1        0.0001
     29 C         -21.0382   -7.6242  -11.7909 C.3     1  UNL1        0.0014
     30 C         -20.6055   -7.6737  -10.3106 C.3     1  UNL1        0.0157
@<TRIPOS>BOND
     1    16    17    1
     2    17     1    1
     3     1     2   ar
     4     2     3   ar
     5     3     4   ar
     6     4     5   ar
     7     5     6   ar
     8     6     7    1
     9     4     8   ar
    10     8     9   ar
    11     9    10   ar
    12    10    11    1
    13    10    12   ar
    14    12    13   ar
    15    13    14   ar
    16    14    15   ar
    17    15    18    1
    18    18    19    1
    19    19    20    1
    20    19    22    1
    21    22    23    1
    22    23    25    1
    23    25    26    1
    24    26    27    1
    25    27    28    1
    26    28    29    1
    27    29    30    1
    28     6     1   ar
    29    14     8   ar
    30    30    25    1
    31    15     3   ar
    32    20    21    1
    33    23    24    1
@<TRIPOS>MOLECULE
*****
 30 33 0 0 0
SMALL
GASTEIGER

@<TRIPOS>ATOM
      1 C         -22.4988   -8.1268  -12.2764 C.ar    1  UNL1       -0.0145
      2 C         -22.4314   -9.5032  -12.5925 C.ar    1  UNL1        0.0134
      3 C         -21.4658  -10.2898  -11.9593 C.ar    1  UNL1        0.0597
      4 C         -20.5830   -9.7366  -11.0568 C.ar    1  UNL1        0.0177
      5 C         -20.6063   -8.3850  -10.7296 C.ar    1  UNL1        0.0079
      6 C         -21.5714   -7.5686  -11.3470 C.ar    1  UNL1        0.0307
      7 BR        -21.5701   -5.7023  -10.9020 Br      1  UNL1       -0.0493
      8 C         -19.7524  -10.7559  -10.6496 C.ar    1  UNL1        0.0177
      9 C         -18.6697  -10.7691   -9.7725 C.ar    1  UNL1        0.0082
     10 C         -17.9942  -11.9884   -9.5840 C.ar    1  UNL1        0.0347
     11 BR        -16.5027  -12.0715   -8.3948 Br      1  UNL1       -0.0490
     12 C         -18.4091  -13.1500  -10.2735 C.ar    1  UNL1        0.0082
     13 C         -19.5036  -13.1069  -11.1561 C.ar    1  UNL1        0.0177
     14 C         -20.1666  -11.8872  -11.3238 C.ar    1  UNL1        0.0600
     15 N         -21.2279  -11.6166  -12.1251 N.ar    1  UNL1       -0.3246
     16 C         -23.8163   -7.8208  -14.3764 C.3     1  UNL1        0.0050
     17 C         -23.5196   -7.2705  -12.9850 C.3     1  UNL1        0.0269
     18 C         -21.9059  -12.5397  -13.0410 C.3     1  UNL1        0.1365
     19 C         -21.1370  -12.6454  -14.3674 C.3     1  UNL1        0.1486
     20 O         -21.2171  -11.4253  -15.0584 O.3     1  UNL1       -0.3811
     21 H         -20.4978  -11.4354  -15.7426 H       1  UNL1        0.2105
     22 C         -21.6899  -13.7871  -15.2367 C.3     1  UNL1        0.1001
     23 N         -23.0100  -14.2158  -14.7475 N.3     1  UNL1       -0.2965
     24 H         -23.2558  -13.5774  -13.9551 H       1  UNL1        0.1233
     25 C         -24.0482  -14.1297  -15.7974 C.3     1  UNL1        0.0540
     26 C         -24.1776  -12.6776  -16.3406 C.3     1  UNL1        0.0157
     27 C         -25.1648  -11.7921  -15.5463 C.3     1  UNL1        0.0014
     28 C         -25.3487  -12.2721  -14.1028 C.3     1  UNL1        0.0001
     29 C         -25.8692  -13.7221  -14.0442 C.3     1  UNL1        0.0014
     30 C         -25.4130  -14.5853  -15.2391 C.3     1  UNL1        0.0157
@<TRIPOS>BOND
     1    16    17    1
     2    17     1    1
     3     1     2   ar
     4     2     3   ar
     5     3     4   ar
     6     4     5   ar
     7     5     6   ar
     8     6     7    1
     9     4     8   ar
    10     8     9   ar
    11     9    10   ar
    12    10    11    1
    13    10    12   ar
    14    12    13   ar
    15    13    14   ar
    16    14    15   ar
    17    15    18    1
    18    18    19    1
    19    19    20    1
    20    19    22    1
    21    22    23    1
    22    23    25    1
    23    25    26    1
    24    26    27    1
    25    27    28    1
    26    28    29    1
    27    29    30    1
    28     6     1   ar
    29    14     8   ar
    30    30    25    1
    31    15     3   ar
    32    20    21    1
    33    23    24    1
@<TRIPOS>MOLECULE
*****
 30 33 0 0 0
SMALL
GASTEIGER

@<TRIPOS>ATOM
      1 C         -20.5656  -10.3359  -10.4081 C.ar    1  UNL1       -0.0145
      2 C         -21.7654   -9.7037  -10.8079 C.ar    1  UNL1        0.0134
      3 C         -22.5972  -10.3595  -11.7190 C.ar    1  UNL1        0.0597
      4 C         -22.2514  -11.5904  -12.2340 C.ar    1  UNL1        0.0177
      5 C         -21.0737  -12.2391  -11.8781 C.ar    1  UNL1        0.0079
      6 C         -20.2184  -11.6058  -10.9580 C.ar    1  UNL1        0.0307
      7 BR        -18.5866  -12.5049  -10.5000 Br      1  UNL1       -0.0493
      8 C         -23.2496  -11.9381  -13.1156 C.ar    1  UNL1        0.0177
      9 C         -23.4106  -13.0550  -13.9333 C.ar    1  UNL1        0.0082
     10 C         -24.5486  -13.1041  -14.7585 C.ar    1  UNL1        0.0347
     11 BR        -24.8261  -14.6080  -15.9016 Br      1  UNL1       -0.0490
     12 C         -25.4842  -12.0451  -14.7506 C.ar    1  UNL1        0.0082
     13 C         -25.2945  -10.9276  -13.9175 C.ar    1  UNL1        0.0177
     14 C         -24.1610  -10.9013  -13.0990 C.ar    1  UNL1        0.0600
     15 N         -23.7770   -9.9278  -12.2349 N.ar    1  UNL1       -0.3246
     16 C         -20.3638   -8.4243   -8.8130 C.3     1  UNL1        0.0050
     17 C         -19.6509   -9.6130   -9.4500 C.3     1  UNL1        0.0269
     18 C         -24.4467   -8.6468  -11.9875 C.3     1  UNL1        0.1365
     19 C         -23.5757   -7.4793  -12.4775 C.3     1  UNL1        0.1486
     20 O         -24.0208   -6.2812  -11.8954 O.3     1  UNL1       -0.3811
     21 H         -23.2868   -5.6210  -12.0009 H       1  UNL1        0.2105
     22 C         -23.6094   -7.3711  -14.0111 C.3     1  UNL1        0.1001
     23 N         -22.4003   -7.9709  -14.5978 N.3     1  UNL1       -0.2965
     24 H         -22.3770   -8.9675  -14.2784 H       1  UNL1        0.1233
     25 C         -22.4145   -7.9213  -16.0758 C.3     1  UNL1        0.0540
     26 C         -23.3585   -9.0090  -16.6645 C.3     1  UNL1        0.0157
     27 C         -22.6772  -10.3769  -16.8978 C.3     1  UNL1        0.0014
     28 C         -21.4585  -10.5845  -15.9925 C.3     1  UNL1        0.0001
     29 C         -20.3946   -9.4892  -16.2055 C.3     1  UNL1        0.0014
     30 C         -20.9905   -8.1314  -16.6322 C.3     1  UNL1        0.0157
@<TRIPOS>BOND
     1    16    17    1
     2    17     1    1
     3     1     2   ar
     4     2     3   ar
     5     3     4   ar
     6     4     5   ar
     7     5     6   ar
     8     6     7    1
     9     4     8   ar
    10     8     9   ar
    11     9    10   ar
    12    10    11    1
    13    10    12   ar
    14    12    13   ar
    15    13    14   ar
    16    14    15   ar
    17    15    18    1
    18    18    19    1
    19    19    20    1
    20    19    22    1
    21    22    23    1
    22    23    25    1
    23    25    26    1
    24    26    27    1
    25    27    28    1
    26    28    29    1
    27    29    30    1
    28     6     1   ar
    29    14     8   ar
    30    30    25    1
    31    15     3   ar
    32    20    21    1
    33    23    24    1
@<TRIPOS>MOLECULE
*****
 30 33 0 0 0
SMALL
GASTEIGER

@<TRIPOS>ATOM
      1 C         -22.6197   -7.6033  -11.9537 C.ar    1  UNL1       -0.0145
      2 C         -22.6291   -8.9534  -12.3732 C.ar    1  UNL1        0.0134
      3 C         -21.6857   -9.8302  -11.8317 C.ar    1  UNL1        0.0597
      4 C         -20.7514   -9.3891  -10.9193 C.ar    1  UNL1        0.0177
      5 C         -20.6989   -8.0665  -10.4919 C.ar    1  UNL1        0.0079
      6 C         -21.6399   -7.1614  -11.0156 C.ar    1  UNL1        0.0307
      7 BR        -21.5342   -5.3363  -10.4332 Br      1  UNL1       -0.0493
      8 C         -19.9607  -10.4741  -10.6159 C.ar    1  UNL1        0.0177
      9 C         -18.8554  -10.6046   -9.7774 C.ar    1  UNL1        0.0082
     10 C         -18.2356  -11.8650   -9.7019 C.ar    1  UNL1        0.0347
     11 BR        -16.7168  -12.1080   -8.5706 Br      1  UNL1       -0.0490
     12 C         -18.7266  -12.9502  -10.4622 C.ar    1  UNL1        0.0082
     13 C         -19.8423  -12.7890  -11.3036 C.ar    1  UNL1        0.0177
     14 C         -20.4491  -11.5303  -11.3587 C.ar    1  UNL1        0.0600
     15 N         -21.5181  -11.1503  -12.1033 N.ar    1  UNL1       -0.3246
     16 C         -24.7479   -7.4106  -13.2471 C.3     1  UNL1        0.0050
     17 C         -23.6168   -6.6488  -12.5635 C.3     1  UNL1        0.0269
     18 C         -22.2665  -11.9684  -13.0631 C.3     1  UNL1        0.1365
     19 C         -23.7051  -11.4482  -13.2091 C.3     1  UNL1        0.1486
     20 O         -24.5803  -12.2675  -12.4774 O.3     1  UNL1       -0.3811
     21 H         -25.4229  -11.7554  -12.3614 H       1  UNL1        0.2105
     22 C         -24.1285  -11.4026  -14.6868 C.3     1  UNL1        0.1001
     23 N         -23.7958  -10.0971  -15.2793 N.3     1  UNL1       -0.2965
     24 H         -23.2106   -9.5905  -14.5744 H       1  UNL1        0.1233
     25 C         -23.0434  -10.2351  -16.5451 C.3     1  UNL1        0.0540
     26 C         -21.5167  -10.3719  -16.2782 C.3     1  UNL1        0.0157
     27 C         -20.7678   -9.0223  -16.1912 C.3     1  UNL1        0.0014
     28 C         -21.6898   -7.8675  -15.7861 C.3     1  UNL1        0.0001
     29 C         -22.8567   -7.6922  -16.7784 C.3     1  UNL1        0.0014
     30 C         -23.2916   -9.0109  -17.4514 C.3     1  UNL1        0.0157
@<TRIPOS>BOND
     1    16    17    1
     2    17     1    1
     3     1     2   ar
     4     2     3   ar
     5     3     4   ar
     6     4     5   ar
     7     5     6   ar
     8     6     7    1
     9     4     8   ar
    10     8     9   ar
    11     9    10   ar
    12    10    11    1
    13    10    12   ar
    14    12    13   ar
    15    13    14   ar
    16    14    15   ar
    17    15    18    1
    18    18    19    1
    19    19    20    1
    20    19    22    1
    21    22    23    1
    22    23    25    1
    23    25    26    1
    24    26    27    1
    25    27    28    1
    26    28    29    1
    27    29    30    1
    28     6     1   ar
    29    14     8   ar
    30    30    25    1
    31    15     3   ar
    32    20    21    1
    33    23    24    1
@<TRIPOS>MOLECULE
*****
 30 33 0 0 0
SMALL
GASTEIGER

@<TRIPOS>ATOM
      1 C         -22.6666  -11.2719  -13.6206 C.ar    1  UNL1       -0.0145
      2 C         -22.9510  -11.0067  -12.2613 C.ar    1  UNL1        0.0134
      3 C         -22.6525   -9.7419  -11.7484 C.ar    1  UNL1        0.0597
      4 C         -22.0763   -8.7740  -12.5429 C.ar    1  UNL1        0.0177
      5 C         -21.7672   -8.9992  -13.8801 C.ar    1  UNL1        0.0079
      6 C         -22.0615  -10.2618  -14.4263 C.ar    1  UNL1        0.0307
      7 BR        -21.6037  -10.5610  -16.2654 Br      1  UNL1       -0.0493
      8 C         -21.8810   -7.6747  -11.7378 C.ar    1  UNL1        0.0177
      9 C         -21.3175   -6.4275  -12.0000 C.ar    1  UNL1        0.0082
     10 C         -21.2342   -5.5098  -10.9373 C.ar    1  UNL1        0.0347
     11 BR        -20.4725   -3.7841  -11.2330 Br      1  UNL1       -0.0490
     12 C         -21.7055   -5.8593   -9.6518 C.ar    1  UNL1        0.0082
     13 C         -22.2666   -7.1273   -9.4146 C.ar    1  UNL1        0.0177
     14 C         -22.3474   -8.0225  -10.4859 C.ar    1  UNL1        0.0600
     15 N         -22.8354   -9.2888  -10.4813 N.ar    1  UNL1       -0.3246
     16 C         -24.4593  -12.8561  -14.3385 C.3     1  UNL1        0.0050
     17 C         -22.9580  -12.6484  -14.1660 C.3     1  UNL1        0.0269
     18 C         -23.3581  -10.0337   -9.3313 C.3     1  UNL1        0.1365
     19 C         -24.7847   -9.5728   -8.9932 C.3     1  UNL1        0.1486
     20 O         -25.3430  -10.4311   -8.0319 O.3     1  UNL1       -0.3811
     21 H         -26.1209   -9.9549   -7.6396 H       1  UNL1        0.2105
     22 C         -25.6666   -9.5379  -10.2524 C.3     1  UNL1        0.1001
     23 N         -25.9266   -8.1485  -10.6624 N.3     1  UNL1       -0.2965
     24 H         -24.9915   -7.7001  -10.8052 H       1  UNL1        0.1233
     25 C         -26.7114   -8.0744  -11.9139 C.3     1  UNL1        0.0540
     26 C         -25.8181   -8.3649  -13.1542 C.3     1  UNL1        0.0157
     27 C         -25.1166   -7.1151  -13.7335 C.3     1  UNL1        0.0014
     28 C         -24.9376   -6.0087  -12.6888 C.3     1  UNL1        0.0001
     29 C         -26.2879   -5.5560  -12.0981 C.3     1  UNL1        0.0014
     30 C         -27.3480   -6.6766  -12.0643 C.3     1  UNL1        0.0157
@<TRIPOS>BOND
     1    16    17    1
     2    17     1    1
     3     1     2   ar
     4     2     3   ar
     5     3     4   ar
     6     4     5   ar
     7     5     6   ar
     8     6     7    1
     9     4     8   ar
    10     8     9   ar
    11     9    10   ar
    12    10    11    1
    13    10    12   ar
    14    12    13   ar
    15    13    14   ar
    16    14    15   ar
    17    15    18    1
    18    18    19    1
    19    19    20    1
    20    19    22    1
    21    22    23    1
    22    23    25    1
    23    25    26    1
    24    26    27    1
    25    27    28    1
    26    28    29    1
    27    29    30    1
    28     6     1   ar
    29    14     8   ar
    30    30    25    1
    31    15     3   ar
    32    20    21    1
    33    23    24    1
@<TRIPOS>MOLECULE
*****
 30 33 0 0 0
SMALL
GASTEIGER

@<TRIPOS>ATOM
      1 C         -22.5765   -6.9268  -11.3468 C.ar    1  UNL1       -0.0145
      2 C         -22.7097   -8.2177  -11.9075 C.ar    1  UNL1        0.0134
      3 C         -21.8217   -9.2183  -11.5049 C.ar    1  UNL1        0.0597
      4 C         -20.8231   -8.9531  -10.5925 C.ar    1  UNL1        0.0177
      5 C         -20.6488   -7.6937  -10.0288 C.ar    1  UNL1        0.0079
      6 C         -21.5315   -6.6670  -10.4107 C.ar    1  UNL1        0.0307
      7 BR        -21.2583   -4.9307   -9.6415 Br      1  UNL1       -0.0493
      8 C         -20.1124  -10.1223  -10.4421 C.ar    1  UNL1        0.0177
      9 C         -18.9922  -10.4285   -9.6718 C.ar    1  UNL1        0.0082
     10 C         -18.4740  -11.7332   -9.7590 C.ar    1  UNL1        0.0347
     11 BR        -16.9407  -12.2146   -8.7281 Br      1  UNL1       -0.0490
     12 C         -19.0776  -12.6873  -10.6087 C.ar    1  UNL1        0.0082
     13 C         -20.2058  -12.3495  -11.3781 C.ar    1  UNL1        0.0177
     14 C         -20.7104  -11.0498  -11.2715 C.ar    1  UNL1        0.0600
     15 N         -21.7710  -10.5094  -11.9234 N.ar    1  UNL1       -0.3246
     16 C         -24.8096   -6.4317  -12.3503 C.3     1  UNL1        0.0050
     17 C         -23.5142   -5.8375  -11.8064 C.3     1  UNL1        0.0269
     18 C         -22.6165  -11.1573  -12.9314 C.3     1  UNL1        0.1365
     19 C         -24.0938  -10.7976  -12.7082 C.3     1  UNL1        0.1486
     20 O         -24.5009  -11.2391  -11.4386 O.3     1  UNL1       -0.3811
     21 H         -25.3393  -10.7538  -11.2214 H       1  UNL1        0.2105
     22 C         -24.9838  -11.4175  -13.7983 C.3     1  UNL1        0.1001
     23 N         -24.5933  -12.8136  -14.0517 N.3     1  UNL1       -0.2965
     24 H         -25.1534  -13.4039  -13.3932 H       1  UNL1        0.1233
     25 C         -24.8672  -13.2247  -15.4458 C.3     1  UNL1        0.0540
     26 C         -24.8772  -14.7745  -15.5819 C.3     1  UNL1        0.0157
     27 C         -23.4885  -15.3923  -15.8643 C.3     1  UNL1        0.0014
     28 C         -22.3422  -14.5026  -15.3722 C.3     1  UNL1        0.0001
     29 C         -22.3771  -13.1087  -16.0303 C.3     1  UNL1        0.0014
     30 C         -23.8009  -12.6395  -16.3957 C.3     1  UNL1        0.0157
@<TRIPOS>BOND
     1    16    17    1
     2    17     1    1
     3     1     2   ar
     4     2     3   ar
     5     3     4   ar
     6     4     5   ar
     7     5     6   ar
     8     6     7    1
     9     4     8   ar
    10     8     9   ar
    11     9    10   ar
    12    10    11    1
    13    10    12   ar
    14    12    13   ar
    15    13    14   ar
    16    14    15   ar
    17    15    18    1
    18    18    19    1
    19    19    20    1
    20    19    22    1
    21    22    23    1
    22    23    25    1
    23    25    26    1
    24    26    27    1
    25    27    28    1
    26    28    29    1
    27    29    30    1
    28     6     1   ar
    29    14     8   ar
    30    30    25    1
    31    15     3   ar
    32    20    21    1
    33    23    24    1
@<TRIPOS>MOLECULE
*****
 30 33 0 0 0
SMALL
GASTEIGER

@<TRIPOS>ATOM
      1 C         -25.0095   -9.1800  -10.4142 C.ar    1  UNL1       -0.0145
      2 C         -23.7867   -9.5950  -10.9899 C.ar    1  UNL1        0.0134
      3 C         -23.4704   -9.1585  -12.2788 C.ar    1  UNL1        0.0597
      4 C         -24.3374   -8.3534  -12.9860 C.ar    1  UNL1        0.0177
      5 C         -25.5560   -7.9353  -12.4619 C.ar    1  UNL1        0.0079
      6 C         -25.8994   -8.3543  -11.1637 C.ar    1  UNL1        0.0307
      7 BR        -27.5959   -7.7882  -10.4689 Br      1  UNL1       -0.0493
      8 C         -23.7541   -8.1370  -14.2139 C.ar    1  UNL1        0.0177
      9 C         -24.1890   -7.4235  -15.3290 C.ar    1  UNL1        0.0082
     10 C         -23.3601   -7.4150  -16.4654 C.ar    1  UNL1        0.0347
     11 BR        -23.9003   -6.4553  -18.0252 Br      1  UNL1       -0.0490
     12 C         -22.1335   -8.1165  -16.4613 C.ar    1  UNL1        0.0082
     13 C         -21.7209   -8.8317  -15.3225 C.ar    1  UNL1        0.0177
     14 C         -22.5553   -8.8216  -14.2004 C.ar    1  UNL1        0.0600
     15 N         -22.3631   -9.4457  -13.0108 N.ar    1  UNL1       -0.3246
     16 C         -25.3295  -11.2025   -8.9838 C.3     1  UNL1        0.0050
     17 C         -25.3665   -9.6784   -9.0353 C.3     1  UNL1        0.0269
     18 C         -21.2448  -10.3179  -12.6373 C.3     1  UNL1        0.1365
     19 C         -21.6735  -11.7931  -12.6803 C.3     1  UNL1        0.1486
     20 O         -20.8138  -12.5584  -11.8755 O.3     1  UNL1       -0.3811
     21 H         -21.2750  -13.4204  -11.7021 H       1  UNL1        0.2105
     22 C         -21.6695  -12.3274  -14.1223 C.3     1  UNL1        0.1001
     23 N         -22.5986  -13.4609  -14.2555 N.3     1  UNL1       -0.2965
     24 H         -23.2195  -13.4379  -13.4130 H       1  UNL1        0.1233
     25 C         -23.4194  -13.3674  -15.4823 C.3     1  UNL1        0.0540
     26 C         -23.9010  -11.9080  -15.7251 C.3     1  UNL1        0.0157
     27 C         -25.2339  -11.5583  -15.0244 C.3     1  UNL1        0.0014
     28 C         -25.4997  -12.4410  -13.8005 C.3     1  UNL1        0.0001
     29 C         -25.5448  -13.9365  -14.1729 C.3     1  UNL1        0.0014
     30 C         -24.6481  -14.2953  -15.3762 C.3     1  UNL1        0.0157
@<TRIPOS>BOND
     1    16    17    1
     2    17     1    1
     3     1     2   ar
     4     2     3   ar
     5     3     4   ar
     6     4     5   ar
     7     5     6   ar
     8     6     7    1
     9     4     8   ar
    10     8     9   ar
    11     9    10   ar
    12    10    11    1
    13    10    12   ar
    14    12    13   ar
    15    13    14   ar
    16    14    15   ar
    17    15    18    1
    18    18    19    1
    19    19    20    1
    20    19    22    1
    21    22    23    1
    22    23    25    1
    23    25    26    1
    24    26    27    1
    25    27    28    1
    26    28    29    1
    27    29    30    1
    28     6     1   ar
    29    14     8   ar
    30    30    25    1
    31    15     3   ar
    32    20    21    1
    33    23    24    1
@<TRIPOS>MOLECULE
*****
 30 33 0 0 0
SMALL
GASTEIGER

@<TRIPOS>ATOM
      1 C         -23.5686  -11.7753  -13.9262 C.ar    1  UNL1       -0.0145
      2 C         -23.5834  -10.6832  -13.0284 C.ar    1  UNL1        0.0134
      3 C         -22.5077  -10.5216  -12.1517 C.ar    1  UNL1        0.0597
      4 C         -21.4587  -11.4158  -12.1461 C.ar    1  UNL1        0.0177
      5 C         -21.4130  -12.5109  -13.0024 C.ar    1  UNL1        0.0079
      6 C         -22.4795  -12.6966  -13.9007 C.ar    1  UNL1        0.0307
      7 BR        -22.4101  -14.2274  -15.0553 Br      1  UNL1       -0.0493
      8 C         -20.5968  -10.9990  -11.1571 C.ar    1  UNL1        0.0177
      9 C         -19.3950  -11.5324  -10.6956 C.ar    1  UNL1        0.0082
     10 C         -18.7537  -10.8763   -9.6294 C.ar    1  UNL1        0.0347
     11 BR        -17.1038  -11.5580   -8.9521 Br      1  UNL1       -0.0490
     12 C         -19.3259   -9.7198   -9.0534 C.ar    1  UNL1        0.0082
     13 C         -20.5424   -9.2052   -9.5370 C.ar    1  UNL1        0.0177
     14 C         -21.1603   -9.8673  -10.6025 C.ar    1  UNL1        0.0600
     15 N         -22.3316   -9.5559  -11.2131 N.ar    1  UNL1       -0.3246
     16 C         -25.7528  -12.9437  -14.2472 C.3     1  UNL1        0.0050
     17 C         -24.7460  -11.9691  -14.8500 C.3     1  UNL1        0.0269
     18 C         -23.2503   -8.4666  -10.8666 C.3     1  UNL1        0.1365
     19 C         -24.1684   -8.8837   -9.7068 C.3     1  UNL1        0.1486
     20 O         -23.7083  -10.0881   -9.1498 O.3     1  UNL1       -0.3811
     21 H         -24.1344  -10.1724   -8.2571 H       1  UNL1        0.2105
     22 C         -25.6228   -9.0379  -10.1819 C.3     1  UNL1        0.1001
     23 N         -25.8187   -8.3601  -11.4734 N.3     1  UNL1       -0.2965
     24 H         -25.8836   -9.1127  -12.1981 H       1  UNL1        0.1233
     25 C         -27.0510   -7.5424  -11.4923 C.3     1  UNL1        0.0540
     26 C         -27.8920   -7.8247  -12.7705 C.3     1  UNL1        0.0157
     27 C         -27.5085   -6.9482  -13.9848 C.3     1  UNL1        0.0014
     28 C         -26.0648   -6.4409  -13.9065 C.3     1  UNL1        0.0001
     29 C         -25.8193   -5.6086  -12.6321 C.3     1  UNL1        0.0014
     30 C         -26.6980   -6.0410  -11.4396 C.3     1  UNL1        0.0157
@<TRIPOS>BOND
     1    16    17    1
     2    17     1    1
     3     1     2   ar
     4     2     3   ar
     5     3     4   ar
     6     4     5   ar
     7     5     6   ar
     8     6     7    1
     9     4     8   ar
    10     8     9   ar
    11     9    10   ar
    12    10    11    1
    13    10    12   ar
    14    12    13   ar
    15    13    14   ar
    16    14    15   ar
    17    15    18    1
    18    18    19    1
    19    19    20    1
    20    19    22    1
    21    22    23    1
    22    23    25    1
    23    25    26    1
    24    26    27    1
    25    27    28    1
    26    28    29    1
    27    29    30    1
    28     6     1   ar
    29    14     8   ar
    30    30    25    1
    31    15     3   ar
    32    20    21    1
    33    23    24    1
