@<TRIPOS>MOLECULE
*****
 45 50 0 0 0
SMALL
GASTEIGER

@<TRIPOS>ATOM
      1 C          60.7482   89.4715    9.2487 C.ar    1  UNL1        0.0702
      2 C          60.9798   88.1388    9.6062 C.ar    1  UNL1        0.0191
      3 C          60.8397   87.7301   10.9333 C.ar    1  UNL1        0.0356
      4 C          60.4803   88.6691   11.9176 C.ar    1  UNL1        0.1318
      5 N          60.2871   89.9662   11.5458 N.ar    1  UNL1       -0.2279
      6 C          60.4142   90.3858   10.2594 C.ar    1  UNL1        0.1149
      7 N          60.3143   88.2847   13.3033 N.pl3   1  UNL1       -0.2932
      8 C          61.0257   89.0062   14.3741 C.3     1  UNL1        0.0923
      9 C          60.9889   88.2386   15.7042 C.3     1  UNL1        0.0252
     10 C          61.2449   86.7419   15.4557 C.3     1  UNL1        0.0472
     11 C          60.1707   86.1269   14.5179 C.3     1  UNL1        0.0252
     12 C          59.4241   87.1722   13.6719 C.3     1  UNL1        0.0923
     13 C          61.3292   85.9788   16.7914 C.3     1  UNL1        0.2055
     14 O          62.2744   84.9101   16.7139 O.3     1  UNL1       -0.4732
     15 C          63.3365   84.8206   15.7983 C.ar    1  UNL1        0.1660
     16 C          64.4526   85.6765   15.8457 C.ar    1  UNL1        0.0392
     17 C          65.4791   85.5442   14.9104 C.ar    1  UNL1        0.0035
     18 C          65.4085   84.5627   13.9209 C.ar    1  UNL1        0.0089
     19 C          64.3034   83.6970   13.8533 C.ar    1  UNL1        0.1059
     20 C          63.2727   83.8306   14.8072 C.ar    1  UNL1        0.1800
     21 F          62.1843   83.0192   14.7639 F       1  UNL1       -0.2008
     22 C          64.2370   82.6476   12.8064 C.2     1  UNL1        0.3403
     23 O          63.3340   81.7705   12.8501 O.2     1  UNL1       -0.2450
     24 O          65.1549   82.6061   11.7578 O.3     1  UNL1       -0.4770
     25 H          65.8448   83.3320   11.6122 H       1  UNL1        0.2954
     26 C          59.8362   90.0474    6.9505 C.2     1  UNL1        0.2839
     27 O          58.6920   89.5927    7.2204 O.2     1  UNL1       -0.2665
     28 N          60.9184   89.8819    7.8810 N.am    1  UNL1       -0.2766
     29 H          61.8945   89.9837    7.5211 H       1  UNL1        0.1553
     30 C          57.6328   91.3130    4.9971 C.3     1  UNL1        0.0345
     31 C          59.1186   91.2708    4.8026 C.ar    1  UNL1        0.0202
     32 C          60.0774   90.7162    5.6579 C.ar    1  UNL1        0.1946
     33 O          61.2851   90.8740    5.1458 O.2     1  UNL1       -0.4492
     34 C          61.1591   91.5016    4.0022 C.ar    1  UNL1        0.1452
     35 C          62.1739   91.8745    3.1279 C.ar    1  UNL1        0.0375
     36 C          61.8140   92.5469    1.9473 C.ar    1  UNL1        0.0031
     37 C          60.4526   92.8352    1.6589 C.ar    1  UNL1        0.0002
     38 C          59.4499   92.4375    2.5758 C.ar    1  UNL1        0.0028
     39 C          59.8431   91.7716    3.7378 C.ar    1  UNL1        0.0337
     40 C          60.0844   93.5464    0.4085 C.ar    1  UNL1        0.0000
     41 C          58.7359   93.8217    0.1121 C.ar    1  UNL1        0.0000
     42 C          58.3920   94.4907   -1.0666 C.ar    1  UNL1        0.0000
     43 C          59.3870   94.8925   -1.9605 C.ar    1  UNL1        0.0000
     44 C          60.7284   94.6255   -1.6779 C.ar    1  UNL1        0.0000
     45 C          61.0780   93.9561   -0.5012 C.ar    1  UNL1        0.0000
@<TRIPOS>BOND
     1    30    31    1
     2    31    32   ar
     3    32    26    1
     4    26    27    2
     5    26    28   am
     6    28     1    1
     7     1     2   ar
     8     2     3   ar
     9     3     4   ar
    10     4     7    1
    11     7     8    1
    12     8     9    1
    13     9    10    1
    14    10    13    1
    15    13    14    1
    16    14    15    1
    17    15    16   ar
    18    16    17   ar
    19    17    18   ar
    20    18    19   ar
    21    19    22    1
    22    22    23    2
    23    22    24    1
    24    19    20   ar
    25    20    21    1
    26    10    11    1
    27    11    12    1
    28     4     5   ar
    29     5     6   ar
    30    32    33   ar
    31    33    34   ar
    32    34    35   ar
    33    35    36   ar
    34    36    37   ar
    35    37    40    1
    36    40    41   ar
    37    41    42   ar
    38    42    43   ar
    39    43    44   ar
    40    44    45   ar
    41    37    38   ar
    42    38    39   ar
    43    39    31   ar
    44     6     1   ar
    45    39    34   ar
    46    12     7    1
    47    45    40   ar
    48    20    15   ar
    49    28    29    1
    50    24    25    1
@<TRIPOS>MOLECULE
*****
 45 50 0 0 0
SMALL
GASTEIGER

@<TRIPOS>ATOM
      1 C          59.9646   87.8909    8.2580 C.ar    1  UNL1        0.0702
      2 C          60.9416   88.2318    9.1998 C.ar    1  UNL1        0.0191
      3 C          61.0259   87.5415   10.4098 C.ar    1  UNL1        0.0356
      4 C          60.1114   86.5093   10.6887 C.ar    1  UNL1        0.1318
      5 N          59.1530   86.2162    9.7648 N.ar    1  UNL1       -0.2279
      6 C          59.0544   86.8723    8.5787 C.ar    1  UNL1        0.1149
      7 N          60.1708   85.7618   11.9269 N.pl3   1  UNL1       -0.2932
      8 C          60.1228   86.4553   13.2269 C.3     1  UNL1        0.0923
      9 C          60.5428   85.5350   14.3828 C.3     1  UNL1        0.0252
     10 C          61.7730   84.7056   13.9754 C.3     1  UNL1        0.0472
     11 C          61.4772   83.8155   12.7377 C.3     1  UNL1        0.0252
     12 C          60.2701   84.2935   11.9130 C.3     1  UNL1        0.0923
     13 C          62.2770   83.8661   15.1648 C.3     1  UNL1        0.2055
     14 O          63.2617   84.5785   15.9160 O.3     1  UNL1       -0.4732
     15 C          63.2487   85.9580   16.1829 C.ar    1  UNL1        0.1660
     16 C          62.7757   86.4911   17.3964 C.ar    1  UNL1        0.0392
     17 C          62.7846   87.8698   17.6084 C.ar    1  UNL1        0.0035
     18 C          63.2627   88.7316   16.6203 C.ar    1  UNL1        0.0089
     19 C          63.7394   88.2223   15.4001 C.ar    1  UNL1        0.1059
     20 C          63.7354   86.8266   15.1953 C.ar    1  UNL1        0.1800
     21 F          64.1770   86.3008   14.0233 F       1  UNL1       -0.2008
     22 C          64.2568   89.1410   14.3561 C.2     1  UNL1        0.3403
     23 O          63.9230   88.9784   13.1525 O.2     1  UNL1       -0.2450
     24 O          65.1099   90.1970   14.6734 O.3     1  UNL1       -0.4770
     25 H          65.3411   90.4391   15.6285 H       1  UNL1        0.2954
     26 C          59.7443   90.0550    6.9490 C.2     1  UNL1        0.2839
     27 O          59.4433   90.7203    7.9763 O.2     1  UNL1       -0.2665
     28 N          59.8763   88.6262    7.0253 N.am    1  UNL1       -0.2766
     29 H          59.8201   88.0804    6.1357 H       1  UNL1        0.1553
     30 C          57.4361   91.2082    5.0476 C.3     1  UNL1        0.0345
     31 C          58.9176   91.2445    4.8213 C.ar    1  UNL1        0.0202
     32 C          59.9223   90.7388    5.6540 C.ar    1  UNL1        0.1946
     33 O          61.1088   90.9610    5.1168 O.2     1  UNL1       -0.4492
     34 C          60.9255   91.5840    3.9785 C.ar    1  UNL1        0.1452
     35 C          61.9003   92.0119    3.0841 C.ar    1  UNL1        0.0375
     36 C          61.4805   92.6674    1.9139 C.ar    1  UNL1        0.0031
     37 C          60.0999   92.8847    1.6557 C.ar    1  UNL1        0.0002
     38 C          59.1394   92.4326    2.5923 C.ar    1  UNL1        0.0028
     39 C          59.5918   91.7853    3.7432 C.ar    1  UNL1        0.0337
     40 C          59.6682   93.5787    0.4160 C.ar    1  UNL1        0.0000
     41 C          58.3035   93.6609    0.0799 C.ar    1  UNL1        0.0000
     42 C          57.8998   94.3143   -1.0886 C.ar    1  UNL1        0.0000
     43 C          58.8506   94.8924   -1.9327 C.ar    1  UNL1        0.0000
     44 C          60.2074   94.8179   -1.6103 C.ar    1  UNL1        0.0000
     45 C          60.6168   94.1651   -0.4436 C.ar    1  UNL1        0.0000
@<TRIPOS>BOND
     1    30    31    1
     2    31    32   ar
     3    32    26    1
     4    26    27    2
     5    26    28   am
     6    28     1    1
     7     1     2   ar
     8     2     3   ar
     9     3     4   ar
    10     4     7    1
    11     7     8    1
    12     8     9    1
    13     9    10    1
    14    10    13    1
    15    13    14    1
    16    14    15    1
    17    15    16   ar
    18    16    17   ar
    19    17    18   ar
    20    18    19   ar
    21    19    22    1
    22    22    23    2
    23    22    24    1
    24    19    20   ar
    25    20    21    1
    26    10    11    1
    27    11    12    1
    28     4     5   ar
    29     5     6   ar
    30    32    33   ar
    31    33    34   ar
    32    34    35   ar
    33    35    36   ar
    34    36    37   ar
    35    37    40    1
    36    40    41   ar
    37    41    42   ar
    38    42    43   ar
    39    43    44   ar
    40    44    45   ar
    41    37    38   ar
    42    38    39   ar
    43    39    31   ar
    44     6     1   ar
    45    39    34   ar
    46    12     7    1
    47    45    40   ar
    48    20    15   ar
    49    28    29    1
    50    24    25    1
@<TRIPOS>MOLECULE
*****
 45 50 0 0 0
SMALL
GASTEIGER

@<TRIPOS>ATOM
      1 C          59.1369   87.4375    8.2147 C.ar    1  UNL1        0.0702
      2 C          58.3804   86.2626    8.1451 C.ar    1  UNL1        0.0191
      3 C          58.3240   85.3945    9.2365 C.ar    1  UNL1        0.0356
      4 C          59.0468   85.6964   10.4053 C.ar    1  UNL1        0.1318
      5 N          59.7970   86.8339   10.4359 N.ar    1  UNL1       -0.2279
      6 C          59.8637   87.6955    9.3870 C.ar    1  UNL1        0.1149
      7 N          59.0071   84.8283   11.5631 N.pl3   1  UNL1       -0.2932
      8 C          60.1121   84.8256   12.5390 C.3     1  UNL1        0.0923
      9 C          60.0424   83.6132   13.4796 C.3     1  UNL1        0.0252
     10 C          59.6920   82.3460   12.6803 C.3     1  UNL1        0.0472
     11 C          58.3175   82.4808   11.9701 C.3     1  UNL1        0.0252
     12 C          57.8582   83.9382   11.7946 C.3     1  UNL1        0.0923
     13 C          59.7357   81.1036   13.5903 C.3     1  UNL1        0.2055
     14 O          60.7996   80.2276   13.2129 O.3     1  UNL1       -0.4732
     15 C          61.5363   80.3005   12.0187 C.ar    1  UNL1        0.1660
     16 C          61.3095   79.4335   10.9336 C.ar    1  UNL1        0.0392
     17 C          62.0716   79.5496    9.7710 C.ar    1  UNL1        0.0035
     18 C          63.0641   80.5257    9.6736 C.ar    1  UNL1        0.0089
     19 C          63.3092   81.4024   10.7445 C.ar    1  UNL1        0.1059
     20 C          62.5294   81.2851   11.9142 C.ar    1  UNL1        0.1800
     21 F          62.7476   82.1074   12.9731 F       1  UNL1       -0.2008
     22 C          64.3580   82.4460   10.6331 C.2     1  UNL1        0.3403
     23 O          64.3528   83.2425    9.6574 O.2     1  UNL1       -0.2450
     24 O          65.3608   82.5759   11.5930 O.3     1  UNL1       -0.4770
     25 H          65.3685   82.0314   12.4460 H       1  UNL1        0.2954
     26 C          59.6481   89.6756    7.1309 C.2     1  UNL1        0.2839
     27 O          59.7665   90.2588    8.2421 O.2     1  UNL1       -0.2665
     28 N          59.2030   88.3107    7.0740 N.am    1  UNL1       -0.2766
     29 H          58.8250   87.9556    6.1664 H       1  UNL1        0.1553
     30 C          57.4987   90.9578    5.1288 C.3     1  UNL1        0.0345
     31 C          58.9925   90.9696    5.0046 C.ar    1  UNL1        0.0202
     32 C          59.9278   90.4076    5.8810 C.ar    1  UNL1        0.1946
     33 O          61.1523   90.6245    5.4349 O.2     1  UNL1       -0.4492
     34 C          61.0597   91.2975    4.3142 C.ar    1  UNL1        0.1452
     35 C          62.1017   91.7392    3.5065 C.ar    1  UNL1        0.0375
     36 C          61.7760   92.4515    2.3394 C.ar    1  UNL1        0.0031
     37 C          60.4209   92.7105    1.9982 C.ar    1  UNL1        0.0002
     38 C          59.3898   92.2425    2.8479 C.ar    1  UNL1        0.0028
     39 C          59.7496   91.5385    3.9982 C.ar    1  UNL1        0.0337
     40 C          60.0888   93.4642    0.7626 C.ar    1  UNL1        0.0000
     41 C          58.7682   93.4939    0.2755 C.ar    1  UNL1        0.0000
     42 C          58.4585   94.2038   -0.8888 C.ar    1  UNL1        0.0000
     43 C          59.4600   94.8911   -1.5781 C.ar    1  UNL1        0.0000
     44 C          60.7738   94.8696   -1.1050 C.ar    1  UNL1        0.0000
     45 C          61.0894   94.1607    0.0582 C.ar    1  UNL1        0.0000
@<TRIPOS>BOND
     1    30    31    1
     2    31    32   ar
     3    32    26    1
     4    26    27    2
     5    26    28   am
     6    28     1    1
     7     1     2   ar
     8     2     3   ar
     9     3     4   ar
    10     4     7    1
    11     7     8    1
    12     8     9    1
    13     9    10    1
    14    10    13    1
    15    13    14    1
    16    14    15    1
    17    15    16   ar
    18    16    17   ar
    19    17    18   ar
    20    18    19   ar
    21    19    22    1
    22    22    23    2
    23    22    24    1
    24    19    20   ar
    25    20    21    1
    26    10    11    1
    27    11    12    1
    28     4     5   ar
    29     5     6   ar
    30    32    33   ar
    31    33    34   ar
    32    34    35   ar
    33    35    36   ar
    34    36    37   ar
    35    37    40    1
    36    40    41   ar
    37    41    42   ar
    38    42    43   ar
    39    43    44   ar
    40    44    45   ar
    41    37    38   ar
    42    38    39   ar
    43    39    31   ar
    44     6     1   ar
    45    39    34   ar
    46    12     7    1
    47    45    40   ar
    48    20    15   ar
    49    28    29    1
    50    24    25    1
@<TRIPOS>MOLECULE
*****
 45 50 0 0 0
SMALL
GASTEIGER

@<TRIPOS>ATOM
      1 C          61.8451   87.6450   10.0820 C.ar    1  UNL1        0.0702
      2 C          60.8361   87.9419    9.1593 C.ar    1  UNL1        0.0191
      3 C          59.9924   86.9348    8.6885 C.ar    1  UNL1        0.0356
      4 C          60.1709   85.6117    9.1326 C.ar    1  UNL1        0.1318
      5 N          61.1788   85.3461   10.0109 N.ar    1  UNL1       -0.2279
      6 C          62.0097   86.3111   10.4856 C.ar    1  UNL1        0.1149
      7 N          59.3113   84.5398    8.6771 N.pl3   1  UNL1       -0.2932
      8 C          57.9483   84.3876    9.2180 C.3     1  UNL1        0.0923
      9 C          57.3449   83.0178    8.8730 C.3     1  UNL1        0.0252
     10 C          58.3991   81.9140    9.0671 C.3     1  UNL1        0.0472
     11 C          59.6345   82.1371    8.1529 C.3     1  UNL1        0.0252
     12 C          59.7770   83.5862    7.6574 C.3     1  UNL1        0.0923
     13 C          57.7746   80.5241    8.8399 C.3     1  UNL1        0.2055
     14 O          58.1185   79.6271    9.8976 O.3     1  UNL1       -0.4732
     15 C          58.7963   79.9744   11.0784 C.ar    1  UNL1        0.1660
     16 C          58.1247   80.2676   12.2798 C.ar    1  UNL1        0.0392
     17 C          58.8476   80.6080   13.4233 C.ar    1  UNL1        0.0035
     18 C          60.2417   80.6601   13.3860 C.ar    1  UNL1        0.0089
     19 C          60.9341   80.3720   12.1973 C.ar    1  UNL1        0.1059
     20 C          60.1975   80.0204   11.0467 C.ar    1  UNL1        0.1800
     21 F          60.8335   79.7480    9.8779 F       1  UNL1       -0.2008
     22 C          62.4168   80.4180   12.1644 C.2     1  UNL1        0.3403
     23 O          63.0807   80.0569   13.1721 O.2     1  UNL1       -0.2450
     24 O          63.1070   80.8506   11.0329 O.3     1  UNL1       -0.4770
     25 H          62.6392   81.0645   10.1613 H       1  UNL1        0.2954
     26 C          62.4880   89.4725   11.7228 C.2     1  UNL1        0.2839
     27 O          61.3607   89.4514   12.2862 O.2     1  UNL1       -0.2665
     28 N          62.7207   88.6894   10.5407 N.am    1  UNL1       -0.2766
     29 H          63.5293   88.9496    9.9315 H       1  UNL1        0.1553
     30 C          64.2502   88.9564   14.3498 C.3     1  UNL1        0.0345
     31 C          64.3333   90.1125   13.3992 C.ar    1  UNL1        0.0202
     32 C          63.5611   90.3345   12.2534 C.ar    1  UNL1        0.1946
     33 O          63.9284   91.4630   11.6725 O.2     1  UNL1       -0.4492
     34 C          64.8984   91.9847   12.3828 C.ar    1  UNL1        0.1452
     35 C          65.5825   93.1697   12.1353 C.ar    1  UNL1        0.0375
     36 C          66.5981   93.5451   13.0315 C.ar    1  UNL1        0.0031
     37 C          66.9136   92.7353   14.1559 C.ar    1  UNL1        0.0002
     38 C          66.1924   91.5364   14.3718 C.ar    1  UNL1        0.0028
     39 C          65.1905   91.1946   13.4621 C.ar    1  UNL1        0.0337
     40 C          67.9888   93.1421   15.0959 C.ar    1  UNL1        0.0000
     41 C          68.2150   94.5025   15.3792 C.ar    1  UNL1        0.0000
     42 C          69.2288   94.8827   16.2640 C.ar    1  UNL1        0.0000
     43 C          70.0259   93.9125   16.8755 C.ar    1  UNL1        0.0000
     44 C          69.8114   92.5597   16.6029 C.ar    1  UNL1        0.0000
     45 C          68.7997   92.1738   15.7183 C.ar    1  UNL1        0.0000
@<TRIPOS>BOND
     1    30    31    1
     2    31    32   ar
     3    32    26    1
     4    26    27    2
     5    26    28   am
     6    28     1    1
     7     1     2   ar
     8     2     3   ar
     9     3     4   ar
    10     4     7    1
    11     7     8    1
    12     8     9    1
    13     9    10    1
    14    10    13    1
    15    13    14    1
    16    14    15    1
    17    15    16   ar
    18    16    17   ar
    19    17    18   ar
    20    18    19   ar
    21    19    22    1
    22    22    23    2
    23    22    24    1
    24    19    20   ar
    25    20    21    1
    26    10    11    1
    27    11    12    1
    28     4     5   ar
    29     5     6   ar
    30    32    33   ar
    31    33    34   ar
    32    34    35   ar
    33    35    36   ar
    34    36    37   ar
    35    37    40    1
    36    40    41   ar
    37    41    42   ar
    38    42    43   ar
    39    43    44   ar
    40    44    45   ar
    41    37    38   ar
    42    38    39   ar
    43    39    31   ar
    44     6     1   ar
    45    39    34   ar
    46    12     7    1
    47    45    40   ar
    48    20    15   ar
    49    28    29    1
    50    24    25    1
@<TRIPOS>MOLECULE
*****
 45 50 0 0 0
SMALL
GASTEIGER

@<TRIPOS>ATOM
      1 C          59.9152   88.0715    8.3051 C.ar    1  UNL1        0.0702
      2 C          59.6308   86.7021    8.3435 C.ar    1  UNL1        0.0191
      3 C          59.6993   86.0011    9.5483 C.ar    1  UNL1        0.0356
      4 C          60.0734   86.6741   10.7260 C.ar    1  UNL1        0.1318
      5 N          60.3711   88.0023   10.6548 N.ar    1  UNL1       -0.2279
      6 C          60.3076   88.7057    9.4937 C.ar    1  UNL1        0.1149
      7 N          60.1465   85.9867   11.9979 N.pl3   1  UNL1       -0.2932
      8 C          60.9140   86.5590   13.1189 C.3     1  UNL1        0.0923
      9 C          61.1497   85.5309   14.2355 C.3     1  UNL1        0.0252
     10 C          61.5360   84.1716   13.6269 C.3     1  UNL1        0.0472
     11 C          60.4181   83.6230   12.6990 C.3     1  UNL1        0.0252
     12 C          59.4477   84.7073   12.2007 C.3     1  UNL1        0.0923
     13 C          61.8912   83.1638   14.7367 C.3     1  UNL1        0.2055
     14 O          62.6942   82.0982   14.2254 O.3     1  UNL1       -0.4732
     15 C          63.1228   81.9615   12.8942 C.ar    1  UNL1        0.1660
     16 C          64.1675   82.7323   12.3510 C.ar    1  UNL1        0.0392
     17 C          64.5521   82.5561   11.0218 C.ar    1  UNL1        0.0035
     18 C          63.9054   81.6146   10.2200 C.ar    1  UNL1        0.0089
     19 C          62.8589   80.8339   10.7404 C.ar    1  UNL1        0.1059
     20 C          62.4803   81.0111   12.0877 C.ar    1  UNL1        0.1800
     21 F          61.4649   80.2826   12.6197 F       1  UNL1       -0.2008
     22 C          62.1809   79.8263    9.8879 C.2     1  UNL1        0.3403
     23 O          61.1820   80.1569    9.1954 O.2     1  UNL1       -0.2450
     24 O          62.6262   78.5066    9.8261 O.3     1  UNL1       -0.4770
     25 H          63.4755   78.1991   10.2825 H       1  UNL1        0.2954
     26 C          59.7383   90.2019    6.9358 C.2     1  UNL1        0.2839
     27 O          59.4136   90.8946    7.9375 O.2     1  UNL1       -0.2665
     28 N          59.8621   88.7751    7.0521 N.am    1  UNL1       -0.2766
     29 H          59.8266   88.2068    6.1756 H       1  UNL1        0.1553
     30 C          57.4916   91.4054    4.9923 C.3     1  UNL1        0.0345
     31 C          58.9750   91.3790    4.7777 C.ar    1  UNL1        0.0202
     32 C          59.9528   90.8516    5.6287 C.ar    1  UNL1        0.1946
     33 O          61.1511   91.0160    5.0971 O.2     1  UNL1       -0.4492
     34 C          61.0010   91.6222    3.9449 C.ar    1  UNL1        0.1452
     35 C          61.9987   91.9931    3.0502 C.ar    1  UNL1        0.0375
     36 C          61.6137   92.6405    1.8635 C.ar    1  UNL1        0.0031
     37 C          60.2448   92.9063    1.5895 C.ar    1  UNL1        0.0002
     38 C          59.2602   92.5115    2.5270 C.ar    1  UNL1        0.0028
     39 C          59.6782   91.8707    3.6945 C.ar    1  UNL1        0.0337
     40 C          59.8501   93.5911    0.3324 C.ar    1  UNL1        0.0000
     41 C          60.8267   94.0145   -0.5891 C.ar    1  UNL1        0.0000
     42 C          60.4521   94.6600   -1.7716 C.ar    1  UNL1        0.0000
     43 C          59.1024   94.8890   -2.0481 C.ar    1  UNL1        0.0000
     44 C          58.1241   94.4736   -1.1421 C.ar    1  UNL1        0.0000
     45 C          58.4929   93.8285    0.0423 C.ar    1  UNL1        0.0000
@<TRIPOS>BOND
     1    30    31    1
     2    31    32   ar
     3    32    26    1
     4    26    27    2
     5    26    28   am
     6    28     1    1
     7     1     2   ar
     8     2     3   ar
     9     3     4   ar
    10     4     7    1
    11     7     8    1
    12     8     9    1
    13     9    10    1
    14    10    13    1
    15    13    14    1
    16    14    15    1
    17    15    16   ar
    18    16    17   ar
    19    17    18   ar
    20    18    19   ar
    21    19    22    1
    22    22    23    2
    23    22    24    1
    24    19    20   ar
    25    20    21    1
    26    10    11    1
    27    11    12    1
    28     4     5   ar
    29     5     6   ar
    30    32    33   ar
    31    33    34   ar
    32    34    35   ar
    33    35    36   ar
    34    36    37   ar
    35    37    40    1
    36    40    41   ar
    37    41    42   ar
    38    42    43   ar
    39    43    44   ar
    40    44    45   ar
    41    37    38   ar
    42    38    39   ar
    43    39    31   ar
    44     6     1   ar
    45    39    34   ar
    46    12     7    1
    47    45    40   ar
    48    20    15   ar
    49    28    29    1
    50    24    25    1
