@<TRIPOS>MOLECULE
*****
 37 42 0 0 0
SMALL
GASTEIGER

@<TRIPOS>ATOM
      1 C          47.4359   12.2138  -21.2970 C.ar    1  UNL1        0.1379
      2 N          46.2861   12.2056  -20.5549 N.ar    1  UNL1       -0.2089
      3 C          45.0460   12.2688  -21.1315 C.ar    1  UNL1        0.2014
      4 N          44.9179   12.3775  -22.4850 N.ar    1  UNL1       -0.2050
      5 C          46.0462   12.3919  -23.2331 C.ar    1  UNL1        0.1654
      6 C          47.2921   12.2763  -22.6908 C.ar    1  UNL1        0.0865
      7 C          48.1405   12.2359  -23.7930 C.ar    1  UNL1        0.1095
      8 N          47.3973   12.3404  -24.9227 N.ar    1  UNL1       -0.1677
      9 N          46.1237   12.4600  -24.5704 N.ar    1  UNL1       -0.2319
     10 C          45.0136   12.5049  -25.5125 C.3     1  UNL1        0.1554
     11 C          49.5585   11.8650  -23.8156 C.ar    1  UNL1        0.0577
     12 C          50.0983   10.6636  -23.4064 C.ar    1  UNL1        0.1231
     13 N          51.4396   10.7125  -23.5311 N.ar    1  UNL1       -0.1676
     14 N          51.7591   11.9027  -24.0170 N.ar    1  UNL1       -0.2488
     15 C          53.1355   12.3342  -24.2345 C.3     1  UNL1        0.1537
     16 C          50.6387   12.6321  -24.2085 C.ar    1  UNL1        0.0809
     17 C          50.6030   14.0454  -24.6286 C.ar    1  UNL1        0.0174
     18 C          50.7759   15.0651  -23.6817 C.ar    1  UNL1        0.0012
     19 C          50.7289   16.4059  -24.0741 C.ar    1  UNL1       -0.0042
     20 C          50.5225   16.7421  -25.4206 C.ar    1  UNL1       -0.0218
     21 C          50.4314   18.1808  -25.8349 C.3     1  UNL1        0.0310
     22 C          50.3344   15.7212  -26.3647 C.ar    1  UNL1       -0.0042
     23 C          50.3814   14.3805  -25.9719 C.ar    1  UNL1        0.0012
     24 C          49.0052   11.5496  -19.4217 C.3     1  UNL1        0.1182
     25 C          49.7960   12.5202  -18.5249 C.3     1  UNL1        0.0799
     26 C          50.4168   13.5492  -19.4787 C.3     1  UNL1        0.0392
     27 C          49.4651   13.5722  -20.6720 C.3     1  UNL1        0.0937
     28 N          48.7106   12.3191  -20.6330 N.pl3   1  UNL1       -0.2909
     29 N          50.6847   11.8573  -17.5206 N.3     1  UNL1       -0.2723
     30 C          51.8600   12.5959  -16.9842 C.3     1  UNL1        0.0721
     31 C          51.7412   12.9666  -15.4895 C.3     1  UNL1        0.0174
     32 C          50.2936   13.2524  -15.0869 C.3     1  UNL1        0.0029
     33 C          49.3548   12.0781  -15.4222 C.3     1  UNL1        0.0174
     34 C          49.9457   11.1232  -16.4735 C.3     1  UNL1        0.0721
     35 C          49.7082   10.2317  -19.7856 C.3     1  UNL1        0.1632
     36 C          48.1654    8.8959  -20.8515 C.3     1  UNL1        0.1742
     37 O          48.8282    9.1395  -19.6313 O.3     1  UNL1       -0.3493
@<TRIPOS>BOND
     1    36    37    1
     2    37    35    1
     3    35    24    1
     4    24    25    1
     5    25    29    1
     6    29    30    1
     7    30    31    1
     8    31    32    1
     9    32    33    1
    10    33    34    1
    11    25    26    1
    12    26    27    1
    13    27    28    1
    14    28     1    1
    15     1     2   ar
    16     2     3   ar
    17     3     4   ar
    18     4     5   ar
    19     5     6   ar
    20     6     7   ar
    21     7    11    1
    22    11    12   ar
    23    12    13   ar
    24    13    14   ar
    25    14    15    1
    26    14    16   ar
    27    16    17    1
    28    17    18   ar
    29    18    19   ar
    30    19    20   ar
    31    20    21    1
    32    20    22   ar
    33    22    23   ar
    34     7     8   ar
    35     8     9   ar
    36     9    10    1
    37    28    24    1
    38     6     1   ar
    39    16    11   ar
    40    23    17   ar
    41    34    29    1
    42     9     5   ar
@<TRIPOS>MOLECULE
*****
 37 42 0 0 0
SMALL
GASTEIGER

@<TRIPOS>ATOM
      1 C          50.1162   15.8711  -25.3384 C.ar    1  UNL1        0.1379
      2 N          51.3938   16.3504  -25.4418 N.ar    1  UNL1       -0.2089
      3 C          51.6707   17.5763  -25.9850 C.ar    1  UNL1        0.2014
      4 N          50.6666   18.3563  -26.4784 N.ar    1  UNL1       -0.2050
      5 C          49.3972   17.8942  -26.3880 C.ar    1  UNL1        0.1654
      6 C          49.0863   16.7018  -25.8040 C.ar    1  UNL1        0.0865
      7 C          47.6957   16.6617  -25.8315 C.ar    1  UNL1        0.1095
      8 N          47.2360   17.7906  -26.4263 N.ar    1  UNL1       -0.1677
      9 N          48.2816   18.5245  -26.7846 N.ar    1  UNL1       -0.2319
     10 C          48.1869   19.8538  -27.3728 C.3     1  UNL1        0.1554
     11 C          46.8144   15.7354  -25.1144 C.ar    1  UNL1        0.0577
     12 C          46.6147   15.6836  -23.7507 C.ar    1  UNL1        0.1231
     13 N          45.7737   14.6705  -23.4620 N.ar    1  UNL1       -0.1676
     14 N          45.4290   14.0913  -24.6024 N.ar    1  UNL1       -0.2488
     15 C          44.5662   12.9173  -24.6740 C.3     1  UNL1        0.1537
     16 C          46.0393   14.7155  -25.6328 C.ar    1  UNL1        0.0809
     17 C          45.9887   14.2832  -27.0420 C.ar    1  UNL1        0.0174
     18 C          45.6193   15.1925  -28.0436 C.ar    1  UNL1        0.0012
     19 C          45.5569   14.7828  -29.3785 C.ar    1  UNL1       -0.0042
     20 C          45.8771   13.4623  -29.7290 C.ar    1  UNL1       -0.0218
     21 C          45.7708   13.0121  -31.1557 C.3     1  UNL1        0.0310
     22 C          46.2319   12.5494  -28.7241 C.ar    1  UNL1       -0.0042
     23 C          46.2940   12.9596  -27.3892 C.ar    1  UNL1        0.0012
     24 C          50.8913   13.7915  -24.1156 C.3     1  UNL1        0.1182
     25 C          50.8965   12.3617  -24.6877 C.3     1  UNL1        0.0799
     26 C          49.5265   12.1796  -25.3539 C.3     1  UNL1        0.0392
     27 C          49.1135   13.5952  -25.7486 C.3     1  UNL1        0.0937
     28 N          49.8988   14.5096  -24.9190 N.pl3   1  UNL1       -0.2909
     29 N          51.3664   11.3101  -23.7330 N.3     1  UNL1       -0.2723
     30 C          50.3659   10.4707  -23.0196 C.3     1  UNL1        0.0721
     31 C          50.3678    8.9874  -23.4502 C.3     1  UNL1        0.0174
     32 C          50.7245    8.8239  -24.9285 C.3     1  UNL1        0.0029
     33 C          52.0724    9.4830  -25.2771 C.3     1  UNL1        0.0174
     34 C          52.5129   10.5269  -24.2368 C.3     1  UNL1        0.0721
     35 C          50.5639   13.9258  -22.6196 C.3     1  UNL1        0.1632
     36 C          48.6914   13.4720  -21.3590 C.3     1  UNL1        0.1742
     37 O          49.1983   14.2294  -22.4347 O.3     1  UNL1       -0.3493
@<TRIPOS>BOND
     1    36    37    1
     2    37    35    1
     3    35    24    1
     4    24    25    1
     5    25    29    1
     6    29    30    1
     7    30    31    1
     8    31    32    1
     9    32    33    1
    10    33    34    1
    11    25    26    1
    12    26    27    1
    13    27    28    1
    14    28     1    1
    15     1     2   ar
    16     2     3   ar
    17     3     4   ar
    18     4     5   ar
    19     5     6   ar
    20     6     7   ar
    21     7    11    1
    22    11    12   ar
    23    12    13   ar
    24    13    14   ar
    25    14    15    1
    26    14    16   ar
    27    16    17    1
    28    17    18   ar
    29    18    19   ar
    30    19    20   ar
    31    20    21    1
    32    20    22   ar
    33    22    23   ar
    34     7     8   ar
    35     8     9   ar
    36     9    10    1
    37    28    24    1
    38     6     1   ar
    39    16    11   ar
    40    23    17   ar
    41    34    29    1
    42     9     5   ar
@<TRIPOS>MOLECULE
*****
 37 42 0 0 0
SMALL
GASTEIGER

@<TRIPOS>ATOM
      1 C          46.8947   12.1945  -24.2123 C.ar    1  UNL1        0.1379
      2 N          45.5671   12.2070  -23.8809 N.ar    1  UNL1       -0.2089
      3 C          44.5790   12.1780  -24.8282 C.ar    1  UNL1        0.2014
      4 N          44.8940   12.1693  -26.1552 N.ar    1  UNL1       -0.2050
      5 C          46.2034   12.1617  -26.4998 C.ar    1  UNL1        0.1654
      6 C          47.2082   12.1359  -25.5782 C.ar    1  UNL1        0.0865
      7 C          48.3673   12.0344  -26.3414 C.ar    1  UNL1        0.1095
      8 N          48.0279   12.0182  -27.6544 N.ar    1  UNL1       -0.1677
      9 N          46.7080   12.1213  -27.7418 N.ar    1  UNL1       -0.2319
     10 C          45.9612   12.0482  -28.9904 C.3     1  UNL1        0.1554
     11 C          49.7192   11.7135  -25.8742 C.ar    1  UNL1        0.0577
     12 C          50.2360   10.4523  -25.6633 C.ar    1  UNL1        0.1231
     13 N          51.4926   10.5598  -25.1875 N.ar    1  UNL1       -0.1676
     14 N          51.7863   11.8488  -25.1038 N.ar    1  UNL1       -0.2488
     15 C          53.0511   12.3480  -24.5757 C.3     1  UNL1        0.1537
     16 C          50.7319   12.5839  -25.5184 C.ar    1  UNL1        0.0809
     17 C          50.6429   14.0550  -25.4609 C.ar    1  UNL1        0.0174
     18 C          50.3460   14.7873  -26.6193 C.ar    1  UNL1        0.0012
     19 C          50.2743   16.1825  -26.5714 C.ar    1  UNL1       -0.0042
     20 C          50.4848   16.8605  -25.3611 C.ar    1  UNL1       -0.0218
     21 C          50.4481   18.3593  -25.3182 C.3     1  UNL1        0.0310
     22 C          50.7967   16.1276  -24.2059 C.ar    1  UNL1       -0.0042
     23 C          50.8683   14.7324  -24.2543 C.ar    1  UNL1        0.0012
     24 C          48.1441   11.3855  -22.1616 C.3     1  UNL1        0.1182
     25 C          48.3558   12.1867  -20.8636 C.3     1  UNL1        0.0799
     26 C          48.7973   13.5863  -21.3108 C.3     1  UNL1        0.0392
     27 C          48.1766   13.7475  -22.6961 C.3     1  UNL1        0.0937
     28 N          47.8861   12.3999  -23.1866 N.pl3   1  UNL1       -0.2909
     29 N          49.1701   11.4847  -19.8235 N.3     1  UNL1       -0.2723
     30 C          50.3417   12.1774  -19.2217 C.3     1  UNL1        0.0721
     31 C          50.1612   12.5390  -17.7310 C.3     1  UNL1        0.0174
     32 C          48.7059   12.8712  -17.3977 C.3     1  UNL1        0.0029
     33 C          47.7455   11.7331  -17.7914 C.3     1  UNL1        0.0174
     34 C          48.3551   10.7675  -18.8220 C.3     1  UNL1        0.0721
     35 C          49.3024   10.4724  -22.5954 C.3     1  UNL1        0.1632
     36 C          49.9889    8.2989  -22.9200 C.3     1  UNL1        0.1742
     37 O          48.9718    9.1166  -22.3867 O.3     1  UNL1       -0.3493
@<TRIPOS>BOND
     1    36    37    1
     2    37    35    1
     3    35    24    1
     4    24    25    1
     5    25    29    1
     6    29    30    1
     7    30    31    1
     8    31    32    1
     9    32    33    1
    10    33    34    1
    11    25    26    1
    12    26    27    1
    13    27    28    1
    14    28     1    1
    15     1     2   ar
    16     2     3   ar
    17     3     4   ar
    18     4     5   ar
    19     5     6   ar
    20     6     7   ar
    21     7    11    1
    22    11    12   ar
    23    12    13   ar
    24    13    14   ar
    25    14    15    1
    26    14    16   ar
    27    16    17    1
    28    17    18   ar
    29    18    19   ar
    30    19    20   ar
    31    20    21    1
    32    20    22   ar
    33    22    23   ar
    34     7     8   ar
    35     8     9   ar
    36     9    10    1
    37    28    24    1
    38     6     1   ar
    39    16    11   ar
    40    23    17   ar
    41    34    29    1
    42     9     5   ar
@<TRIPOS>MOLECULE
*****
 37 42 0 0 0
SMALL
GASTEIGER

@<TRIPOS>ATOM
      1 C          45.9804   13.8812  -28.5094 C.ar    1  UNL1        0.1379
      2 N          45.7262   14.3906  -29.7537 N.ar    1  UNL1       -0.2089
      3 C          45.8301   13.6305  -30.8877 C.ar    1  UNL1        0.2014
      4 N          46.2297   12.3286  -30.8127 N.ar    1  UNL1       -0.2050
      5 C          46.4899   11.8109  -29.5891 C.ar    1  UNL1        0.1654
      6 C          46.3431   12.5281  -28.4386 C.ar    1  UNL1        0.0865
      7 C          46.6097   11.6090  -27.4283 C.ar    1  UNL1        0.1095
      8 N          46.9121   10.4131  -27.9920 N.ar    1  UNL1       -0.1677
      9 N          46.8608   10.5524  -29.3104 N.ar    1  UNL1       -0.2319
     10 C          47.0378    9.4598  -30.2575 C.3     1  UNL1        0.1554
     11 C          46.3530   11.7599  -25.9930 C.ar    1  UNL1        0.0577
     12 C          45.1253   11.9551  -25.3956 C.ar    1  UNL1        0.1231
     13 N          45.2946   12.0975  -24.0660 N.ar    1  UNL1       -0.1676
     14 N          46.5889   11.9862  -23.8072 N.ar    1  UNL1       -0.2488
     15 C          47.1532   12.1406  -22.4709 C.3     1  UNL1        0.1537
     16 C          47.2665   11.7748  -24.9561 C.ar    1  UNL1        0.0809
     17 C          48.7349   11.7148  -25.0813 C.ar    1  UNL1        0.0174
     18 C          49.4510   10.6763  -24.4688 C.ar    1  UNL1        0.0012
     19 C          50.8438   10.6238  -24.5738 C.ar    1  UNL1       -0.0042
     20 C          51.5355   11.6018  -25.3045 C.ar    1  UNL1       -0.0218
     21 C          53.0329   11.5684  -25.3830 C.3     1  UNL1        0.0310
     22 C          50.8193   12.6489  -25.9042 C.ar    1  UNL1       -0.0042
     23 C          49.4263   12.7009  -25.7989 C.ar    1  UNL1        0.0012
     24 C          47.2739   15.3981  -26.9452 C.3     1  UNL1        0.1182
     25 C          47.2281   15.3522  -25.4065 C.3     1  UNL1        0.0799
     26 C          45.7410   15.2564  -25.0413 C.3     1  UNL1        0.0392
     27 C          45.1040   14.5767  -26.2506 C.3     1  UNL1        0.0937
     28 N          46.0231   14.7667  -27.3731 N.pl3   1  UNL1       -0.2909
     29 N          48.0596   16.3937  -24.7268 N.3     1  UNL1       -0.2723
     30 C          47.4717   17.1862  -23.6129 C.3     1  UNL1        0.0721
     31 C          48.0968   16.8898  -22.2319 C.3     1  UNL1        0.0174
     32 C          48.5341   15.4296  -22.1062 C.3     1  UNL1        0.0029
     33 C          49.5014   15.0140  -23.2306 C.3     1  UNL1        0.0174
     34 C          49.4416   15.9539  -24.4469 C.3     1  UNL1        0.0721
     35 C          47.4128   16.7905  -27.5817 C.3     1  UNL1        0.1632
     36 C          48.8769   18.5308  -27.2229 C.3     1  UNL1        0.1742
     37 O          48.7671   17.1843  -27.6259 O.3     1  UNL1       -0.3493
@<TRIPOS>BOND
     1    36    37    1
     2    37    35    1
     3    35    24    1
     4    24    25    1
     5    25    29    1
     6    29    30    1
     7    30    31    1
     8    31    32    1
     9    32    33    1
    10    33    34    1
    11    25    26    1
    12    26    27    1
    13    27    28    1
    14    28     1    1
    15     1     2   ar
    16     2     3   ar
    17     3     4   ar
    18     4     5   ar
    19     5     6   ar
    20     6     7   ar
    21     7    11    1
    22    11    12   ar
    23    12    13   ar
    24    13    14   ar
    25    14    15    1
    26    14    16   ar
    27    16    17    1
    28    17    18   ar
    29    18    19   ar
    30    19    20   ar
    31    20    21    1
    32    20    22   ar
    33    22    23   ar
    34     7     8   ar
    35     8     9   ar
    36     9    10    1
    37    28    24    1
    38     6     1   ar
    39    16    11   ar
    40    23    17   ar
    41    34    29    1
    42     9     5   ar
@<TRIPOS>MOLECULE
*****
 37 42 0 0 0
SMALL
GASTEIGER

@<TRIPOS>ATOM
      1 C          46.3406   15.1252  -26.3834 C.ar    1  UNL1        0.1379
      2 N          45.8370   16.2109  -27.0469 N.ar    1  UNL1       -0.2089
      3 C          45.4781   16.1565  -28.3670 C.ar    1  UNL1        0.2014
      4 N          45.6460   15.0073  -29.0819 N.ar    1  UNL1       -0.2050
      5 C          46.1478   13.9252  -28.4412 C.ar    1  UNL1        0.1654
      6 C          46.4635   13.9346  -27.1146 C.ar    1  UNL1        0.0865
      7 C          46.8398   12.6223  -26.8452 C.ar    1  UNL1        0.1095
      8 N          46.7532   11.8977  -27.9884 N.ar    1  UNL1       -0.1677
      9 N          46.3544   12.7064  -28.9616 N.ar    1  UNL1       -0.2319
     10 C          46.0587   12.2707  -30.3198 C.3     1  UNL1        0.1554
     11 C          47.0330   12.0001  -25.5320 C.ar    1  UNL1        0.0577
     12 C          46.1136   11.9502  -24.5051 C.ar    1  UNL1        0.1231
     13 N          46.6693   11.3405  -23.4391 N.ar    1  UNL1       -0.1676
     14 N          47.9052   10.9949  -23.7675 N.ar    1  UNL1       -0.2488
     15 C          48.8308   10.3571  -22.8378 C.3     1  UNL1        0.1537
     16 C          48.1623   11.3756  -25.0375 C.ar    1  UNL1        0.0809
     17 C          49.4685   11.2641  -25.7132 C.ar    1  UNL1        0.0174
     18 C          50.3656   12.3416  -25.6916 C.ar    1  UNL1        0.0012
     19 C          51.5988   12.2445  -26.3425 C.ar    1  UNL1       -0.0042
     20 C          51.9550   11.0632  -27.0106 C.ar    1  UNL1       -0.0218
     21 C          53.2606   10.9736  -27.7433 C.3     1  UNL1        0.0310
     22 C          51.0503    9.9911  -27.0444 C.ar    1  UNL1       -0.0042
     23 C          49.8171   10.0887  -26.3934 C.ar    1  UNL1        0.0012
     24 C          48.2902   15.4950  -24.8076 C.3     1  UNL1        0.1182
     25 C          48.6008   14.6612  -23.5507 C.3     1  UNL1        0.0799
     26 C          47.2638   14.5149  -22.8126 C.3     1  UNL1        0.0392
     27 C          46.2156   14.6180  -23.9175 C.3     1  UNL1        0.0937
     28 N          46.8606   15.2851  -25.0488 N.pl3   1  UNL1       -0.2909
     29 N          49.7927   15.1245  -22.7742 N.3     1  UNL1       -0.2723
     30 C          49.6863   15.2857  -21.2986 C.3     1  UNL1        0.0721
     31 C          50.5219   14.2669  -20.4928 C.3     1  UNL1        0.0174
     32 C          50.6105   12.9148  -21.2023 C.3     1  UNL1        0.0029
     33 C          51.1632   13.0453  -22.6341 C.3     1  UNL1        0.0174
     34 C          51.0537   14.4762  -23.1879 C.3     1  UNL1        0.0721
     35 C          48.6010   16.9982  -24.7223 C.3     1  UNL1        0.1632
     36 C          49.9026   16.6501  -26.5893 C.3     1  UNL1        0.1742
     37 O          49.8408   17.2850  -25.3321 O.3     1  UNL1       -0.3493
@<TRIPOS>BOND
     1    36    37    1
     2    37    35    1
     3    35    24    1
     4    24    25    1
     5    25    29    1
     6    29    30    1
     7    30    31    1
     8    31    32    1
     9    32    33    1
    10    33    34    1
    11    25    26    1
    12    26    27    1
    13    27    28    1
    14    28     1    1
    15     1     2   ar
    16     2     3   ar
    17     3     4   ar
    18     4     5   ar
    19     5     6   ar
    20     6     7   ar
    21     7    11    1
    22    11    12   ar
    23    12    13   ar
    24    13    14   ar
    25    14    15    1
    26    14    16   ar
    27    16    17    1
    28    17    18   ar
    29    18    19   ar
    30    19    20   ar
    31    20    21    1
    32    20    22   ar
    33    22    23   ar
    34     7     8   ar
    35     8     9   ar
    36     9    10    1
    37    28    24    1
    38     6     1   ar
    39    16    11   ar
    40    23    17   ar
    41    34    29    1
    42     9     5   ar
@<TRIPOS>MOLECULE
*****
 37 42 0 0 0
SMALL
GASTEIGER

@<TRIPOS>ATOM
      1 C          51.0086   11.5105  -23.8112 C.ar    1  UNL1        0.1379
      2 N          52.3729   11.6051  -23.7613 N.ar    1  UNL1       -0.2089
      3 C          53.1659   11.2744  -24.8272 C.ar    1  UNL1        0.2014
      4 N          52.6120   10.8008  -25.9800 N.ar    1  UNL1       -0.2050
      5 C          51.2636   10.6967  -26.0437 C.ar    1  UNL1        0.1654
      6 C          50.4460   11.0690  -25.0178 C.ar    1  UNL1        0.0865
      7 C          49.1622   10.8975  -25.5265 C.ar    1  UNL1        0.1095
      8 N          49.2524   10.4286  -26.7959 N.ar    1  UNL1       -0.1677
      9 N          50.5374   10.2857  -27.0938 N.ar    1  UNL1       -0.2319
     10 C          51.0357    9.8886  -28.4038 C.3     1  UNL1        0.1554
     11 C          47.9026   11.3822  -24.9544 C.ar    1  UNL1        0.0577
     12 C          47.5607   11.3965  -23.6183 C.ar    1  UNL1        0.1231
     13 N          46.3051   11.8683  -23.4849 N.ar    1  UNL1       -0.1676
     14 N          45.8512   12.1623  -24.6942 N.ar    1  UNL1       -0.2488
     15 C          44.4994   12.6507  -24.9438 C.3     1  UNL1        0.1537
     16 C          46.7981   11.8844  -25.6161 C.ar    1  UNL1        0.0809
     17 C          46.6177   11.9732  -27.0772 C.ar    1  UNL1        0.0174
     18 C          46.4278   13.2213  -27.6877 C.ar    1  UNL1        0.0012
     19 C          46.2427   13.3080  -29.0704 C.ar    1  UNL1       -0.0042
     20 C          46.2596   12.1486  -29.8605 C.ar    1  UNL1       -0.0218
     21 C          46.0205   12.2377  -31.3385 C.3     1  UNL1        0.0310
     22 C          46.4345   10.8989  -29.2467 C.ar    1  UNL1       -0.0042
     23 C          46.6195   10.8127  -27.8638 C.ar    1  UNL1        0.0012
     24 C          50.5071   12.8252  -21.7039 C.3     1  UNL1        0.1182
     25 C          50.3460   12.2326  -20.2916 C.3     1  UNL1        0.0799
     26 C          49.4313   11.0123  -20.4587 C.3     1  UNL1        0.0392
     27 C          49.6745   10.5590  -21.8959 C.3     1  UNL1        0.0937
     28 N          50.2374   11.7057  -22.6095 N.pl3   1  UNL1       -0.2909
     29 N          50.0084   13.2322  -19.2310 N.3     1  UNL1       -0.2723
     30 C          48.6899   13.1535  -18.5454 C.3     1  UNL1        0.0721
     31 C          48.7782   12.7535  -17.0562 C.3     1  UNL1        0.0174
     32 C          49.9393   11.7935  -16.7923 C.3     1  UNL1        0.0029
     33 C          51.2865   12.3653  -17.2725 C.3     1  UNL1        0.0174
     34 C          51.1216   13.5000  -18.2979 C.3     1  UNL1        0.0721
     35 C          49.6027   14.0195  -22.0491 C.3     1  UNL1        0.1632
     36 C          49.3425   14.9006  -24.1602 C.3     1  UNL1        0.1742
     37 O          50.1992   14.8240  -23.0431 O.3     1  UNL1       -0.3493
@<TRIPOS>BOND
     1    36    37    1
     2    37    35    1
     3    35    24    1
     4    24    25    1
     5    25    29    1
     6    29    30    1
     7    30    31    1
     8    31    32    1
     9    32    33    1
    10    33    34    1
    11    25    26    1
    12    26    27    1
    13    27    28    1
    14    28     1    1
    15     1     2   ar
    16     2     3   ar
    17     3     4   ar
    18     4     5   ar
    19     5     6   ar
    20     6     7   ar
    21     7    11    1
    22    11    12   ar
    23    12    13   ar
    24    13    14   ar
    25    14    15    1
    26    14    16   ar
    27    16    17    1
    28    17    18   ar
    29    18    19   ar
    30    19    20   ar
    31    20    21    1
    32    20    22   ar
    33    22    23   ar
    34     7     8   ar
    35     8     9   ar
    36     9    10    1
    37    28    24    1
    38     6     1   ar
    39    16    11   ar
    40    23    17   ar
    41    34    29    1
    42     9     5   ar
@<TRIPOS>MOLECULE
*****
 37 42 0 0 0
SMALL
GASTEIGER

@<TRIPOS>ATOM
      1 C          49.2749   14.7981  -22.8165 C.ar    1  UNL1        0.1379
      2 N          48.3163   15.7074  -22.4604 N.ar    1  UNL1       -0.2089
      3 C          47.8587   16.6620  -23.3286 C.ar    1  UNL1        0.2014
      4 N          48.3778   16.7582  -24.5862 N.ar    1  UNL1       -0.2050
      5 C          49.3308   15.8689  -24.9524 C.ar    1  UNL1        0.1654
      6 C          49.7672   14.8743  -24.1278 C.ar    1  UNL1        0.0865
      7 C          50.6526   14.1441  -24.9145 C.ar    1  UNL1        0.1095
      8 N          50.7249   14.7177  -26.1414 N.ar    1  UNL1       -0.1677
      9 N          49.9344   15.7832  -26.1471 N.ar    1  UNL1       -0.2319
     10 C          49.6787   16.6077  -27.3205 C.3     1  UNL1        0.1554
     11 C          51.2213   12.8236  -24.6286 C.ar    1  UNL1        0.0577
     12 C          52.3445   12.5608  -23.8725 C.ar    1  UNL1        0.1231
     13 N          52.5835   11.2342  -23.8764 N.ar    1  UNL1       -0.1676
     14 N          51.6391   10.6535  -24.6014 N.ar    1  UNL1       -0.2488
     15 C          51.6067    9.2204  -24.8719 C.3     1  UNL1        0.1537
     16 C          50.7870   11.5891  -25.0728 C.ar    1  UNL1        0.0809
     17 C          49.6774   11.3364  -26.0110 C.ar    1  UNL1        0.0174
     18 C          49.8544   10.4573  -27.0891 C.ar    1  UNL1        0.0012
     19 C          48.8094   10.2259  -27.9881 C.ar    1  UNL1       -0.0042
     20 C          47.5704   10.8604  -27.8111 C.ar    1  UNL1       -0.0218
     21 C          46.4625   10.6436  -28.7986 C.3     1  UNL1        0.0310
     22 C          47.3993   11.7514  -26.7407 C.ar    1  UNL1       -0.0042
     23 C          48.4446   11.9825  -25.8420 C.ar    1  UNL1        0.0012
     24 C          48.9898   13.1114  -20.9472 C.3     1  UNL1        0.1182
     25 C          49.6601   13.1822  -19.5625 C.3     1  UNL1        0.0799
     26 C          51.1318   13.5205  -19.8341 C.3     1  UNL1        0.0392
     27 C          51.1010   14.2795  -21.1581 C.3     1  UNL1        0.0937
     28 N          49.8403   13.9308  -21.8141 N.pl3   1  UNL1       -0.2909
     29 N          49.3521   12.0286  -18.6612 N.3     1  UNL1       -0.2723
     30 C          50.3634   11.5926  -17.6603 C.3     1  UNL1        0.0721
     31 C          49.9499   11.8514  -16.1948 C.3     1  UNL1        0.0174
     32 C          49.0987   13.1147  -16.0577 C.3     1  UNL1        0.0029
     33 C          47.8546   13.0781  -16.9652 C.3     1  UNL1        0.0174
     34 C          47.9817   12.0600  -18.1113 C.3     1  UNL1        0.0721
     35 C          48.8128   11.7073  -21.5477 C.3     1  UNL1        0.1632
     36 C          49.7692    9.6163  -21.4320 C.3     1  UNL1        0.1742
     37 O          50.0325   10.9983  -21.5227 O.3     1  UNL1       -0.3493
@<TRIPOS>BOND
     1    36    37    1
     2    37    35    1
     3    35    24    1
     4    24    25    1
     5    25    29    1
     6    29    30    1
     7    30    31    1
     8    31    32    1
     9    32    33    1
    10    33    34    1
    11    25    26    1
    12    26    27    1
    13    27    28    1
    14    28     1    1
    15     1     2   ar
    16     2     3   ar
    17     3     4   ar
    18     4     5   ar
    19     5     6   ar
    20     6     7   ar
    21     7    11    1
    22    11    12   ar
    23    12    13   ar
    24    13    14   ar
    25    14    15    1
    26    14    16   ar
    27    16    17    1
    28    17    18   ar
    29    18    19   ar
    30    19    20   ar
    31    20    21    1
    32    20    22   ar
    33    22    23   ar
    34     7     8   ar
    35     8     9   ar
    36     9    10    1
    37    28    24    1
    38     6     1   ar
    39    16    11   ar
    40    23    17   ar
    41    34    29    1
    42     9     5   ar
@<TRIPOS>MOLECULE
*****
 37 42 0 0 0
SMALL
GASTEIGER

@<TRIPOS>ATOM
      1 C          51.2822   12.4619  -25.4270 C.ar    1  UNL1        0.1379
      2 N          52.4867   12.8127  -25.9735 N.ar    1  UNL1       -0.2089
      3 C          53.0395   12.1261  -27.0211 C.ar    1  UNL1        0.2014
      4 N          52.4108   11.0322  -27.5390 N.ar    1  UNL1       -0.2050
      5 C          51.2203   10.6690  -27.0061 C.ar    1  UNL1        0.1654
      6 C          50.6203   11.3653  -25.9987 C.ar    1  UNL1        0.0865
      7 C          49.3962   10.7265  -25.8258 C.ar    1  UNL1        0.1095
      8 N          49.3140    9.6921  -26.6991 N.ar    1  UNL1       -0.1677
      9 N          50.4413    9.6498  -27.3975 N.ar    1  UNL1       -0.2319
     10 C          50.6896    8.7279  -28.4977 C.3     1  UNL1        0.1554
     11 C          48.2415   11.2014  -25.0577 C.ar    1  UNL1        0.0577
     12 C          48.0424   11.0538  -23.7009 C.ar    1  UNL1        0.1231
     13 N          46.8451   11.5753  -23.3672 N.ar    1  UNL1       -0.1676
     14 N          46.2904   12.0568  -24.4696 N.ar    1  UNL1       -0.2488
     15 C          44.9591   12.6524  -24.5002 C.3     1  UNL1        0.1537
     16 C          47.1136   11.8523  -25.5204 C.ar    1  UNL1        0.0809
     17 C          46.7891   12.1492  -26.9282 C.ar    1  UNL1        0.0174
     18 C          46.5781   13.4739  -27.3369 C.ar    1  UNL1        0.0012
     19 C          46.2568   13.7578  -28.6672 C.ar    1  UNL1       -0.0042
     20 C          46.1567   12.7211  -29.6075 C.ar    1  UNL1       -0.0218
     21 C          45.7721   13.0217  -31.0258 C.3     1  UNL1        0.0310
     22 C          46.3531   11.3946  -29.1943 C.ar    1  UNL1       -0.0042
     23 C          46.6744   11.1112  -27.8636 C.ar    1  UNL1        0.0012
     24 C          51.0344   12.4970  -22.9055 C.3     1  UNL1        0.1182
     25 C          49.7344   12.7907  -22.1339 C.3     1  UNL1        0.0799
     26 C          49.1283   14.0303  -22.8047 C.3     1  UNL1        0.0392
     27 C          49.6484   13.9692  -24.2386 C.3     1  UNL1        0.0937
     28 N          50.8324   13.1096  -24.2208 N.pl3   1  UNL1       -0.2909
     29 N          49.8794   12.7894  -20.6450 N.3     1  UNL1       -0.2723
     30 C          48.9678   13.6288  -19.8210 C.3     1  UNL1        0.0721
     31 C          47.9796   12.8189  -18.9533 C.3     1  UNL1        0.0174
     32 C          47.5614   11.5144  -19.6334 C.3     1  UNL1        0.0029
     33 C          48.7735   10.6442  -20.0158 C.3     1  UNL1        0.0174
     34 C          50.0868   11.4429  -20.0743 C.3     1  UNL1        0.0721
     35 C          52.3354   13.0146  -22.2708 C.3     1  UNL1        0.1632
     36 C          52.7811   14.3662  -20.4609 C.3     1  UNL1        0.1742
     37 O          52.1418   14.2974  -21.7156 O.3     1  UNL1       -0.3493
@<TRIPOS>BOND
     1    36    37    1
     2    37    35    1
     3    35    24    1
     4    24    25    1
     5    25    29    1
     6    29    30    1
     7    30    31    1
     8    31    32    1
     9    32    33    1
    10    33    34    1
    11    25    26    1
    12    26    27    1
    13    27    28    1
    14    28     1    1
    15     1     2   ar
    16     2     3   ar
    17     3     4   ar
    18     4     5   ar
    19     5     6   ar
    20     6     7   ar
    21     7    11    1
    22    11    12   ar
    23    12    13   ar
    24    13    14   ar
    25    14    15    1
    26    14    16   ar
    27    16    17    1
    28    17    18   ar
    29    18    19   ar
    30    19    20   ar
    31    20    21    1
    32    20    22   ar
    33    22    23   ar
    34     7     8   ar
    35     8     9   ar
    36     9    10    1
    37    28    24    1
    38     6     1   ar
    39    16    11   ar
    40    23    17   ar
    41    34    29    1
    42     9     5   ar
@<TRIPOS>MOLECULE
*****
 37 42 0 0 0
SMALL
GASTEIGER

@<TRIPOS>ATOM
      1 C          46.9787   12.5224  -26.7705 C.ar    1  UNL1        0.1379
      2 N          46.0701   11.8036  -27.4987 N.ar    1  UNL1       -0.2089
      3 C          46.3879   10.6078  -28.0848 C.ar    1  UNL1        0.2014
      4 N          47.6517   10.1045  -27.9867 N.ar    1  UNL1       -0.2050
      5 C          48.5640   10.8062  -27.2736 C.ar    1  UNL1        0.1654
      6 C          48.2618   11.9722  -26.6344 C.ar    1  UNL1        0.0865
      7 C          49.4304   12.2999  -25.9538 C.ar    1  UNL1        0.1095
      8 N          50.3684   11.3551  -26.2128 N.ar    1  UNL1       -0.1677
      9 N          49.8387   10.4617  -27.0383 N.ar    1  UNL1       -0.2319
     10 C          50.5137    9.2461  -27.4729 C.3     1  UNL1        0.1554
     11 C          49.6002   13.3107  -24.9058 C.ar    1  UNL1        0.0577
     12 C          50.1251   14.5763  -25.0647 C.ar    1  UNL1        0.1231
     13 N          50.1659   15.1949  -23.8678 N.ar    1  UNL1       -0.1676
     14 N          49.6722   14.3625  -22.9634 N.ar    1  UNL1       -0.2488
     15 C          49.6088   14.6747  -21.5398 C.3     1  UNL1        0.1537
     16 C          49.3116   13.2051  -23.5585 C.ar    1  UNL1        0.0809
     17 C          48.8293   12.0002  -22.8577 C.ar    1  UNL1        0.0174
     18 C          49.7047   10.9332  -22.6097 C.ar    1  UNL1        0.0012
     19 C          49.2477    9.7842  -21.9582 C.ar    1  UNL1       -0.0042
     20 C          47.9131    9.6948  -21.5343 C.ar    1  UNL1       -0.0218
     21 C          47.4126    8.4458  -20.8717 C.3     1  UNL1        0.0310
     22 C          47.0343   10.7568  -21.7965 C.ar    1  UNL1       -0.0042
     23 C          47.4918   11.9057  -22.4482 C.ar    1  UNL1        0.0012
     24 C          47.0815   15.0375  -27.0608 C.3     1  UNL1        0.1182
     25 C          47.4692   16.0533  -25.9702 C.3     1  UNL1        0.0799
     26 C          46.6855   15.6342  -24.7196 C.3     1  UNL1        0.0392
     27 C          46.4762   14.1326  -24.8974 C.3     1  UNL1        0.0937
     28 N          46.6417   13.8504  -26.3236 N.pl3   1  UNL1       -0.2909
     29 N          47.4056   17.4846  -26.4006 N.3     1  UNL1       -0.2723
     30 C          47.1928   18.5462  -25.3796 C.3     1  UNL1        0.0721
     31 C          48.4139   19.4677  -25.1665 C.3     1  UNL1        0.0174
     32 C          49.7333   18.7190  -25.3613 C.3     1  UNL1        0.0029
     33 C          49.8149   18.0343  -26.7386 C.3     1  UNL1        0.0174
     34 C          48.4361   17.8474  -27.3946 C.3     1  UNL1        0.0721
     35 C          45.9934   15.4830  -28.0513 C.3     1  UNL1        0.1632
     36 C          44.2123   16.9379  -27.9419 C.3     1  UNL1        0.1742
     37 O          44.7961   15.7891  -27.3701 O.3     1  UNL1       -0.3493
@<TRIPOS>BOND
     1    36    37    1
     2    37    35    1
     3    35    24    1
     4    24    25    1
     5    25    29    1
     6    29    30    1
     7    30    31    1
     8    31    32    1
     9    32    33    1
    10    33    34    1
    11    25    26    1
    12    26    27    1
    13    27    28    1
    14    28     1    1
    15     1     2   ar
    16     2     3   ar
    17     3     4   ar
    18     4     5   ar
    19     5     6   ar
    20     6     7   ar
    21     7    11    1
    22    11    12   ar
    23    12    13   ar
    24    13    14   ar
    25    14    15    1
    26    14    16   ar
    27    16    17    1
    28    17    18   ar
    29    18    19   ar
    30    19    20   ar
    31    20    21    1
    32    20    22   ar
    33    22    23   ar
    34     7     8   ar
    35     8     9   ar
    36     9    10    1
    37    28    24    1
    38     6     1   ar
    39    16    11   ar
    40    23    17   ar
    41    34    29    1
    42     9     5   ar
