@<TRIPOS>MOLECULE
*****
 50 55 0 0 0
SMALL
GASTEIGER

@<TRIPOS>ATOM
      1 O          59.1357   86.4153   11.7400 O.2     1  UNL1       -0.2701
      2 C          59.9556   86.1316   10.8240 C.2     1  UNL1        0.2483
      3 N          60.8985   85.0640   11.0152 N.am    1  UNL1       -0.2945
      4 H          61.3874   84.6832   10.1740 H       1  UNL1        0.1501
      5 C          59.9080   86.8850    9.5506 C.ar    1  UNL1        0.0808
      6 C          59.3183   86.2976    8.4186 C.ar    1  UNL1        0.0080
      7 C          59.2648   86.9889    7.2057 C.ar    1  UNL1        0.0148
      8 C          59.7881   88.2871    7.1043 C.ar    1  UNL1        0.0502
      9 C          60.3635   88.8825    8.2366 C.ar    1  UNL1        0.0443
     10 C          60.4211   88.1933    9.4522 C.ar    1  UNL1        0.1457
     11 F          60.9363   88.8265   10.5363 F       1  UNL1       -0.2040
     12 N          59.7374   89.0043    5.8565 N.pl3   1  UNL1       -0.3040
     13 C          58.4777   89.6099    5.4085 C.3     1  UNL1        0.1122
     14 C          58.7555   90.9601    4.7507 C.3     1  UNL1        0.1122
     15 N          59.8272   90.8204    3.7575 N.pl3   1  UNL1       -0.3040
     16 C          61.0892   90.2093    4.1919 C.3     1  UNL1        0.1122
     17 C          60.8190   88.8658    4.8738 C.3     1  UNL1        0.1122
     18 C          59.7548   91.5422    2.5135 C.ar    1  UNL1        0.0488
     19 C          60.5278   92.6971    2.3091 C.ar    1  UNL1        0.0154
     20 C          60.4538   93.3909    1.0987 C.ar    1  UNL1        0.0135
     21 C          59.6109   92.9406    0.0771 C.ar    1  UNL1        0.0683
     22 CL         59.5453   93.8405   -1.4323 Cl      1  UNL1       -0.0814
     23 C          58.8365   91.7845    0.2711 C.ar    1  UNL1        0.0694
     24 CL         57.7692   91.1804   -0.9892 Cl      1  UNL1       -0.0813
     25 C          58.9117   91.0916    1.4851 C.ar    1  UNL1        0.0268
     26 C          61.1351   84.4612   12.3337 C.3     1  UNL1        0.1535
     27 C          61.0554   82.9516   12.2628 C.2     1  UNL1        0.2443
     28 O          60.6335   82.2983   13.2556 O.2     1  UNL1       -0.2730
     29 N          61.4279   82.2762   11.0488 N.am    1  UNL1       -0.2825
     30 H          61.9899   82.8143   10.3509 H       1  UNL1        0.1549
     31 C          61.1286   80.9020   10.7400 C.ar    1  UNL1        0.0532
     32 C          62.0803   80.0420   10.1645 C.ar    1  UNL1        0.0353
     33 C          61.7479   78.7080    9.9216 C.ar    1  UNL1        0.0998
     34 N          60.5163   78.2397   10.2519 N.ar    1  UNL1       -0.2456
     35 CA         59.5800   79.0356   10.8353 C.ar    1  UNL1        0.0897
     36 C          59.8724   80.3835   11.0853 C.ar    1  UNL1        0.0319
     37 C          58.2261   78.4754   11.1549 C.3     1  UNL1        0.1829
     38 O          58.3444   77.1466   11.5827 O.3     1  UNL1       -0.3760
     39 H          58.4878   76.5973   10.7680 H       1  UNL1        0.2110
     40 C          62.5043   84.9079   12.8787 C.3     1  UNL1        0.0569
     41 C          62.3534   85.8071   14.0738 C.ar    1  UNL1       -0.0017
     42 C          61.8799   85.4345   15.3285 C.ar    1  UNL1        0.0681
     43 N          62.0044   86.4578   16.2039 N.ar    1  UNL1       -0.3523
     44 C          62.5626   87.4691   15.5163 C.ar    1  UNL1        0.0563
     45 C          62.9226   88.7243   16.0049 C.ar    1  UNL1        0.0170
     46 C          63.5311   89.6270   15.1141 C.ar    1  UNL1        0.0015
     47 C          63.7638   89.2592   13.7707 C.ar    1  UNL1        0.0001
     48 C          63.3914   87.9850   13.3058 C.ar    1  UNL1        0.0012
     49 C          62.7910   87.1106   14.2123 C.ar    1  UNL1        0.0131
     50 H          61.7436   86.4504   17.2149 H       1  UNL1        0.1660
@<TRIPOS>BOND
     1     1     2    2
     2     2     3   am
     3     3    26    1
     4    26    40    1
     5    40    41    1
     6    41    42   ar
     7    42    43   ar
     8    43    44   ar
     9    44    45   ar
    10    45    46   ar
    11    46    47   ar
    12    47    48   ar
    13    48    49   ar
    14    26    27    1
    15    27    28    2
    16    27    29   am
    17    29    31    1
    18    31    32   ar
    19    32    33   ar
    20    33    34   ar
    21    34    35   ar
    22    35    37    1
    23    37    38    1
    24    35    36   ar
    25     2     5    1
    26     5     6   ar
    27     6     7   ar
    28     7     8   ar
    29     8    12    1
    30    12    13    1
    31    13    14    1
    32    14    15    1
    33    15    18    1
    34    18    19   ar
    35    19    20   ar
    36    20    21   ar
    37    21    22    1
    38    21    23   ar
    39    23    24    1
    40    23    25   ar
    41    15    16    1
    42    16    17    1
    43     8     9   ar
    44     9    10   ar
    45    10    11    1
    46    49    41   ar
    47    36    31   ar
    48    10     5   ar
    49    49    44   ar
    50    17    12    1
    51    25    18   ar
    52     3     4    1
    53    43    50    1
    54    29    30    1
    55    38    39    1
@<TRIPOS>MOLECULE
*****
 50 55 0 0 0
SMALL
GASTEIGER

@<TRIPOS>ATOM
      1 O          58.8414   85.8788   11.2997 O.2     1  UNL1       -0.2701
      2 C          59.9109   86.3391   10.8139 C.2     1  UNL1        0.2483
      3 N          61.1523   86.1494   11.5127 N.am    1  UNL1       -0.2945
      4 H          62.0415   86.3089   10.9878 H       1  UNL1        0.1501
      5 C          59.8716   87.0395    9.5103 C.ar    1  UNL1        0.0808
      6 C          60.4802   88.2993    9.3810 C.ar    1  UNL1        0.0080
      7 C          60.4529   88.9799    8.1612 C.ar    1  UNL1        0.0148
      8 C          59.8278   88.4079    7.0424 C.ar    1  UNL1        0.0502
      9 C          59.2329   87.1434    7.1640 C.ar    1  UNL1        0.0443
     10 C          59.2561   86.4595    8.3836 C.ar    1  UNL1        0.1457
     11 F          58.7171   85.2154    8.4434 F       1  UNL1       -0.2040
     12 N          59.7950   89.1050    5.7827 N.pl3   1  UNL1       -0.3040
     13 C          58.5400   89.6958    5.3030 C.3     1  UNL1        0.1122
     14 C          58.8216   91.0371    4.6288 C.3     1  UNL1        0.1122
     15 N          59.9116   90.8883    3.6571 N.pl3   1  UNL1       -0.3040
     16 C          61.1692   90.2918    4.1234 C.3     1  UNL1        0.1122
     17 C          60.8947   88.9577    4.8216 C.3     1  UNL1        0.1122
     18 C          59.8570   91.5900    2.4006 C.ar    1  UNL1        0.0488
     19 C          60.6030   92.7636    2.2024 C.ar    1  UNL1        0.0154
     20 C          60.5466   93.4376    0.9799 C.ar    1  UNL1        0.0135
     21 C          59.7486   92.9488   -0.0598 C.ar    1  UNL1        0.0683
     22 CL         59.7040   93.8248   -1.5839 Cl      1  UNL1       -0.0814
     23 C          59.0016   91.7738    0.1280 C.ar    1  UNL1        0.0694
     24 CL         57.9911   91.1213   -1.1548 Cl      1  UNL1       -0.0813
     25 C          59.0591   91.1006    1.3540 C.ar    1  UNL1        0.0268
     26 C          61.1987   85.6787   12.9034 C.3     1  UNL1        0.1535
     27 C          60.9452   84.1888   12.9812 C.2     1  UNL1        0.2443
     28 O          60.9735   83.6051   14.0988 O.2     1  UNL1       -0.2730
     29 N          60.6378   83.4563   11.7822 N.am    1  UNL1       -0.2825
     30 H          60.8588   83.9131   10.8685 H       1  UNL1        0.1549
     31 C          60.0936   82.1238   11.7420 C.ar    1  UNL1        0.0532
     32 C          58.7844   81.8390   12.1678 C.ar    1  UNL1        0.0353
     33 C          58.2949   80.5352   12.0706 C.ar    1  UNL1        0.0998
     34 N          59.0744   79.5495   11.5547 N.ar    1  UNL1       -0.2456
     35 CA         60.3357   79.7936   11.1074 C.ar    1  UNL1        0.0897
     36 C          60.8664   81.0879   11.1982 C.ar    1  UNL1        0.0319
     37 C          61.1639   78.6639   10.5721 C.3     1  UNL1        0.1829
     38 O          60.6206   77.4368   10.9745 O.3     1  UNL1       -0.3760
     39 H          60.8815   77.3081   11.9240 H       1  UNL1        0.2110
     40 C          62.5585   86.0321   13.5337 C.3     1  UNL1        0.0569
     41 C          62.4486   87.2204   14.4477 C.ar    1  UNL1       -0.0017
     42 C          61.5401   87.3740   15.4909 C.ar    1  UNL1        0.0681
     43 N          61.8089   88.5000   16.1900 N.ar    1  UNL1       -0.3523
     44 C          62.8856   89.0526   15.6048 C.ar    1  UNL1        0.0563
     45 C          63.5589   90.2088   15.9969 C.ar    1  UNL1        0.0170
     46 C          64.6932   90.5916   15.2585 C.ar    1  UNL1        0.0015
     47 C          65.1245   89.8191   14.1577 C.ar    1  UNL1        0.0001
     48 C          64.4263   88.6561   13.7859 C.ar    1  UNL1        0.0012
     49 C          63.3058   88.3006   14.5375 C.ar    1  UNL1        0.0131
     50 H          61.2976   88.8509   17.0301 H       1  UNL1        0.1660
@<TRIPOS>BOND
     1     1     2    2
     2     2     3   am
     3     3    26    1
     4    26    40    1
     5    40    41    1
     6    41    42   ar
     7    42    43   ar
     8    43    44   ar
     9    44    45   ar
    10    45    46   ar
    11    46    47   ar
    12    47    48   ar
    13    48    49   ar
    14    26    27    1
    15    27    28    2
    16    27    29   am
    17    29    31    1
    18    31    32   ar
    19    32    33   ar
    20    33    34   ar
    21    34    35   ar
    22    35    37    1
    23    37    38    1
    24    35    36   ar
    25     2     5    1
    26     5     6   ar
    27     6     7   ar
    28     7     8   ar
    29     8    12    1
    30    12    13    1
    31    13    14    1
    32    14    15    1
    33    15    18    1
    34    18    19   ar
    35    19    20   ar
    36    20    21   ar
    37    21    22    1
    38    21    23   ar
    39    23    24    1
    40    23    25   ar
    41    15    16    1
    42    16    17    1
    43     8     9   ar
    44     9    10   ar
    45    10    11    1
    46    49    41   ar
    47    36    31   ar
    48    10     5   ar
    49    49    44   ar
    50    17    12    1
    51    25    18   ar
    52     3     4    1
    53    43    50    1
    54    29    30    1
    55    38    39    1
@<TRIPOS>MOLECULE
*****
 50 55 0 0 0
SMALL
GASTEIGER

@<TRIPOS>ATOM
      1 O          59.8553   84.8284   10.8650 O.2     1  UNL1       -0.2701
      2 C          59.8589   86.0896   10.8974 C.2     1  UNL1        0.2483
      3 N          59.9158   86.7713   12.1613 N.am    1  UNL1       -0.2945
      4 H          60.1691   87.7850   12.1624 H       1  UNL1        0.1501
      5 C          59.8388   86.8467    9.6254 C.ar    1  UNL1        0.0808
      6 C          59.0758   86.3699    8.5463 C.ar    1  UNL1        0.0080
      7 C          59.0443   87.0665    7.3356 C.ar    1  UNL1        0.0148
      8 C          59.7649   88.2611    7.1844 C.ar    1  UNL1        0.0502
      9 C          60.5152   88.7481    8.2649 C.ar    1  UNL1        0.0443
     10 C          60.5513   88.0531    9.4779 C.ar    1  UNL1        0.1457
     11 F          61.2450   88.5875   10.5147 F       1  UNL1       -0.2040
     12 N          59.7378   88.9829    5.9385 N.pl3   1  UNL1       -0.3040
     13 C          58.4773   89.5521    5.4471 C.3     1  UNL1        0.1122
     14 C          58.7373   90.9135    4.8053 C.3     1  UNL1        0.1122
     15 N          59.8484   90.8117    3.8516 N.pl3   1  UNL1       -0.3040
     16 C          61.1119   90.2372    4.3295 C.3     1  UNL1        0.1122
     17 C          60.8583   88.8826    4.9955 C.3     1  UNL1        0.1122
     18 C          59.7993   91.5375    2.6087 C.ar    1  UNL1        0.0488
     19 C          60.5881   92.6838    2.4167 C.ar    1  UNL1        0.0154
     20 C          60.5367   93.3813    1.2072 C.ar    1  UNL1        0.0135
     21 C          59.7010   92.9434    0.1744 C.ar    1  UNL1        0.0683
     22 CL         59.6640   93.8477   -1.3333 Cl      1  UNL1       -0.0814
     23 C          58.9110   91.7960    0.3560 C.ar    1  UNL1        0.0694
     24 CL         57.8520   91.2074   -0.9185 Cl      1  UNL1       -0.0813
     25 C          58.9635   91.0992    1.5690 C.ar    1  UNL1        0.0268
     26 C          59.6967   86.0712   13.4339 C.3     1  UNL1        0.1535
     27 C          60.7077   84.9613   13.6242 C.2     1  UNL1        0.2443
     28 O          60.3863   83.9225   14.2631 O.2     1  UNL1       -0.2730
     29 N          62.0174   85.0852   13.0427 N.am    1  UNL1       -0.2825
     30 H          62.3216   86.0378   12.7387 H       1  UNL1        0.1549
     31 C          62.9613   84.0086   12.8902 C.ar    1  UNL1        0.0532
     32 C          63.9353   83.7263   13.8639 C.ar    1  UNL1        0.0353
     33 C          64.8006   82.6459   13.6821 C.ar    1  UNL1        0.0998
     34 N          64.6934   81.8631   12.5770 N.ar    1  UNL1       -0.2456
     35 CA         63.7456   82.0896   11.6279 C.ar    1  UNL1        0.0897
     36 C          62.8653   83.1713   11.7695 C.ar    1  UNL1        0.0319
     37 C          63.6882   81.2116   10.4134 C.3     1  UNL1        0.1829
     38 O          64.7035   81.5663    9.5155 O.3     1  UNL1       -0.3760
     39 H          64.3995   82.3915    9.0542 H       1  UNL1        0.2110
     40 C          59.7616   87.0714   14.6030 C.3     1  UNL1        0.0569
     41 C          61.1690   87.2427   15.1025 C.ar    1  UNL1       -0.0017
     42 C          61.7271   86.6229   16.2167 C.ar    1  UNL1        0.0681
     43 N          63.0492   86.8955   16.2967 N.ar    1  UNL1       -0.3523
     44 C          63.3333   87.6722   15.2370 C.ar    1  UNL1        0.0563
     45 C          64.5804   88.1761   14.8701 C.ar    1  UNL1        0.0170
     46 C          64.6595   88.9435   13.6939 C.ar    1  UNL1        0.0015
     47 C          63.5039   89.1871   12.9195 C.ar    1  UNL1        0.0001
     48 C          62.2588   88.6646   13.3134 C.ar    1  UNL1        0.0012
     49 C          62.2113   87.9063   14.4837 C.ar    1  UNL1        0.0131
     50 H          63.7161   86.5485   17.0215 H       1  UNL1        0.1660
@<TRIPOS>BOND
     1     1     2    2
     2     2     3   am
     3     3    26    1
     4    26    40    1
     5    40    41    1
     6    41    42   ar
     7    42    43   ar
     8    43    44   ar
     9    44    45   ar
    10    45    46   ar
    11    46    47   ar
    12    47    48   ar
    13    48    49   ar
    14    26    27    1
    15    27    28    2
    16    27    29   am
    17    29    31    1
    18    31    32   ar
    19    32    33   ar
    20    33    34   ar
    21    34    35   ar
    22    35    37    1
    23    37    38    1
    24    35    36   ar
    25     2     5    1
    26     5     6   ar
    27     6     7   ar
    28     7     8   ar
    29     8    12    1
    30    12    13    1
    31    13    14    1
    32    14    15    1
    33    15    18    1
    34    18    19   ar
    35    19    20   ar
    36    20    21   ar
    37    21    22    1
    38    21    23   ar
    39    23    24    1
    40    23    25   ar
    41    15    16    1
    42    16    17    1
    43     8     9   ar
    44     9    10   ar
    45    10    11    1
    46    49    41   ar
    47    36    31   ar
    48    10     5   ar
    49    49    44   ar
    50    17    12    1
    51    25    18   ar
    52     3     4    1
    53    43    50    1
    54    29    30    1
    55    38    39    1
@<TRIPOS>MOLECULE
*****
 50 55 0 0 0
SMALL
GASTEIGER

@<TRIPOS>ATOM
      1 O          59.2668   85.5184   11.0645 O.2     1  UNL1       -0.2701
      2 C          60.1670   86.3401   10.7386 C.2     1  UNL1        0.2483
      3 N          61.2852   86.5586   11.6145 N.am    1  UNL1       -0.2945
      4 H          62.1283   87.0378   11.2254 H       1  UNL1        0.1501
      5 C          60.0710   87.0416    9.4385 C.ar    1  UNL1        0.0808
      6 C          60.6279   88.3240    9.2994 C.ar    1  UNL1        0.0080
      7 C          60.5467   89.0058    8.0826 C.ar    1  UNL1        0.0148
      8 C          59.9185   88.4129    6.9767 C.ar    1  UNL1        0.0502
      9 C          59.3752   87.1263    7.1077 C.ar    1  UNL1        0.0443
     10 C          59.4524   86.4410    8.3244 C.ar    1  UNL1        0.1457
     11 F          58.9628   85.1771    8.3925 F       1  UNL1       -0.2040
     12 N          59.8302   89.1111    5.7202 N.pl3   1  UNL1       -0.3040
     13 C          58.5528   89.6937    5.2922 C.3     1  UNL1        0.1122
     14 C          58.7977   91.0376    4.6090 C.3     1  UNL1        0.1122
     15 N          59.8487   90.8974    3.5940 N.pl3   1  UNL1       -0.3040
     16 C          61.1282   90.3093    4.0086 C.3     1  UNL1        0.1122
     17 C          60.8913   88.9725    4.7154 C.3     1  UNL1        0.1122
     18 C          59.7388   91.6001    2.3418 C.ar    1  UNL1        0.0488
     19 C          60.4452   92.7950    2.1262 C.ar    1  UNL1        0.0154
     20 C          60.3352   93.4699    0.9079 C.ar    1  UNL1        0.0135
     21 C          59.5225   92.9608   -0.1105 C.ar    1  UNL1        0.0683
     22 CL         59.4100   93.8386   -1.6301 Cl      1  UNL1       -0.0814
     23 C          58.8149   91.7645    0.0946 C.ar    1  UNL1        0.0694
     24 CL         57.7876   91.0863   -1.1612 Cl      1  UNL1       -0.0813
     25 C          58.9260   91.0905    1.3165 C.ar    1  UNL1        0.0268
     26 C          61.2957   86.0712   13.0001 C.3     1  UNL1        0.1535
     27 C          61.7535   84.6303   13.0655 C.2     1  UNL1        0.2443
     28 O          62.9502   84.3650   13.3622 O.2     1  UNL1       -0.2730
     29 N          60.8093   83.5726   12.8237 N.am    1  UNL1       -0.2825
     30 H          59.9115   83.8265   12.3526 H       1  UNL1        0.1549
     31 C          61.0234   82.1835   13.1362 C.ar    1  UNL1        0.0532
     32 C          62.0948   81.7557   13.9397 C.ar    1  UNL1        0.0353
     33 C          62.2325   80.3999   14.2426 C.ar    1  UNL1        0.0998
     34 N          61.3285   79.5001   13.7750 N.ar    1  UNL1       -0.2456
     35 CA         60.2643   79.8811   13.0180 C.ar    1  UNL1        0.0897
     36 C          60.0979   81.2322   12.6838 C.ar    1  UNL1        0.0319
     37 C          59.3109   78.8438   12.5043 C.3     1  UNL1        0.1829
     38 O          58.7792   78.1088   13.5719 O.3     1  UNL1       -0.3760
     39 H          59.4820   77.4656   13.8522 H       1  UNL1        0.2110
     40 C          62.1989   86.9681   13.8669 C.3     1  UNL1        0.0569
     41 C          63.0291   87.8929   13.0213 C.ar    1  UNL1       -0.0017
     42 C          62.9095   88.0806   11.6474 C.ar    1  UNL1        0.0681
     43 N          63.7194   89.0817   11.2346 N.ar    1  UNL1       -0.3523
     44 C          64.3408   89.5355   12.3368 C.ar    1  UNL1        0.0563
     45 C          65.2455   90.5929   12.4207 C.ar    1  UNL1        0.0170
     46 C          65.7522   90.9259   13.6900 C.ar    1  UNL1        0.0015
     47 C          65.3476   90.2032   14.8339 C.ar    1  UNL1        0.0001
     48 C          64.4319   89.1417   14.7193 C.ar    1  UNL1        0.0012
     49 C          63.9455   88.8352   13.4480 C.ar    1  UNL1        0.0131
     50 H          63.8186   89.4437   10.2601 H       1  UNL1        0.1660
@<TRIPOS>BOND
     1     1     2    2
     2     2     3   am
     3     3    26    1
     4    26    40    1
     5    40    41    1
     6    41    42   ar
     7    42    43   ar
     8    43    44   ar
     9    44    45   ar
    10    45    46   ar
    11    46    47   ar
    12    47    48   ar
    13    48    49   ar
    14    26    27    1
    15    27    28    2
    16    27    29   am
    17    29    31    1
    18    31    32   ar
    19    32    33   ar
    20    33    34   ar
    21    34    35   ar
    22    35    37    1
    23    37    38    1
    24    35    36   ar
    25     2     5    1
    26     5     6   ar
    27     6     7   ar
    28     7     8   ar
    29     8    12    1
    30    12    13    1
    31    13    14    1
    32    14    15    1
    33    15    18    1
    34    18    19   ar
    35    19    20   ar
    36    20    21   ar
    37    21    22    1
    38    21    23   ar
    39    23    24    1
    40    23    25   ar
    41    15    16    1
    42    16    17    1
    43     8     9   ar
    44     9    10   ar
    45    10    11    1
    46    49    41   ar
    47    36    31   ar
    48    10     5   ar
    49    49    44   ar
    50    17    12    1
    51    25    18   ar
    52     3     4    1
    53    43    50    1
    54    29    30    1
    55    38    39    1
@<TRIPOS>MOLECULE
*****
 50 55 0 0 0
SMALL
GASTEIGER

@<TRIPOS>ATOM
      1 O          60.9153   85.2524   10.7025 O.2     1  UNL1       -0.2701
      2 C          60.1937   86.2867   10.6661 C.2     1  UNL1        0.2483
      3 N          59.4549   86.6833   11.8331 N.am    1  UNL1       -0.2945
      4 H          59.0735   87.6555   11.8669 H       1  UNL1        0.1501
      5 C          60.1485   87.0947    9.4265 C.ar    1  UNL1        0.0808
      6 C          60.9055   88.2752    9.3399 C.ar    1  UNL1        0.0080
      7 C          60.8759   89.0550    8.1810 C.ar    1  UNL1        0.0148
      8 C          60.0987   88.6625    7.0804 C.ar    1  UNL1        0.0502
      9 C          59.3540   87.4763    7.1578 C.ar    1  UNL1        0.0443
     10 C          59.3790   86.6938    8.3166 C.ar    1  UNL1        0.1457
     11 F          58.6876   85.5261    8.3293 F       1  UNL1       -0.2040
     12 N          60.0628   89.4627    5.8837 N.pl3   1  UNL1       -0.3040
     13 C          61.2986   89.7188    5.1342 C.3     1  UNL1        0.1122
     14 C          61.0138   89.6807    3.6341 C.3     1  UNL1        0.1122
     15 N          59.8513   90.5220    3.3253 N.pl3   1  UNL1       -0.3040
     16 C          58.6118   90.2802    4.0735 C.3     1  UNL1        0.1122
     17 C          58.8915   90.2932    5.5783 C.3     1  UNL1        0.1122
     18 C          59.8374   91.3189    2.1258 C.ar    1  UNL1        0.0488
     19 C          60.9188   92.1583    1.8107 C.ar    1  UNL1        0.0154
     20 C          60.8991   92.9268    0.6441 C.ar    1  UNL1        0.0135
     21 C          59.8032   92.8659   -0.2232 C.ar    1  UNL1        0.0683
     22 CL         59.8153   93.8479   -1.6819 Cl      1  UNL1       -0.0814
     23 C          58.7185   92.0267    0.0819 C.ar    1  UNL1        0.0694
     24 CL         57.3244   91.9151   -0.9841 Cl      1  UNL1       -0.0813
     25 C          58.7402   91.2582    1.2518 C.ar    1  UNL1        0.0268
     26 C          59.2853   85.7911   12.9877 C.3     1  UNL1        0.1535
     27 C          58.5867   84.5102   12.5861 C.2     1  UNL1        0.2443
     28 O          57.3271   84.4719   12.5352 O.2     1  UNL1       -0.2730
     29 N          59.3674   83.3559   12.2302 N.am    1  UNL1       -0.2825
     30 H          60.3737   83.3490   12.5127 H       1  UNL1        0.1549
     31 C          58.8605   82.1881   11.5574 C.ar    1  UNL1        0.0532
     32 C          58.3517   82.2431   10.2480 C.ar    1  UNL1        0.0353
     33 C          57.9086   81.0726    9.6296 C.ar    1  UNL1        0.0998
     34 N          57.9813   79.8844   10.2842 N.ar    1  UNL1       -0.2456
     35 CA         58.4930   79.7890   11.5409 C.ar    1  UNL1        0.0897
     36 C          58.9382   80.9438   12.1991 C.ar    1  UNL1        0.0319
     37 C          58.5250   78.4570   12.2291 C.3     1  UNL1        0.1829
     38 O          58.8822   77.4540   11.3184 O.3     1  UNL1       -0.3760
     39 H          58.0739   77.2635   10.7739 H       1  UNL1        0.2110
     40 C          60.6545   85.4868   13.6234 C.3     1  UNL1        0.0569
     41 C          61.2307   86.7018   14.2954 C.ar    1  UNL1       -0.0017
     42 C          61.0423   87.0740   15.6232 C.ar    1  UNL1        0.0681
     43 N          61.8127   88.1426   15.9286 N.ar    1  UNL1       -0.3523
     44 C          62.4942   88.4414   14.8091 C.ar    1  UNL1        0.0563
     45 C          63.4468   89.4460   14.6438 C.ar    1  UNL1        0.0170
     46 C          64.0692   89.5618   13.3878 C.ar    1  UNL1        0.0015
     47 C          63.7300   88.6810   12.3373 C.ar    1  UNL1        0.0001
     48 C          62.7661   87.6756   12.5334 C.ar    1  UNL1        0.0012
     49 C          62.1665   87.5841   13.7899 C.ar    1  UNL1        0.0131
     50 H          61.8813   88.6190   16.8553 H       1  UNL1        0.1660
@<TRIPOS>BOND
     1     1     2    2
     2     2     3   am
     3     3    26    1
     4    26    40    1
     5    40    41    1
     6    41    42   ar
     7    42    43   ar
     8    43    44   ar
     9    44    45   ar
    10    45    46   ar
    11    46    47   ar
    12    47    48   ar
    13    48    49   ar
    14    26    27    1
    15    27    28    2
    16    27    29   am
    17    29    31    1
    18    31    32   ar
    19    32    33   ar
    20    33    34   ar
    21    34    35   ar
    22    35    37    1
    23    37    38    1
    24    35    36   ar
    25     2     5    1
    26     5     6   ar
    27     6     7   ar
    28     7     8   ar
    29     8    12    1
    30    12    13    1
    31    13    14    1
    32    14    15    1
    33    15    18    1
    34    18    19   ar
    35    19    20   ar
    36    20    21   ar
    37    21    22    1
    38    21    23   ar
    39    23    24    1
    40    23    25   ar
    41    15    16    1
    42    16    17    1
    43     8     9   ar
    44     9    10   ar
    45    10    11    1
    46    49    41   ar
    47    36    31   ar
    48    10     5   ar
    49    49    44   ar
    50    17    12    1
    51    25    18   ar
    52     3     4    1
    53    43    50    1
    54    29    30    1
    55    38    39    1
