@<TRIPOS>MOLECULE
*****
 35 39 0 0 0
SMALL
GASTEIGER

@<TRIPOS>ATOM
      1 C          48.2231   11.3794  -23.6922 C.2     1  UNL1        0.2490
      2 O          49.0247   10.6703  -24.3601 O.2     1  UNL1       -0.2699
      3 N          48.2015   11.2578  -22.2574 N.am    1  UNL1       -0.2760
      4 C          48.2384   12.4481  -21.4017 C.3     1  UNL1        0.0954
      5 C          49.5539   12.4833  -20.6093 C.3     1  UNL1        0.0399
      6 C          49.8729   11.1475  -19.8774 C.3     1  UNL1        0.0645
      7 C          49.7584    9.9664  -20.8806 C.3     1  UNL1        0.0399
      8 C          48.4163    9.9574  -21.6192 C.3     1  UNL1        0.0954
      9 C          48.8914   10.9202  -18.6689 C.3     1  UNL1        0.0477
     10 C          49.2556   11.7984  -17.5113 C.ar    1  UNL1        0.0220
     11 C          48.5289   12.1820  -16.4084 C.ar    1  UNL1        0.0923
     12 N          49.3704   12.8231  -15.5586 N.ar    1  UNL1       -0.2534
     13 N          50.6009   12.8236  -16.0644 N.ar    1  UNL1       -0.1651
     14 C          50.5291   12.1995  -17.2525 C.ar    1  UNL1        0.1515
     15 C          51.6132   11.8861  -18.1689 C.2     1  UNL1        0.2650
     16 O          52.8087   12.1682  -17.8918 O.2     1  UNL1       -0.2684
     17 N          51.2750   11.2192  -19.3956 N.am    1  UNL1       -0.3023
     18 H          52.0563   10.9481  -20.0352 H       1  UNL1        0.1497
     19 C          47.4714   15.2261  -26.7407 C.ar    1  UNL1        0.2252
     20 N          46.6016   16.0661  -27.3691 N.ar    1  UNL1       -0.2049
     21 C          45.2560   15.9656  -27.2134 C.ar    1  UNL1        0.1185
     22 BR         44.1083   17.1825  -28.1297 Br      1  UNL1       -0.0279
     23 C          44.7175   14.9780  -26.3876 C.ar    1  UNL1        0.0262
     24 C          45.5767   14.0941  -25.7232 C.ar    1  UNL1        0.0065
     25 C          45.0630   13.0955  -24.8849 C.ar    1  UNL1        0.0004
     26 C          45.9257   12.2163  -24.2267 C.ar    1  UNL1        0.0045
     27 C          47.3162   12.3145  -24.4005 C.ar    1  UNL1        0.0537
     28 C          47.8348   13.3253  -25.2290 C.ar    1  UNL1        0.0092
     29 C          46.9747   14.2135  -25.8979 C.ar    1  UNL1        0.0534
     30 C          49.5461   16.5814  -26.6693 C.3     1  UNL1        0.2542
     31 O          48.8510   15.3687  -26.9338 O.3     1  UNL1       -0.4561
     32 C          49.0135   13.3682  -14.2335 C.3     1  UNL1        0.0867
     33 C          48.0448   14.5547  -14.4047 C.3     1  UNL1        0.0244
     34 C          48.3426   12.2664  -13.3930 C.3     1  UNL1        0.0244
     35 C          50.2743   13.8644  -13.4930 C.3     1  UNL1        0.0244
@<TRIPOS>BOND
     1    30    31    1
     2    31    19    1
     3    19    20   ar
     4    20    21   ar
     5    21    22    1
     6    21    23   ar
     7    23    24   ar
     8    24    25   ar
     9    25    26   ar
    10    26    27   ar
    11    27     1    1
    12     1     2    2
    13     1     3   am
    14     3     4    1
    15     4     5    1
    16     5     6    1
    17     6     7    1
    18     7     8    1
    19     6     9    1
    20     9    10    1
    21    10    11   ar
    22    11    12   ar
    23    12    32    1
    24    32    33    1
    25    32    34    1
    26    32    35    1
    27    12    13   ar
    28    13    14   ar
    29    14    15    1
    30    15    16    2
    31    15    17   am
    32    27    28   ar
    33    28    29   ar
    34    29    19   ar
    35    29    24   ar
    36     8     3    1
    37    14    10   ar
    38    17     6    1
    39    17    18    1
@<TRIPOS>MOLECULE
*****
 35 39 0 0 0
SMALL
GASTEIGER

@<TRIPOS>ATOM
      1 C          48.7872   12.2708  -25.3721 C.2     1  UNL1        0.2490
      2 O          47.6992   12.4782  -25.9760 O.2     1  UNL1       -0.2699
      3 N          48.9379   12.7269  -24.0144 N.am    1  UNL1       -0.2760
      4 C          49.4656   11.8356  -22.9764 C.3     1  UNL1        0.0954
      5 C          48.3728   11.5330  -21.9402 C.3     1  UNL1        0.0399
      6 C          47.6599   12.8069  -21.4009 C.3     1  UNL1        0.0645
      7 C          47.1884   13.6821  -22.5952 C.3     1  UNL1        0.0399
      8 C          48.3223   13.9827  -23.5804 C.3     1  UNL1        0.0954
      9 C          48.6209   13.6393  -20.4740 C.3     1  UNL1        0.0477
     10 C          48.7669   12.9886  -19.1327 C.ar    1  UNL1        0.0220
     11 C          49.7155   13.1531  -18.1505 C.ar    1  UNL1        0.0923
     12 N          49.2957   12.4790  -17.0502 N.ar    1  UNL1       -0.2534
     13 N          48.1068   11.9315  -17.2885 N.ar    1  UNL1       -0.1651
     14 C          47.7866   12.2428  -18.5561 C.ar    1  UNL1        0.1515
     15 C          46.5608   11.9343  -19.2741 C.2     1  UNL1        0.2650
     16 O          45.6086   11.3280  -18.7160 O.2     1  UNL1       -0.2684
     17 N          46.4634   12.3679  -20.6401 N.am    1  UNL1       -0.3023
     18 H          45.5651   12.1915  -21.1453 H       1  UNL1        0.1497
     19 C          50.4040    8.7958  -28.5288 C.ar    1  UNL1        0.2252
     20 N          51.4464    8.1775  -29.1518 N.ar    1  UNL1       -0.2049
     21 C          52.7377    8.5400  -28.9371 C.ar    1  UNL1        0.1185
     22 BR         54.1381    7.6219  -29.8503 Br      1  UNL1       -0.0279
     23 C          53.0371    9.5776  -28.0535 C.ar    1  UNL1        0.0262
     24 C          51.9949   10.2394  -27.3924 C.ar    1  UNL1        0.0065
     25 C          52.2674   11.2823  -26.4969 C.ar    1  UNL1        0.0004
     26 C          51.2229   11.9390  -25.8424 C.ar    1  UNL1        0.0045
     27 C          49.8878   11.5705  -26.0769 C.ar    1  UNL1        0.0537
     28 C          49.6128   10.5143  -26.9633 C.ar    1  UNL1        0.0092
     29 C          50.6569    9.8487  -27.6290 C.ar    1  UNL1        0.0534
     30 C          48.5447    8.3129  -30.0961 C.3     1  UNL1        0.2542
     31 O          49.0892    8.3868  -28.7839 O.3     1  UNL1       -0.4561
     32 C          49.9950   12.4208  -15.7510 C.3     1  UNL1        0.0867
     33 C          49.7605   11.0450  -15.0971 C.3     1  UNL1        0.0244
     34 C          51.5025   12.6406  -15.9733 C.3     1  UNL1        0.0244
     35 C          49.4649   13.5153  -14.7995 C.3     1  UNL1        0.0244
@<TRIPOS>BOND
     1    30    31    1
     2    31    19    1
     3    19    20   ar
     4    20    21   ar
     5    21    22    1
     6    21    23   ar
     7    23    24   ar
     8    24    25   ar
     9    25    26   ar
    10    26    27   ar
    11    27     1    1
    12     1     2    2
    13     1     3   am
    14     3     4    1
    15     4     5    1
    16     5     6    1
    17     6     7    1
    18     7     8    1
    19     6     9    1
    20     9    10    1
    21    10    11   ar
    22    11    12   ar
    23    12    32    1
    24    32    33    1
    25    32    34    1
    26    32    35    1
    27    12    13   ar
    28    13    14   ar
    29    14    15    1
    30    15    16    2
    31    15    17   am
    32    27    28   ar
    33    28    29   ar
    34    29    19   ar
    35    29    24   ar
    36     8     3    1
    37    14    10   ar
    38    17     6    1
    39    17    18    1
@<TRIPOS>MOLECULE
*****
 35 39 0 0 0
SMALL
GASTEIGER

@<TRIPOS>ATOM
      1 C          46.3404   11.8948  -27.2050 C.2     1  UNL1        0.2490
      2 O          45.0987   12.1166  -27.1845 O.2     1  UNL1       -0.2699
      3 N          47.1916   12.5631  -26.2550 N.am    1  UNL1       -0.2760
      4 C          48.1869   11.8144  -25.4808 C.3     1  UNL1        0.0954
      5 C          47.8110   11.8282  -23.9915 C.3     1  UNL1        0.0399
      6 C          47.4991   13.2511  -23.4439 C.3     1  UNL1        0.0645
      7 C          46.4683   13.9499  -24.3732 C.3     1  UNL1        0.0399
      8 C          46.9061   13.9385  -25.8413 C.3     1  UNL1        0.0954
      9 C          48.8092   14.1174  -23.3506 C.3     1  UNL1        0.0477
     10 C          49.6434   13.7016  -22.1779 C.ar    1  UNL1        0.0220
     11 C          50.9696   13.9263  -21.8914 C.ar    1  UNL1        0.0923
     12 N          51.1964   13.5106  -20.6198 N.ar    1  UNL1       -0.2534
     13 N          50.0605   13.0707  -20.0845 N.ar    1  UNL1       -0.1651
     14 C          49.1167   13.1880  -21.0341 C.ar    1  UNL1        0.1515
     15 C          47.6955   12.9012  -20.9275 C.2     1  UNL1        0.2650
     16 O          47.1832   12.5174  -19.8431 O.2     1  UNL1       -0.2684
     17 N          46.8884   13.0949  -22.1001 N.am    1  UNL1       -0.3023
     18 H          45.8583   12.9370  -22.0151 H       1  UNL1        0.1497
     19 C          49.7760    8.6181  -28.6592 C.ar    1  UNL1        0.2252
     20 N          50.2525    7.7716  -29.6149 N.ar    1  UNL1       -0.2049
     21 C          49.6329    7.6075  -30.8125 C.ar    1  UNL1        0.1185
     22 BR         50.3668    6.4020  -32.0954 Br      1  UNL1       -0.0279
     23 C          48.4668    8.3173  -31.1017 C.ar    1  UNL1        0.0262
     24 C          47.9436    9.1979  -30.1468 C.ar    1  UNL1        0.0065
     25 C          46.7762    9.9261  -30.4125 C.ar    1  UNL1        0.0004
     26 C          46.2591   10.8013  -29.4548 C.ar    1  UNL1        0.0045
     27 C          46.8949   10.9585  -28.2121 C.ar    1  UNL1        0.0537
     28 C          48.0749   10.2405  -27.9490 C.ar    1  UNL1        0.0092
     29 C          48.6020    9.3552  -28.9054 C.ar    1  UNL1        0.0534
     30 C          51.5660    9.6168  -27.2646 C.3     1  UNL1        0.2542
     31 O          50.4498    8.7523  -27.4389 O.3     1  UNL1       -0.4561
     32 C          52.4791   13.6024  -19.8943 C.3     1  UNL1        0.0867
     33 C          53.6350   13.2021  -20.8320 C.3     1  UNL1        0.0244
     34 C          52.6846   15.0470  -19.4032 C.3     1  UNL1        0.0244
     35 C          52.4827   12.6544  -18.6755 C.3     1  UNL1        0.0244
@<TRIPOS>BOND
     1    30    31    1
     2    31    19    1
     3    19    20   ar
     4    20    21   ar
     5    21    22    1
     6    21    23   ar
     7    23    24   ar
     8    24    25   ar
     9    25    26   ar
    10    26    27   ar
    11    27     1    1
    12     1     2    2
    13     1     3   am
    14     3     4    1
    15     4     5    1
    16     5     6    1
    17     6     7    1
    18     7     8    1
    19     6     9    1
    20     9    10    1
    21    10    11   ar
    22    11    12   ar
    23    12    32    1
    24    32    33    1
    25    32    34    1
    26    32    35    1
    27    12    13   ar
    28    13    14   ar
    29    14    15    1
    30    15    16    2
    31    15    17   am
    32    27    28   ar
    33    28    29   ar
    34    29    19   ar
    35    29    24   ar
    36     8     3    1
    37    14    10   ar
    38    17     6    1
    39    17    18    1
@<TRIPOS>MOLECULE
*****
 35 39 0 0 0
SMALL
GASTEIGER

@<TRIPOS>ATOM
      1 C          48.2408   12.5462  -24.7217 C.2     1  UNL1        0.2490
      2 O          48.1286   11.5345  -25.4668 O.2     1  UNL1       -0.2699
      3 N          47.9695   12.4180  -23.3132 N.am    1  UNL1       -0.2760
      4 C          48.9041   12.9501  -22.3163 C.3     1  UNL1        0.0954
      5 C          49.5299   11.7974  -21.5168 C.3     1  UNL1        0.0399
      6 C          48.4828   10.7931  -20.9539 C.3     1  UNL1        0.0645
      7 C          47.5318   10.3406  -22.0965 C.3     1  UNL1        0.0399
      8 C          46.9086   11.5266  -22.8396 C.3     1  UNL1        0.0954
      9 C          47.6485   11.4441  -19.7895 C.3     1  UNL1        0.0477
     10 C          48.4553   11.5179  -18.5296 C.ar    1  UNL1        0.0220
     11 C          48.2828   12.2723  -17.3927 C.ar    1  UNL1        0.0923
     12 N          49.1699   11.8338  -16.4642 N.ar    1  UNL1       -0.2534
     13 N          49.8642   10.8118  -16.9577 N.ar    1  UNL1       -0.1651
     14 C          49.4278   10.6209  -18.2144 C.ar    1  UNL1        0.1515
     15 C          49.8250    9.5862  -19.1552 C.2     1  UNL1        0.2650
     16 O          50.6541    8.6935  -18.8371 O.2     1  UNL1       -0.2684
     17 N          49.2183    9.6033  -20.4573 N.am    1  UNL1       -0.3023
     18 H          49.4639    8.8330  -21.1203 H       1  UNL1        0.1497
     19 C          47.0920   16.9252  -26.7612 C.ar    1  UNL1        0.2252
     20 N          47.5043   18.1052  -27.3040 N.ar    1  UNL1       -0.2049
     21 C          48.8184   18.4206  -27.4409 C.ar    1  UNL1        0.1185
     22 BR         49.3101   20.0945  -28.2117 Br      1  UNL1       -0.0279
     23 C          49.8020   17.5246  -27.0203 C.ar    1  UNL1        0.0262
     24 C          49.4209   16.3004  -26.4570 C.ar    1  UNL1        0.0065
     25 C          50.3879   15.3805  -26.0297 C.ar    1  UNL1        0.0004
     26 C          50.0005   14.1623  -25.4672 C.ar    1  UNL1        0.0045
     27 C          48.6406   13.8450  -25.3148 C.ar    1  UNL1        0.0537
     28 C          47.6685   14.7599  -25.7568 C.ar    1  UNL1        0.0092
     29 C          48.0482   15.9898  -26.3219 C.ar    1  UNL1        0.0534
     30 C          44.9048   16.3080  -27.7520 C.3     1  UNL1        0.2542
     31 O          45.7252   16.6461  -26.6400 O.3     1  UNL1       -0.4561
     32 C          49.3018   12.3423  -15.0843 C.3     1  UNL1        0.0867
     33 C          48.6301   11.3612  -14.1036 C.3     1  UNL1        0.0244
     34 C          50.7942   12.4867  -14.7347 C.3     1  UNL1        0.0244
     35 C          48.6200   13.7209  -14.9462 C.3     1  UNL1        0.0244
@<TRIPOS>BOND
     1    30    31    1
     2    31    19    1
     3    19    20   ar
     4    20    21   ar
     5    21    22    1
     6    21    23   ar
     7    23    24   ar
     8    24    25   ar
     9    25    26   ar
    10    26    27   ar
    11    27     1    1
    12     1     2    2
    13     1     3   am
    14     3     4    1
    15     4     5    1
    16     5     6    1
    17     6     7    1
    18     7     8    1
    19     6     9    1
    20     9    10    1
    21    10    11   ar
    22    11    12   ar
    23    12    32    1
    24    32    33    1
    25    32    34    1
    26    32    35    1
    27    12    13   ar
    28    13    14   ar
    29    14    15    1
    30    15    16    2
    31    15    17   am
    32    27    28   ar
    33    28    29   ar
    34    29    19   ar
    35    29    24   ar
    36     8     3    1
    37    14    10   ar
    38    17     6    1
    39    17    18    1
@<TRIPOS>MOLECULE
*****
 35 39 0 0 0
SMALL
GASTEIGER

@<TRIPOS>ATOM
      1 C          52.4077   12.9515  -20.0392 C.2     1  UNL1        0.2490
      2 O          53.6679   12.9754  -20.0918 O.2     1  UNL1       -0.2699
      3 N          51.6473   13.2053  -21.2356 N.am    1  UNL1       -0.2760
      4 C          50.5479   12.3184  -21.6296 C.3     1  UNL1        0.0954
      5 C          50.9044   11.5893  -22.9338 C.3     1  UNL1        0.0399
      6 C          51.4061   12.5405  -24.0587 C.3     1  UNL1        0.0645
      7 C          52.5354   13.4513  -23.5023 C.3     1  UNL1        0.0399
      8 C          52.1177   14.1806  -22.2214 C.3     1  UNL1        0.0954
      9 C          50.2292   13.4255  -24.6132 C.3     1  UNL1        0.0477
     10 C          49.3312   12.6240  -25.5049 C.ar    1  UNL1        0.0220
     11 C          48.0463   12.8593  -25.9350 C.ar    1  UNL1        0.0923
     12 N          47.7485   11.9332  -26.8811 N.ar    1  UNL1       -0.2534
     13 N          48.8052   11.1521  -27.0896 N.ar    1  UNL1       -0.1651
     14 C          49.7673   11.5742  -26.2514 C.ar    1  UNL1        0.1515
     15 C          51.1329   11.0895  -26.1355 C.2     1  UNL1        0.2650
     16 O          51.5735   10.1828  -26.8901 O.2     1  UNL1       -0.2684
     17 N          51.9729   11.6998  -25.1427 N.am    1  UNL1       -0.3023
     18 H          52.9697   11.3888  -25.0885 H       1  UNL1        0.1497
     19 C          48.5278   11.2828  -17.4282 C.ar    1  UNL1        0.2252
     20 N          47.9496   11.0460  -16.2172 N.ar    1  UNL1       -0.2049
     21 C          48.5723   11.3400  -15.0463 C.ar    1  UNL1        0.1185
     22 BR         47.6918   10.9766  -13.3939 Br      1  UNL1       -0.0279
     23 C          49.8483   11.9048  -15.0534 C.ar    1  UNL1        0.0262
     24 C          50.4782   12.1644  -16.2769 C.ar    1  UNL1        0.0065
     25 C          51.7578   12.7346  -16.3130 C.ar    1  UNL1        0.0004
     26 C          52.3807   12.9892  -17.5369 C.ar    1  UNL1        0.0045
     27 C          51.7394   12.6715  -18.7456 C.ar    1  UNL1        0.0537
     28 C          50.4492   12.1134  -18.7122 C.ar    1  UNL1        0.0092
     29 C          49.8147   11.8510  -17.4855 C.ar    1  UNL1        0.0534
     30 C          46.9864   11.8764  -19.2771 C.3     1  UNL1        0.2542
     31 O          47.8461   10.9612  -18.6083 O.3     1  UNL1       -0.4561
     32 C          46.4828   11.8424  -27.6360 C.3     1  UNL1        0.0867
     33 C          46.5864   10.7219  -28.6892 C.3     1  UNL1        0.0244
     34 C          45.3297   11.5363  -26.6629 C.3     1  UNL1        0.0244
     35 C          46.1860   13.1734  -28.3605 C.3     1  UNL1        0.0244
@<TRIPOS>BOND
     1    30    31    1
     2    31    19    1
     3    19    20   ar
     4    20    21   ar
     5    21    22    1
     6    21    23   ar
     7    23    24   ar
     8    24    25   ar
     9    25    26   ar
    10    26    27   ar
    11    27     1    1
    12     1     2    2
    13     1     3   am
    14     3     4    1
    15     4     5    1
    16     5     6    1
    17     6     7    1
    18     7     8    1
    19     6     9    1
    20     9    10    1
    21    10    11   ar
    22    11    12   ar
    23    12    32    1
    24    32    33    1
    25    32    34    1
    26    32    35    1
    27    12    13   ar
    28    13    14   ar
    29    14    15    1
    30    15    16    2
    31    15    17   am
    32    27    28   ar
    33    28    29   ar
    34    29    19   ar
    35    29    24   ar
    36     8     3    1
    37    14    10   ar
    38    17     6    1
    39    17    18    1
@<TRIPOS>MOLECULE
*****
 35 39 0 0 0
SMALL
GASTEIGER

@<TRIPOS>ATOM
      1 C          46.7422   12.6628  -24.3187 C.2     1  UNL1        0.2490
      2 O          46.4657   11.6411  -25.0052 O.2     1  UNL1       -0.2699
      3 N          46.7983   12.5540  -22.8838 N.am    1  UNL1       -0.2760
      4 C          47.9339   13.0986  -22.1327 C.3     1  UNL1        0.0954
      5 C          48.7274   11.9563  -21.4809 C.3     1  UNL1        0.0399
      6 C          47.8378   10.9608  -20.6813 C.3     1  UNL1        0.0645
      7 C          46.6530   10.4938  -21.5717 C.3     1  UNL1        0.0399
      8 C          45.8747   11.6701  -22.1696 C.3     1  UNL1        0.0954
      9 C          47.2885   11.6284  -19.3667 C.3     1  UNL1        0.0477
     10 C          48.3604   11.7185  -18.3241 C.ar    1  UNL1        0.0220
     11 C          48.4491   12.4885  -17.1880 C.ar    1  UNL1        0.0923
     12 N          49.5250   12.0618  -16.4797 N.ar    1  UNL1       -0.2534
     13 N          50.0912   11.0325  -17.1042 N.ar    1  UNL1       -0.1651
     14 C          49.3810   10.8250  -18.2262 C.ar    1  UNL1        0.1515
     15 C          49.5562    9.7772  -19.2186 C.2     1  UNL1        0.2650
     16 O          50.4378    8.8881  -19.0853 O.2     1  UNL1       -0.2684
     17 N          48.6695    9.7772  -20.3489 N.am    1  UNL1       -0.3023
     18 H          48.7596    8.9977  -21.0399 H       1  UNL1        0.1497
     19 C          49.8039   16.3166  -25.7081 C.ar    1  UNL1        0.2252
     20 N          49.9891   17.5062  -26.3466 N.ar    1  UNL1       -0.2049
     21 C          48.9715   18.1685  -26.9555 C.ar    1  UNL1        0.1185
     22 BR         49.3168   19.8295  -27.8271 Br      1  UNL1       -0.0279
     23 C          47.6816   17.6364  -26.9426 C.ar    1  UNL1        0.0262
     24 C          47.4481   16.4158  -26.2972 C.ar    1  UNL1        0.0065
     25 C          46.1618   15.8606  -26.2658 C.ar    1  UNL1        0.0004
     26 C          45.9366   14.6420  -25.6218 C.ar    1  UNL1        0.0045
     27 C          46.9939   13.9530  -25.0046 C.ar    1  UNL1        0.0537
     28 C          48.2824   14.5155  -25.0216 C.ar    1  UNL1        0.0092
     29 C          48.5199   15.7404  -25.6694 C.ar    1  UNL1        0.0534
     30 C          50.9686   15.4697  -23.6900 C.3     1  UNL1        0.2542
     31 O          50.8852   15.6709  -25.0958 O.3     1  UNL1       -0.4561
     32 C          49.9660   12.5890  -15.1728 C.3     1  UNL1        0.0867
     33 C          51.4449   13.0146  -15.2576 C.3     1  UNL1        0.0244
     34 C          49.0969   13.8017  -14.7929 C.3     1  UNL1        0.0244
     35 C          49.8259   11.5102  -14.0769 C.3     1  UNL1        0.0244
@<TRIPOS>BOND
     1    30    31    1
     2    31    19    1
     3    19    20   ar
     4    20    21   ar
     5    21    22    1
     6    21    23   ar
     7    23    24   ar
     8    24    25   ar
     9    25    26   ar
    10    26    27   ar
    11    27     1    1
    12     1     2    2
    13     1     3   am
    14     3     4    1
    15     4     5    1
    16     5     6    1
    17     6     7    1
    18     7     8    1
    19     6     9    1
    20     9    10    1
    21    10    11   ar
    22    11    12   ar
    23    12    32    1
    24    32    33    1
    25    32    34    1
    26    32    35    1
    27    12    13   ar
    28    13    14   ar
    29    14    15    1
    30    15    16    2
    31    15    17   am
    32    27    28   ar
    33    28    29   ar
    34    29    19   ar
    35    29    24   ar
    36     8     3    1
    37    14    10   ar
    38    17     6    1
    39    17    18    1
@<TRIPOS>MOLECULE
*****
 35 39 0 0 0
SMALL
GASTEIGER

@<TRIPOS>ATOM
      1 C          52.7339   10.8476  -27.3797 C.2     1  UNL1        0.2490
      2 O          53.6576   11.6348  -27.7239 O.2     1  UNL1       -0.2699
      3 N          52.2455   10.8832  -26.0254 N.am    1  UNL1       -0.2760
      4 C          50.8068   10.9329  -25.7464 C.3     1  UNL1        0.0954
      5 C          50.4449   12.2770  -25.0969 C.3     1  UNL1        0.0399
      6 C          51.3536   12.6463  -23.8886 C.3     1  UNL1        0.0645
      7 C          52.8456   12.5133  -24.3020 C.3     1  UNL1        0.0399
      8 C          53.1610   11.1441  -24.9126 C.3     1  UNL1        0.0954
      9 C          51.0550   11.7159  -22.6554 C.3     1  UNL1        0.0477
     10 C          49.7740   12.1094  -21.9859 C.ar    1  UNL1        0.0220
     11 C          48.9647   11.4192  -21.1141 C.ar    1  UNL1        0.0923
     12 N          48.0280   12.2817  -20.6452 N.ar    1  UNL1       -0.2534
     13 N          48.2395   13.4918  -21.1562 N.ar    1  UNL1       -0.1651
     14 C          49.3025   13.3849  -21.9716 C.ar    1  UNL1        0.1515
     15 C          49.9706   14.4382  -22.7184 C.2     1  UNL1        0.2650
     16 O          49.5994   15.6385  -22.6345 O.2     1  UNL1       -0.2684
     17 N          51.0883   14.0644  -23.5398 N.am    1  UNL1       -0.3023
     18 H          51.6022   14.8251  -24.0402 H       1  UNL1        0.1497
     19 C          48.8795    8.5849  -29.5427 C.ar    1  UNL1        0.2252
     20 N          48.4135    7.7000  -30.4684 N.ar    1  UNL1       -0.2049
     21 C          49.2434    7.0019  -31.2864 C.ar    1  UNL1        0.1185
     22 BR         48.5084    5.7822  -32.5553 Br      1  UNL1       -0.0279
     23 C          50.6250    7.1762  -31.1978 C.ar    1  UNL1        0.0262
     24 C          51.1454    8.0762  -30.2595 C.ar    1  UNL1        0.0065
     25 C          52.5290    8.2678  -30.1467 C.ar    1  UNL1        0.0004
     26 C          53.0408    9.1683  -29.2098 C.ar    1  UNL1        0.0045
     27 C          52.1792    9.8986  -28.3747 C.ar    1  UNL1        0.0537
     28 C          50.7913    9.6968  -28.4755 C.ar    1  UNL1        0.0092
     29 C          50.2661    8.7946  -29.4171 C.ar    1  UNL1        0.0534
     30 C          46.9942   10.1655  -29.2367 C.3     1  UNL1        0.2542
     31 O          47.9839    9.2822  -28.7227 O.3     1  UNL1       -0.4561
     32 C          46.9793   11.9668  -19.6545 C.3     1  UNL1        0.0867
     33 C          47.2024   10.5474  -19.0968 C.3     1  UNL1        0.0244
     34 C          47.0381   12.9914  -18.5069 C.3     1  UNL1        0.0244
     35 C          45.5809   12.0257  -20.3067 C.3     1  UNL1        0.0244
@<TRIPOS>BOND
     1    30    31    1
     2    31    19    1
     3    19    20   ar
     4    20    21   ar
     5    21    22    1
     6    21    23   ar
     7    23    24   ar
     8    24    25   ar
     9    25    26   ar
    10    26    27   ar
    11    27     1    1
    12     1     2    2
    13     1     3   am
    14     3     4    1
    15     4     5    1
    16     5     6    1
    17     6     7    1
    18     7     8    1
    19     6     9    1
    20     9    10    1
    21    10    11   ar
    22    11    12   ar
    23    12    32    1
    24    32    33    1
    25    32    34    1
    26    32    35    1
    27    12    13   ar
    28    13    14   ar
    29    14    15    1
    30    15    16    2
    31    15    17   am
    32    27    28   ar
    33    28    29   ar
    34    29    19   ar
    35    29    24   ar
    36     8     3    1
    37    14    10   ar
    38    17     6    1
    39    17    18    1
@<TRIPOS>MOLECULE
*****
 35 39 0 0 0
SMALL
GASTEIGER

@<TRIPOS>ATOM
      1 C          51.9393   10.1623  -27.4408 C.2     1  UNL1        0.2490
      2 O          52.9811   10.7362  -27.8610 O.2     1  UNL1       -0.2699
      3 N          51.5973   10.2556  -26.0450 N.am    1  UNL1       -0.2760
      4 C          50.2383   10.6140  -25.6266 C.3     1  UNL1        0.0954
      5 C          50.2492   11.9800  -24.9241 C.3     1  UNL1        0.0399
      6 C          51.3242   12.0928  -23.8045 C.3     1  UNL1        0.0645
      7 C          52.7037   11.6464  -24.3631 C.3     1  UNL1        0.0399
      8 C          52.6457   10.2648  -25.0227 C.3     1  UNL1        0.0954
      9 C          50.9377   11.2072  -22.5626 C.3     1  UNL1        0.0477
     10 C          49.8449   11.8510  -21.7656 C.ar    1  UNL1        0.0220
     11 C          48.9840   11.3265  -20.8301 C.ar    1  UNL1        0.0923
     12 N          48.3124   12.3580  -20.2588 N.ar    1  UNL1       -0.2534
     13 N          48.7433   13.5087  -20.7692 N.ar    1  UNL1       -0.1651
     14 C          49.6759   13.1980  -21.6857 C.ar    1  UNL1        0.1515
     15 C          50.4929   14.1030  -22.4775 C.2     1  UNL1        0.2650
     16 O          50.4108   15.3520  -22.3392 O.2     1  UNL1       -0.2684
     17 N          51.4180   13.5205  -23.4095 N.am    1  UNL1       -0.3023
     18 H          52.0421   14.1656  -23.9456 H       1  UNL1        0.1497
     19 C          51.4456    7.2407  -31.4252 C.ar    1  UNL1        0.2252
     20 N          50.6329    6.5554  -32.2778 N.ar    1  UNL1       -0.2049
     21 C          49.2816    6.5441  -32.1399 C.ar    1  UNL1        0.1185
     22 BR         48.2165    5.5589  -33.3779 Br      1  UNL1       -0.0279
     23 C          48.6772    7.2497  -31.0987 C.ar    1  UNL1        0.0262
     24 C          49.4763    7.9672  -30.2000 C.ar    1  UNL1        0.0065
     25 C          48.8954    8.6875  -29.1477 C.ar    1  UNL1        0.0004
     26 C          49.6986    9.3995  -28.2542 C.ar    1  UNL1        0.0045
     27 C          51.0966    9.3981  -28.3918 C.ar    1  UNL1        0.0537
     28 C          51.6809    8.6886  -29.4559 C.ar    1  UNL1        0.0092
     29 C          50.8812    7.9668  -30.3591 C.ar    1  UNL1        0.0534
     30 C          53.4800    6.3381  -32.5172 C.3     1  UNL1        0.2542
     31 O          52.8337    7.2209  -31.6080 O.3     1  UNL1       -0.4561
     32 C          47.3148   12.2481  -19.1758 C.3     1  UNL1        0.0867
     33 C          47.3877   13.4965  -18.2749 C.3     1  UNL1        0.0244
     34 C          45.9075   12.1310  -19.7891 C.3     1  UNL1        0.0244
     35 C          47.5887   10.9992  -18.3101 C.3     1  UNL1        0.0244
@<TRIPOS>BOND
     1    30    31    1
     2    31    19    1
     3    19    20   ar
     4    20    21   ar
     5    21    22    1
     6    21    23   ar
     7    23    24   ar
     8    24    25   ar
     9    25    26   ar
    10    26    27   ar
    11    27     1    1
    12     1     2    2
    13     1     3   am
    14     3     4    1
    15     4     5    1
    16     5     6    1
    17     6     7    1
    18     7     8    1
    19     6     9    1
    20     9    10    1
    21    10    11   ar
    22    11    12   ar
    23    12    32    1
    24    32    33    1
    25    32    34    1
    26    32    35    1
    27    12    13   ar
    28    13    14   ar
    29    14    15    1
    30    15    16    2
    31    15    17   am
    32    27    28   ar
    33    28    29   ar
    34    29    19   ar
    35    29    24   ar
    36     8     3    1
    37    14    10   ar
    38    17     6    1
    39    17    18    1
@<TRIPOS>MOLECULE
*****
 35 39 0 0 0
SMALL
GASTEIGER

@<TRIPOS>ATOM
      1 C          48.7360   13.8010  -23.7268 C.2     1  UNL1        0.2490
      2 O          49.3681   13.1127  -24.5743 O.2     1  UNL1       -0.2699
      3 N          48.6107   13.3158  -22.3767 N.am    1  UNL1       -0.2760
      4 C          48.9000   14.1887  -21.2345 C.3     1  UNL1        0.0954
      5 C          50.1398   13.6779  -20.4852 C.3     1  UNL1        0.0399
      6 C          50.0763   12.1610  -20.1432 C.3     1  UNL1        0.0645
      7 C          49.7220   11.3551  -21.4237 C.3     1  UNL1        0.0399
      8 C          48.4602   11.8831  -22.1137 C.3     1  UNL1        0.0954
      9 C          49.0081   11.8815  -19.0223 C.3     1  UNL1        0.0477
     10 C          49.5201   12.3013  -17.6786 C.ar    1  UNL1        0.0220
     11 C          48.8566   12.5531  -16.5006 C.ar    1  UNL1        0.0923
     12 N          49.7866   12.7117  -15.5253 N.ar    1  UNL1       -0.2534
     13 N          51.0026   12.5318  -16.0343 N.ar    1  UNL1       -0.1651
     14 C          50.8383   12.2820  -17.3446 C.ar    1  UNL1        0.1515
     15 C          51.8554   11.9553  -18.3306 C.2     1  UNL1        0.2650
     16 O          53.0676   11.8403  -18.0094 O.2     1  UNL1       -0.2684
     17 N          51.4249   11.7438  -19.6848 N.am    1  UNL1       -0.3023
     18 H          52.1456   11.4607  -20.3874 H       1  UNL1        0.1497
     19 C          49.1578   18.4873  -25.3130 C.ar    1  UNL1        0.2252
     20 N          48.5582   19.6535  -25.6839 N.ar    1  UNL1       -0.2049
     21 C          47.2085   19.8061  -25.6866 C.ar    1  UNL1        0.1185
     22 BR         46.4501   21.4729  -26.2201 Br      1  UNL1       -0.0279
     23 C          46.3826   18.7496  -25.3007 C.ar    1  UNL1        0.0262
     24 C          46.9585   17.5337  -24.9120 C.ar    1  UNL1        0.0065
     25 C          46.1528   16.4576  -24.5162 C.ar    1  UNL1        0.0004
     26 C          46.7340   15.2474  -24.1315 C.ar    1  UNL1        0.0045
     27 C          48.1297   15.0885  -24.1429 C.ar    1  UNL1        0.0537
     28 C          48.9408   16.1717  -24.5249 C.ar    1  UNL1        0.0092
     29 C          48.3654   17.3932  -24.9163 C.ar    1  UNL1        0.0534
     30 C          51.2826   17.9561  -26.4745 C.3     1  UNL1        0.2542
     31 O          50.5537   18.3780  -25.3280 O.3     1  UNL1       -0.4561
     32 C          49.5095   12.9611  -14.0966 C.3     1  UNL1        0.0867
     33 C          48.9653   11.6762  -13.4419 C.3     1  UNL1        0.0244
     34 C          50.8091   13.3927  -13.3930 C.3     1  UNL1        0.0244
     35 C          48.4576   14.0799  -13.9348 C.3     1  UNL1        0.0244
@<TRIPOS>BOND
     1    30    31    1
     2    31    19    1
     3    19    20   ar
     4    20    21   ar
     5    21    22    1
     6    21    23   ar
     7    23    24   ar
     8    24    25   ar
     9    25    26   ar
    10    26    27   ar
    11    27     1    1
    12     1     2    2
    13     1     3   am
    14     3     4    1
    15     4     5    1
    16     5     6    1
    17     6     7    1
    18     7     8    1
    19     6     9    1
    20     9    10    1
    21    10    11   ar
    22    11    12   ar
    23    12    32    1
    24    32    33    1
    25    32    34    1
    26    32    35    1
    27    12    13   ar
    28    13    14   ar
    29    14    15    1
    30    15    16    2
    31    15    17   am
    32    27    28   ar
    33    28    29   ar
    34    29    19   ar
    35    29    24   ar
    36     8     3    1
    37    14    10   ar
    38    17     6    1
    39    17    18    1
