@<TRIPOS>MOLECULE
*****
 51 57 0 0 0
SMALL
GASTEIGER

@<TRIPOS>ATOM
      1 C          59.0871   83.4673   13.0936 C.ar    1  UNL1        0.0481
      2 C          58.1929   83.8728   12.0908 C.ar    1  UNL1        0.0176
      3 C          57.6871   82.9454   11.1774 C.ar    1  UNL1        0.0382
      4 C          58.0712   81.6007   11.2344 C.ar    1  UNL1        0.1388
      5 C          58.9583   81.1894   12.2497 C.ar    1  UNL1        0.0382
      6 C          59.4653   82.1177   13.1637 C.ar    1  UNL1        0.0176
      7 N          61.1886   86.6577   14.4509 N.pl3   1  UNL1       -0.3041
      8 C          61.5125   85.4743   15.2606 C.3     1  UNL1        0.1122
      9 C          60.9853   84.2132   14.5662 C.3     1  UNL1        0.1122
     10 N          59.6371   84.4284   14.0150 N.pl3   1  UNL1       -0.3041
     11 C          58.9147   85.6696   14.3290 C.3     1  UNL1        0.1122
     12 C          59.8018   86.8781   14.0077 C.3     1  UNL1        0.1122
     13 C          64.2267   89.3536   13.1548 C.ar    1  UNL1        0.0699
     14 C          63.9693   89.1724   14.5241 C.ar    1  UNL1        0.0190
     15 C          62.9740   88.2882   14.9489 C.ar    1  UNL1        0.0160
     16 C          62.2249   87.5575   14.0135 C.ar    1  UNL1        0.0480
     17 C          62.4823   87.7355   12.6447 C.ar    1  UNL1        0.0160
     18 C          63.4757   88.6217   12.2192 C.ar    1  UNL1        0.0190
     19 N          66.5678   91.5805   11.4996 N.ar    1  UNL1       -0.2024
     20 N          66.9946   91.6714   12.7503 N.ar    1  UNL1       -0.1442
     21 C          66.1919   90.8734   13.4875 C.ar    1  UNL1        0.2073
     22 N          65.2559   90.2653   12.7239 N.ar    1  UNL1       -0.2398
     23 C          65.5175   90.7362   11.4885 C.ar    1  UNL1        0.3522
     24 O          64.8448   90.4533   10.4605 O.2     1  UNL1       -0.2444
     25 C          67.1670   92.3134   10.3780 C.3     1  UNL1        0.1099
     26 C          66.2188   93.4241    9.9066 C.3     1  UNL1        0.0265
     27 C          69.0495   91.2869    8.9846 C.3     1  UNL1        0.0021
     28 C          67.5437   91.3376    9.2433 C.3     1  UNL1        0.0245
     29 O          57.5496   80.7267   10.2634 O.3     1  UNL1       -0.4727
     30 C          58.1821   80.3334    9.0414 C.3     1  UNL1        0.2374
     31 C          58.7580   81.5339    8.2743 C.3     1  UNL1        0.1909
     32 C          59.6256   81.1710    7.1058 C.3     1  UNL1        0.1783
     33 O          60.5674   82.1899    7.0095 O.3     1  UNL1       -0.3271
     34 C          60.5512   82.8684    8.2540 C.3     1  UNL1        0.2232
     35 O          59.5615   82.3132    9.1005 O.3     1  UNL1       -0.3258
     36 C          60.2675   84.3578    8.0335 C.ar    1  UNL1        0.0404
     37 C          58.9355   84.8020    7.8788 C.ar    1  UNL1        0.0021
     38 C          58.6486   86.1501    7.6574 C.ar    1  UNL1        0.0113
     39 C          59.6818   87.0812    7.5664 C.ar    1  UNL1        0.0585
     40 CL         59.3164   88.7737    7.2851 Cl      1  UNL1       -0.0822
     41 C          61.0074   86.6625    7.6839 C.ar    1  UNL1        0.0226
     42 C          61.3123   85.3135    7.9052 C.ar    1  UNL1        0.0591
     43 CL         63.0204   84.8817    7.9778 Cl      1  UNL1       -0.0824
     44 C          61.9360   82.7037    8.9087 C.3     1  UNL1        0.1338
     45 N          61.7793   82.3403   10.3391 N.3     1  UNL1       -0.2659
     46 C          62.3614   83.3260   11.2808 C.3     1  UNL1        0.0896
     47 C          63.7735   82.9396   11.7694 C.3     1  UNL1        0.0862
     48 N          64.4651   82.0860   10.7997 N.3     1  UNL1       -0.2951
     49 C          63.7525   80.8140   10.5953 C.3     1  UNL1        0.0862
     50 C          62.2142   80.9633   10.6382 C.3     1  UNL1        0.0896
     51 H          64.5369   82.5964    9.8885 H       1  UNL1        0.1233
@<TRIPOS>BOND
     1    27    28    1
     2    28    25    1
     3    25    26    1
     4    25    19    1
     5    19    20   ar
     6    20    21   ar
     7    21    22   ar
     8    22    13    1
     9    13    14   ar
    10    14    15   ar
    11    15    16   ar
    12    16     7    1
    13     7     8    1
    14     8     9    1
    15     9    10    1
    16    10     1    1
    17     1     2   ar
    18     2     3   ar
    19     3     4   ar
    20     4    29    1
    21    29    30    1
    22    30    31    1
    23    31    32    1
    24    32    33    1
    25    33    34    1
    26    34    44    1
    27    44    45    1
    28    45    46    1
    29    46    47    1
    30    47    48    1
    31    48    49    1
    32    49    50    1
    33    34    36    1
    34    36    37   ar
    35    37    38   ar
    36    38    39   ar
    37    39    40    1
    38    39    41   ar
    39    41    42   ar
    40    42    43    1
    41    34    35    1
    42     4     5   ar
    43     5     6   ar
    44    10    11    1
    45    11    12    1
    46    16    17   ar
    47    17    18   ar
    48    22    23   ar
    49    23    24    2
    50    23    19   ar
    51    18    13   ar
    52    12     7    1
    53     6     1   ar
    54    35    31    1
    55    50    45    1
    56    42    36   ar
    57    48    51    1
@<TRIPOS>MOLECULE
*****
 51 57 0 0 0
SMALL
GASTEIGER

@<TRIPOS>ATOM
      1 C          59.2709   83.2753    8.1351 C.ar    1  UNL1        0.0481
      2 C          59.8528   82.0652    7.7268 C.ar    1  UNL1        0.0176
      3 C          59.2254   80.8493    8.0064 C.ar    1  UNL1        0.0382
      4 C          58.0155   80.8121    8.7091 C.ar    1  UNL1        0.1388
      5 C          57.4229   82.0274    9.1075 C.ar    1  UNL1        0.0382
      6 C          58.0511   83.2446    8.8284 C.ar    1  UNL1        0.0176
      7 N          61.5491   86.5681    8.7707 N.pl3   1  UNL1       -0.3041
      8 C          60.2519   86.9684    8.2068 C.3     1  UNL1        0.1122
      9 C          59.2761   85.7874    8.2665 C.3     1  UNL1        0.1122
     10 N          59.9335   84.5284    7.8784 N.pl3   1  UNL1       -0.3041
     11 C          61.2978   84.5609    7.3322 C.3     1  UNL1        0.1122
     12 C          62.2126   85.3504    8.2757 C.3     1  UNL1        0.1122
     13 C          63.3278   88.7240   11.9905 C.ar    1  UNL1        0.0699
     14 C          63.3792   89.2268   10.6796 C.ar    1  UNL1        0.0190
     15 C          62.7955   88.5206    9.6243 C.ar    1  UNL1        0.0160
     16 C          62.1373   87.3036    9.8607 C.ar    1  UNL1        0.0480
     17 C          62.0828   86.8007   11.1706 C.ar    1  UNL1        0.0160
     18 C          62.6687   87.5052   12.2258 C.ar    1  UNL1        0.0190
     19 N          65.2877   90.7224   14.3023 N.ar    1  UNL1       -0.2024
     20 N          64.2808   90.3679   15.0867 N.ar    1  UNL1       -0.1442
     21 C          63.4597   89.6040   14.3337 C.ar    1  UNL1        0.2073
     22 N          63.9298   89.4585   13.0740 N.ar    1  UNL1       -0.2398
     23 C          65.0703   90.1765   13.0895 C.ar    1  UNL1        0.3522
     24 O          65.8191   90.3468   12.0897 O.2     1  UNL1       -0.2444
     25 C          66.3988   91.5769   14.7374 C.3     1  UNL1        0.1099
     26 C          66.6142   92.7156   13.7314 C.3     1  UNL1        0.0265
     27 C          68.8795   91.5735   15.3584 C.3     1  UNL1        0.0021
     28 C          67.6709   90.7300   14.9519 C.3     1  UNL1        0.0245
     29 O          57.4550   79.5519    8.9859 O.3     1  UNL1       -0.4727
     30 C          57.5985   78.8010   10.1956 C.3     1  UNL1        0.2374
     31 C          58.8070   79.2632   11.0246 C.3     1  UNL1        0.1909
     32 C          58.7816   78.8314   12.4609 C.3     1  UNL1        0.1783
     33 O          59.4366   79.8365   13.1645 O.3     1  UNL1       -0.3271
     34 C          59.4651   80.9684   12.3116 C.3     1  UNL1        0.2232
     35 O          58.8844   80.6518   11.0598 O.3     1  UNL1       -0.3258
     36 C          60.9108   81.4334   12.1086 C.ar    1  UNL1        0.0404
     37 C          61.2917   82.0232   10.8829 C.ar    1  UNL1        0.0021
     38 C          62.6062   82.4386   10.6629 C.ar    1  UNL1        0.0113
     39 C          63.5730   82.2587   11.6507 C.ar    1  UNL1        0.0585
     40 CL         65.2242   82.7797   11.3685 Cl      1  UNL1       -0.0822
     41 C          63.2289   81.6498   12.8577 C.ar    1  UNL1        0.0226
     42 C          61.9149   81.2263   13.0938 C.ar    1  UNL1        0.0591
     43 CL         61.6001   80.4142   14.6270 Cl      1  UNL1       -0.0824
     44 C          58.6555   82.0949   12.9815 C.3     1  UNL1        0.1338
     45 N          59.1226   83.4149   12.4896 N.3     1  UNL1       -0.2659
     46 C          60.0398   84.1167   13.4190 C.3     1  UNL1        0.0896
     47 C          59.3277   85.1651   14.2998 C.3     1  UNL1        0.0862
     48 N          57.9117   84.8387   14.4888 N.3     1  UNL1       -0.2951
     49 C          57.1835   84.8329   13.2093 C.3     1  UNL1        0.0862
     50 C          58.0234   84.2851   12.0324 C.3     1  UNL1        0.0896
     51 H          57.8376   83.8956   14.9371 H       1  UNL1        0.1233
@<TRIPOS>BOND
     1    27    28    1
     2    28    25    1
     3    25    26    1
     4    25    19    1
     5    19    20   ar
     6    20    21   ar
     7    21    22   ar
     8    22    13    1
     9    13    14   ar
    10    14    15   ar
    11    15    16   ar
    12    16     7    1
    13     7     8    1
    14     8     9    1
    15     9    10    1
    16    10     1    1
    17     1     2   ar
    18     2     3   ar
    19     3     4   ar
    20     4    29    1
    21    29    30    1
    22    30    31    1
    23    31    32    1
    24    32    33    1
    25    33    34    1
    26    34    44    1
    27    44    45    1
    28    45    46    1
    29    46    47    1
    30    47    48    1
    31    48    49    1
    32    49    50    1
    33    34    36    1
    34    36    37   ar
    35    37    38   ar
    36    38    39   ar
    37    39    40    1
    38    39    41   ar
    39    41    42   ar
    40    42    43    1
    41    34    35    1
    42     4     5   ar
    43     5     6   ar
    44    10    11    1
    45    11    12    1
    46    16    17   ar
    47    17    18   ar
    48    22    23   ar
    49    23    24    2
    50    23    19   ar
    51    18    13   ar
    52    12     7    1
    53     6     1   ar
    54    35    31    1
    55    50    45    1
    56    42    36   ar
    57    48    51    1
@<TRIPOS>MOLECULE
*****
 51 57 0 0 0
SMALL
GASTEIGER

@<TRIPOS>ATOM
      1 C          58.4391   82.7977   12.6342 C.ar    1  UNL1        0.0481
      2 C          58.1111   82.3886   11.3324 C.ar    1  UNL1        0.0176
      3 C          58.1252   81.0343   10.9924 C.ar    1  UNL1        0.0382
      4 C          58.4791   80.0622   11.9352 C.ar    1  UNL1        0.1388
      5 C          58.7952   80.4706   13.2468 C.ar    1  UNL1        0.0382
      6 C          58.7819   81.8263   13.5873 C.ar    1  UNL1        0.0176
      7 N          59.7623   86.6186   12.9295 N.pl3   1  UNL1       -0.3041
      8 C          59.3173   86.1483   14.2493 C.3     1  UNL1        0.1122
      9 C          59.1252   84.6276   14.2181 C.3     1  UNL1        0.1122
     10 N          58.4591   84.1966   12.9778 N.pl3   1  UNL1       -0.3041
     11 C          57.9171   85.2061   12.0570 C.3     1  UNL1        0.1122
     12 C          59.0011   86.2389   11.7276 C.3     1  UNL1        0.1122
     13 C          63.3472   88.8895   12.5172 C.ar    1  UNL1        0.0699
     14 C          62.9173   88.4570   13.7830 C.ar    1  UNL1        0.0190
     15 C          61.7427   87.7119   13.9180 C.ar    1  UNL1        0.0160
     16 C          60.9812   87.3733   12.7886 C.ar    1  UNL1        0.0480
     17 C          61.4105   87.8027   11.5225 C.ar    1  UNL1        0.0160
     18 C          62.5836   88.5501   11.3872 C.ar    1  UNL1        0.0190
     19 N          66.2221   90.9033   11.5904 N.ar    1  UNL1       -0.2024
     20 N          66.4873   90.6819   12.8692 N.ar    1  UNL1       -0.1442
     21 C          65.4733   89.9270   13.3452 C.ar    1  UNL1        0.2073
     22 N          64.5604   89.6555   12.3851 N.ar    1  UNL1       -0.2398
     23 C          65.0583   90.2873   11.3037 C.ar    1  UNL1        0.3522
     24 O          64.4916   90.3286   10.1784 O.2     1  UNL1       -0.2444
     25 C          67.0779   91.7039   10.7067 C.3     1  UNL1        0.1099
     26 C          66.2551   92.8140   10.0391 C.3     1  UNL1        0.0265
     27 C          68.8500   91.5331    8.8711 C.3     1  UNL1        0.0021
     28 C          67.7842   90.7936    9.6800 C.3     1  UNL1        0.0245
     29 O          58.5049   78.7195   11.5166 O.3     1  UNL1       -0.4727
     30 C          59.5718   78.0609   10.8269 C.3     1  UNL1        0.2374
     31 C          60.5149   79.0561   10.1330 C.3     1  UNL1        0.1909
     32 C          61.8425   78.4840    9.7327 C.3     1  UNL1        0.1783
     33 O          62.7452   79.5383    9.8210 O.3     1  UNL1       -0.3271
     34 C          62.1220   80.5329   10.6159 C.3     1  UNL1        0.2232
     35 O          60.8134   80.1257   10.9711 O.3     1  UNL1       -0.3258
     36 C          62.0611   81.8556    9.8451 C.ar    1  UNL1        0.0404
     37 C          60.8812   82.2104    9.1542 C.ar    1  UNL1        0.0021
     38 C          60.8038   83.4000    8.4277 C.ar    1  UNL1        0.0113
     39 C          61.9046   84.2520    8.3580 C.ar    1  UNL1        0.0585
     40 CL         61.8035   85.7442    7.4414 Cl      1  UNL1       -0.0822
     41 C          63.0917   83.9085    9.0054 C.ar    1  UNL1        0.0226
     42 C          63.1863   82.7182    9.7375 C.ar    1  UNL1        0.0591
     43 CL         64.7493   82.3499   10.4660 Cl      1  UNL1       -0.0824
     44 C          62.9630   80.7240   11.8925 C.3     1  UNL1        0.1338
     45 N          62.1146   81.2721   12.9799 N.3     1  UNL1       -0.2659
     46 C          62.2534   82.7348   13.1763 C.3     1  UNL1        0.0896
     47 C          63.2256   83.1056   14.3162 C.3     1  UNL1        0.0862
     48 N          64.2255   82.0570   14.5350 N.3     1  UNL1       -0.2951
     49 C          63.5981   80.7893   14.9433 C.3     1  UNL1        0.0862
     50 C          62.2430   80.5275   14.2463 C.3     1  UNL1        0.0896
     51 H          64.7636   81.9108   13.6490 H       1  UNL1        0.1233
@<TRIPOS>BOND
     1    27    28    1
     2    28    25    1
     3    25    26    1
     4    25    19    1
     5    19    20   ar
     6    20    21   ar
     7    21    22   ar
     8    22    13    1
     9    13    14   ar
    10    14    15   ar
    11    15    16   ar
    12    16     7    1
    13     7     8    1
    14     8     9    1
    15     9    10    1
    16    10     1    1
    17     1     2   ar
    18     2     3   ar
    19     3     4   ar
    20     4    29    1
    21    29    30    1
    22    30    31    1
    23    31    32    1
    24    32    33    1
    25    33    34    1
    26    34    44    1
    27    44    45    1
    28    45    46    1
    29    46    47    1
    30    47    48    1
    31    48    49    1
    32    49    50    1
    33    34    36    1
    34    36    37   ar
    35    37    38   ar
    36    38    39   ar
    37    39    40    1
    38    39    41   ar
    39    41    42   ar
    40    42    43    1
    41    34    35    1
    42     4     5   ar
    43     5     6   ar
    44    10    11    1
    45    11    12    1
    46    16    17   ar
    47    17    18   ar
    48    22    23   ar
    49    23    24    2
    50    23    19   ar
    51    18    13   ar
    52    12     7    1
    53     6     1   ar
    54    35    31    1
    55    50    45    1
    56    42    36   ar
    57    48    51    1
@<TRIPOS>MOLECULE
*****
 51 57 0 0 0
SMALL
GASTEIGER

@<TRIPOS>ATOM
      1 C          61.4645   85.4942    8.6946 C.ar    1  UNL1        0.0481
      2 C          62.1360   85.3607    9.9197 C.ar    1  UNL1        0.0176
      3 C          63.0173   84.2981   10.1306 C.ar    1  UNL1        0.0382
      4 C          63.2370   83.3406    9.1337 C.ar    1  UNL1        0.1388
      5 C          62.5739   83.4813    7.8979 C.ar    1  UNL1        0.0382
      6 C          61.6911   84.5444    7.6867 C.ar    1  UNL1        0.0176
      7 N          59.5135   88.5288    6.8447 N.pl3   1  UNL1       -0.3041
      8 C          59.9438   88.9628    8.1817 C.3     1  UNL1        0.1122
      9 C          60.9484   87.9556    8.7534 C.3     1  UNL1        0.1122
     10 N          60.5287   86.5696    8.4873 N.pl3   1  UNL1       -0.3041
     11 C          59.1994   86.3114    7.9153 C.3     1  UNL1        0.1122
     12 C          59.0076   87.1594    6.6525 C.3     1  UNL1        0.1122
     13 C          59.9393   91.0664    3.4450 C.ar    1  UNL1        0.0699
     14 C          58.7159   90.9920    4.1321 C.ar    1  UNL1        0.0190
     15 C          58.5766   90.1609    5.2469 C.ar    1  UNL1        0.0160
     16 C          59.6616   89.3972    5.7050 C.ar    1  UNL1        0.0480
     17 C          60.8856   89.4720    5.0210 C.ar    1  UNL1        0.0160
     18 C          61.0246   90.3010    3.9045 C.ar    1  UNL1        0.0190
     19 N          60.1491   92.7218    0.2210 N.ar    1  UNL1       -0.2024
     20 N          60.3971   93.7411    1.0298 N.ar    1  UNL1       -0.1442
     21 C          60.3482   93.2519    2.2879 C.ar    1  UNL1        0.2073
     22 N          60.0764   91.9271    2.2977 N.ar    1  UNL1       -0.2398
     23 C          59.9519   91.6319    0.9886 C.ar    1  UNL1        0.3522
     24 O          59.6533   90.4922    0.5401 O.2     1  UNL1       -0.2444
     25 C          60.0941   92.8357   -1.2413 C.3     1  UNL1        0.1099
     26 C          61.4204   93.3909   -1.7777 C.3     1  UNL1        0.0265
     27 C          57.5523   93.1097   -1.1827 C.3     1  UNL1        0.0021
     28 C          58.8815   93.6912   -1.6646 C.3     1  UNL1        0.0245
     29 O          64.1118   82.2781    9.4247 O.3     1  UNL1       -0.4727
     30 C          64.0276   81.3839   10.5388 C.3     1  UNL1        0.2374
     31 C          63.2489   81.9945   11.7144 C.3     1  UNL1        0.1909
     32 C          63.4364   81.2863   13.0234 C.3     1  UNL1        0.1783
     33 O          62.2378   81.4478   13.7102 O.3     1  UNL1       -0.3271
     34 C          61.2721   81.8294   12.7451 C.3     1  UNL1        0.2232
     35 O          61.8790   81.9639   11.4731 O.3     1  UNL1       -0.3258
     36 C          60.6230   83.1563   13.1518 C.ar    1  UNL1        0.0404
     37 C          60.8146   83.6588   14.4580 C.ar    1  UNL1        0.0021
     38 C          60.2197   84.8553   14.8623 C.ar    1  UNL1        0.0113
     39 C          59.4067   85.5667   13.9816 C.ar    1  UNL1        0.0585
     40 CL         58.6589   87.0681   14.4952 Cl      1  UNL1       -0.0822
     41 C          59.1762   85.0749   12.6966 C.ar    1  UNL1        0.0226
     42 C          59.7646   83.8756   12.2758 C.ar    1  UNL1        0.0591
     43 CL         59.3598   83.3125   10.6545 Cl      1  UNL1       -0.0824
     44 C          60.1938   80.7307   12.6844 C.3     1  UNL1        0.1338
     45 N          59.8054   80.4806   11.2739 N.3     1  UNL1       -0.2659
     46 C          58.3818   80.1081   11.0957 C.3     1  UNL1        0.0896
     47 C          58.1608   78.5844   10.9886 C.3     1  UNL1        0.0862
     48 N          59.2210   77.8363   11.6696 N.3     1  UNL1       -0.2951
     49 C          60.5376   78.0915   11.0622 C.3     1  UNL1        0.0862
     50 C          60.7138   79.5496   10.5791 C.3     1  UNL1        0.0896
     51 H          59.2411   78.1177   12.6778 H       1  UNL1        0.1233
@<TRIPOS>BOND
     1    27    28    1
     2    28    25    1
     3    25    26    1
     4    25    19    1
     5    19    20   ar
     6    20    21   ar
     7    21    22   ar
     8    22    13    1
     9    13    14   ar
    10    14    15   ar
    11    15    16   ar
    12    16     7    1
    13     7     8    1
    14     8     9    1
    15     9    10    1
    16    10     1    1
    17     1     2   ar
    18     2     3   ar
    19     3     4   ar
    20     4    29    1
    21    29    30    1
    22    30    31    1
    23    31    32    1
    24    32    33    1
    25    33    34    1
    26    34    44    1
    27    44    45    1
    28    45    46    1
    29    46    47    1
    30    47    48    1
    31    48    49    1
    32    49    50    1
    33    34    36    1
    34    36    37   ar
    35    37    38   ar
    36    38    39   ar
    37    39    40    1
    38    39    41   ar
    39    41    42   ar
    40    42    43    1
    41    34    35    1
    42     4     5   ar
    43     5     6   ar
    44    10    11    1
    45    11    12    1
    46    16    17   ar
    47    17    18   ar
    48    22    23   ar
    49    23    24    2
    50    23    19   ar
    51    18    13   ar
    52    12     7    1
    53     6     1   ar
    54    35    31    1
    55    50    45    1
    56    42    36   ar
    57    48    51    1
@<TRIPOS>MOLECULE
*****
 51 57 0 0 0
SMALL
GASTEIGER

@<TRIPOS>ATOM
      1 C          59.4077   84.8913    8.4362 C.ar    1  UNL1        0.0481
      2 C          60.4418   84.1389    7.8582 C.ar    1  UNL1        0.0176
      3 C          60.2967   82.7622    7.6745 C.ar    1  UNL1        0.0382
      4 C          59.1274   82.1050    8.0743 C.ar    1  UNL1        0.1388
      5 C          58.0824   82.8618    8.6420 C.ar    1  UNL1        0.0382
      6 C          58.2277   84.2398    8.8268 C.ar    1  UNL1        0.0176
      7 N          61.1500   88.3971    9.4903 N.pl3   1  UNL1       -0.3041
      8 C          59.8233   88.2989   10.1159 C.3     1  UNL1        0.1122
      9 C          59.2998   86.8631    9.9945 C.3     1  UNL1        0.1122
     10 N          59.5687   86.3055    8.6586 N.pl3   1  UNL1       -0.3041
     11 C          60.0974   87.1788    7.6010 C.3     1  UNL1        0.1122
     12 C          61.3418   87.9136    8.1128 C.3     1  UNL1        0.1122
     13 C          64.5285   89.7952   11.6833 C.ar    1  UNL1        0.0699
     14 C          64.2477   90.3028   10.4036 C.ar    1  UNL1        0.0190
     15 C          63.1399   89.8451    9.6851 C.ar    1  UNL1        0.0160
     16 C          62.2831   88.8801   10.2372 C.ar    1  UNL1        0.0480
     17 C          62.5607   88.3733   11.5169 C.ar    1  UNL1        0.0160
     18 C          63.6701   88.8287   12.2347 C.ar    1  UNL1        0.0190
     19 N          67.1114   90.7706   14.0405 N.ar    1  UNL1       -0.2024
     20 N          67.6523   91.1892   12.9061 N.ar    1  UNL1       -0.1442
     21 C          66.7743   90.8811   11.9269 C.ar    1  UNL1        0.2073
     22 N          65.6712   90.2732   12.4193 N.ar    1  UNL1       -0.2398
     23 C          65.9202   90.2153   13.7426 C.ar    1  UNL1        0.3522
     24 O          65.1556   89.6786   14.5891 O.2     1  UNL1       -0.2444
     25 C          67.7598   90.9025   15.3506 C.3     1  UNL1        0.1099
     26 C          66.8247   91.6219   16.3321 C.3     1  UNL1        0.0265
     27 C          69.1231   93.0161   15.8120 C.3     1  UNL1        0.0021
     28 C          69.1212   91.6139   15.2030 C.3     1  UNL1        0.0245
     29 O          59.0609   80.7120    7.8902 O.3     1  UNL1       -0.4727
     30 C          60.0204   79.7461    8.3313 C.3     1  UNL1        0.2374
     31 C          60.2138   79.7756    9.8554 C.3     1  UNL1        0.1909
     32 C          58.9414   79.7228   10.6480 C.3     1  UNL1        0.1783
     33 O          59.1944   80.4460   11.8088 O.3     1  UNL1       -0.3271
     34 C          60.3478   81.2282   11.5492 C.3     1  UNL1        0.2232
     35 O          60.8465   80.9488   10.2540 O.3     1  UNL1       -0.3258
     36 C          61.4272   80.9305   12.5949 C.ar    1  UNL1        0.0404
     37 C          61.0888   80.2226   13.7695 C.ar    1  UNL1        0.0021
     38 C          62.0473   79.9540   14.7482 C.ar    1  UNL1        0.0113
     39 C          63.3579   80.4003   14.5873 C.ar    1  UNL1        0.0585
     40 CL         64.5581   80.0629   15.8213 Cl      1  UNL1       -0.0822
     41 C          63.7096   81.1291   13.4509 C.ar    1  UNL1        0.0226
     42 C          62.7597   81.4080   12.4602 C.ar    1  UNL1        0.0591
     43 CL         63.2932   82.3875   11.0944 Cl      1  UNL1       -0.0824
     44 C          59.9494   82.7140   11.6350 C.3     1  UNL1        0.1338
     45 N          59.3428   82.9993   12.9592 N.3     1  UNL1       -0.2659
     46 C          57.9290   83.4400   12.8944 C.3     1  UNL1        0.0896
     47 C          57.7667   84.9736   12.9562 C.3     1  UNL1        0.0862
     48 N          58.9606   85.6629   12.4595 N.3     1  UNL1       -0.2951
     49 C          60.1431   85.3542   13.2804 C.3     1  UNL1        0.0862
     50 C          60.1657   83.8955   13.7925 C.3     1  UNL1        0.0896
     51 H          59.1357   85.3685   11.4702 H       1  UNL1        0.1233
@<TRIPOS>BOND
     1    27    28    1
     2    28    25    1
     3    25    26    1
     4    25    19    1
     5    19    20   ar
     6    20    21   ar
     7    21    22   ar
     8    22    13    1
     9    13    14   ar
    10    14    15   ar
    11    15    16   ar
    12    16     7    1
    13     7     8    1
    14     8     9    1
    15     9    10    1
    16    10     1    1
    17     1     2   ar
    18     2     3   ar
    19     3     4   ar
    20     4    29    1
    21    29    30    1
    22    30    31    1
    23    31    32    1
    24    32    33    1
    25    33    34    1
    26    34    44    1
    27    44    45    1
    28    45    46    1
    29    46    47    1
    30    47    48    1
    31    48    49    1
    32    49    50    1
    33    34    36    1
    34    36    37   ar
    35    37    38   ar
    36    38    39   ar
    37    39    40    1
    38    39    41   ar
    39    41    42   ar
    40    42    43    1
    41    34    35    1
    42     4     5   ar
    43     5     6   ar
    44    10    11    1
    45    11    12    1
    46    16    17   ar
    47    17    18   ar
    48    22    23   ar
    49    23    24    2
    50    23    19   ar
    51    18    13   ar
    52    12     7    1
    53     6     1   ar
    54    35    31    1
    55    50    45    1
    56    42    36   ar
    57    48    51    1
