@<TRIPOS>MOLECULE
*****
 52 57 0 0 0
SMALL
GASTEIGER

@<TRIPOS>ATOM
      1 C          10.4783   79.4907   25.7731 C.ar    1  UNL1        0.0502
      2 C          10.2513   80.8749   25.7889 C.ar    1  UNL1        0.0148
      3 C          11.2478   81.7597   25.3700 C.ar    1  UNL1        0.0080
      4 C          12.4970   81.2808   24.9378 C.ar    1  UNL1        0.0808
      5 C          12.7196   79.8884   24.9121 C.ar    1  UNL1        0.1457
      6 F          13.8829   79.3690   24.4465 F       1  UNL1       -0.2040
      7 C          11.7179   79.0068   25.3306 C.ar    1  UNL1        0.0443
      8 N           7.8976   76.5359   27.2795 N.pl3   1  UNL1       -0.2897
      9 C           8.7400   76.2244   26.1184 C.3     1  UNL1        0.1136
     10 C           9.0139   77.4946   25.3124 C.3     1  UNL1        0.1123
     11 N           9.4556   78.5732   26.2043 N.pl3   1  UNL1       -0.3040
     12 C           8.6171   78.8860   27.3673 C.3     1  UNL1        0.1123
     13 C           8.3445   77.6145   28.1716 C.3     1  UNL1        0.1136
     14 C           5.1393   75.0282   29.2250 C.ar    1  UNL1        0.0941
     15 N           6.0665   75.8962   28.7316 N.ar    1  UNL1       -0.2326
     16 C           6.9321   75.5698   27.7350 C.ar    1  UNL1        0.1314
     17 C           6.8934   74.2817   27.1928 C.ar    1  UNL1        0.0343
     18 C           5.9490   73.3682   27.6568 C.ar    1  UNL1        0.0080
     19 C           5.0352   73.7283   28.6640 C.ar    1  UNL1        0.0875
     20 C           4.0199   72.7162   29.1595 C.3     1  UNL1        0.4197
     21 F           2.7346   73.0512   28.7683 F       1  UNL1       -0.1658
     22 F           4.3211   71.4695   28.6428 F       1  UNL1       -0.1658
     23 F           4.0375   72.6556   30.5411 F       1  UNL1       -0.1658
     24 C           4.2184   75.5100   30.3178 C.3     1  UNL1        0.1876
     25 C           4.0380   77.7894   30.6083 C.3     1  UNL1        0.1747
     26 O           3.5400   76.6773   29.8991 O.3     1  UNL1       -0.3447
     27 C          13.5339   82.2467   24.5003 C.2     1  UNL1        0.2483
     28 O          14.7479   81.9056   24.5403 O.2     1  UNL1       -0.2701
     29 N          13.1761   83.5438   23.9943 N.am    1  UNL1       -0.2945
     30 H          12.1772   83.7116   23.7409 H       1  UNL1        0.1501
     31 C          14.1847   84.5717   23.6930 C.3     1  UNL1        0.1535
     32 C          14.6268   84.5129   22.2483 C.2     1  UNL1        0.2443
     33 O          15.5531   83.7283   21.9036 O.2     1  UNL1       -0.2730
     34 N          13.9017   85.2560   21.2553 N.am    1  UNL1       -0.2825
     35 H          12.9966   85.6940   21.5408 H       1  UNL1        0.1549
     36 C          14.2426   85.2677   19.8594 C.ar    1  UNL1        0.0535
     37 C          15.0599   84.2742   19.2952 C.ar    1  UNL1        0.0353
     38 C          15.3780   84.3347   17.9360 C.ar    1  UNL1        0.1002
     39 N          14.9098   85.3555   17.1701 N.ar    1  UNL1       -0.2422
     40 C          14.1315   86.3393   17.6937 C.ar    1  UNL1        0.1002
     41 C          13.7914   86.3175   19.0483 C.ar    1  UNL1        0.0353
     42 C          13.6712   85.9823   24.0503 C.3     1  UNL1        0.0569
     43 C          14.6143   86.7372   24.9451 C.ar    1  UNL1       -0.0017
     44 C          14.4058   87.0580   26.2829 C.ar    1  UNL1        0.0681
     45 N          15.4342   87.7971   26.7573 N.ar    1  UNL1       -0.3523
     46 C          16.2885   87.9481   25.7302 C.ar    1  UNL1        0.0563
     47 C          17.4937   88.6489   25.7301 C.ar    1  UNL1        0.0170
     48 C          18.2308   88.6897   24.5324 C.ar    1  UNL1        0.0015
     49 C          17.7529   88.0359   23.3751 C.ar    1  UNL1        0.0001
     50 C          16.5340   87.3350   23.4046 C.ar    1  UNL1        0.0012
     51 C          15.8235   87.3144   24.6062 C.ar    1  UNL1        0.0131
     52 H          15.5356   88.1788   27.7240 H       1  UNL1        0.1660
@<TRIPOS>BOND
     1    25    26    1
     2    26    24    1
     3    24    14    1
     4    14    15   ar
     5    15    16   ar
     6    16     8    1
     7     8     9    1
     8     9    10    1
     9    10    11    1
    10    11     1    1
    11     1     2   ar
    12     2     3   ar
    13     3     4   ar
    14     4    27    1
    15    27    28    2
    16    27    29   am
    17    29    31    1
    18    31    42    1
    19    42    43    1
    20    43    44   ar
    21    44    45   ar
    22    45    46   ar
    23    46    47   ar
    24    47    48   ar
    25    48    49   ar
    26    49    50   ar
    27    50    51   ar
    28    31    32    1
    29    32    33    2
    30    32    34   am
    31    34    36    1
    32    36    37   ar
    33    37    38   ar
    34    38    39   ar
    35    39    40   ar
    36    40    41   ar
    37     4     5   ar
    38     5     6    1
    39     5     7   ar
    40    11    12    1
    41    12    13    1
    42    16    17   ar
    43    17    18   ar
    44    18    19   ar
    45    19    20    1
    46    20    21    1
    47    20    22    1
    48    20    23    1
    49    19    14   ar
    50    13     8    1
    51     7     1   ar
    52    51    43   ar
    53    41    36   ar
    54    51    46   ar
    55    29    30    1
    56    45    52    1
    57    34    35    1
@<TRIPOS>MOLECULE
*****
 52 57 0 0 0
SMALL
GASTEIGER

@<TRIPOS>ATOM
      1 C          10.4806   79.4676   25.7929 C.ar    1  UNL1        0.0502
      2 C          10.2699   80.8536   25.8449 C.ar    1  UNL1        0.0148
      3 C          11.2694   81.7368   25.4299 C.ar    1  UNL1        0.0080
      4 C          12.5055   81.2543   24.9653 C.ar    1  UNL1        0.0808
      5 C          12.7114   79.8604   24.9032 C.ar    1  UNL1        0.1457
      6 F          13.8606   79.3392   24.4057 F       1  UNL1       -0.2040
      7 C          11.7068   78.9805   25.3180 C.ar    1  UNL1        0.0443
      8 N           7.8873   76.5238   27.2990 N.pl3   1  UNL1       -0.2897
      9 C           8.7528   76.1981   26.1590 C.3     1  UNL1        0.1136
     10 C           9.0352   77.4565   25.3376 C.3     1  UNL1        0.1123
     11 N           9.4547   78.5517   26.2199 N.pl3   1  UNL1       -0.3040
     12 C           8.5930   78.8789   27.3618 C.3     1  UNL1        0.1123
     13 C           8.3119   77.6191   28.1815 C.3     1  UNL1        0.1136
     14 C           5.1084   75.0291   29.2251 C.ar    1  UNL1        0.0941
     15 N           6.0397   75.8944   28.7346 N.ar    1  UNL1       -0.2326
     16 C           6.9184   75.5600   27.7522 C.ar    1  UNL1        0.1314
     17 C           6.8894   74.2664   27.2226 C.ar    1  UNL1        0.0343
     18 C           5.9415   73.3553   27.6840 C.ar    1  UNL1        0.0080
     19 C           5.0142   73.7234   28.6761 C.ar    1  UNL1        0.0875
     20 C           3.9952   72.7138   29.1691 C.3     1  UNL1        0.4197
     21 F           2.7122   73.0498   28.7712 F       1  UNL1       -0.1658
     22 F           4.2969   71.4656   28.6566 F       1  UNL1       -0.1658
     23 F           4.0063   72.6563   30.5509 F       1  UNL1       -0.1658
     24 C           4.1728   75.5197   30.3015 C.3     1  UNL1        0.1876
     25 C           4.1293   77.8130   30.5283 C.3     1  UNL1        0.1747
     26 O           3.5350   76.7096   29.8825 O.3     1  UNL1       -0.3447
     27 C          13.5460   82.2186   24.5328 C.2     1  UNL1        0.2483
     28 O          14.7579   81.8686   24.5597 O.2     1  UNL1       -0.2701
     29 N          13.1938   83.5245   24.0461 N.am    1  UNL1       -0.2945
     30 H          12.1943   83.7025   23.8021 H       1  UNL1        0.1501
     31 C          14.2074   84.5493   23.7509 C.3     1  UNL1        0.1535
     32 C          14.6037   84.5377   22.2919 C.2     1  UNL1        0.2443
     33 O          15.5094   83.7560   21.8904 O.2     1  UNL1       -0.2730
     34 N          13.8573   85.3240   21.3493 N.am    1  UNL1       -0.2825
     35 H          12.9668   85.7614   21.6785 H       1  UNL1        0.1549
     36 C          14.1549   85.3823   19.9447 C.ar    1  UNL1        0.0535
     37 C          13.8421   86.5147   19.1745 C.ar    1  UNL1        0.0353
     38 C          14.1359   86.5206   17.8086 C.ar    1  UNL1        0.1002
     39 N          14.7082   85.4324   17.2287 N.ar    1  UNL1       -0.2422
     40 C          15.0055   84.3171   17.9465 C.ar    1  UNL1        0.1002
     41 C          14.7266   84.2690   19.3143 C.ar    1  UNL1        0.0353
     42 C          13.7257   85.9525   24.1752 C.3     1  UNL1        0.0569
     43 C          14.8421   86.8259   24.6760 C.ar    1  UNL1       -0.0017
     44 C          16.0114   87.1456   23.9930 C.ar    1  UNL1        0.0681
     45 N          16.8204   87.9016   24.7695 N.ar    1  UNL1       -0.3523
     46 C          16.1735   88.0595   25.9373 C.ar    1  UNL1        0.0563
     47 C          16.6169   88.7554   27.0611 C.ar    1  UNL1        0.0170
     48 C          15.7783   88.7840   28.1904 C.ar    1  UNL1        0.0015
     49 C          14.5291   88.1248   28.1713 C.ar    1  UNL1        0.0001
     50 C          14.1068   87.4313   27.0230 C.ar    1  UNL1        0.0012
     51 C          14.9613   87.4180   25.9191 C.ar    1  UNL1        0.0131
     52 H          17.7605   88.2769   24.5128 H       1  UNL1        0.1660
@<TRIPOS>BOND
     1    25    26    1
     2    26    24    1
     3    24    14    1
     4    14    15   ar
     5    15    16   ar
     6    16     8    1
     7     8     9    1
     8     9    10    1
     9    10    11    1
    10    11     1    1
    11     1     2   ar
    12     2     3   ar
    13     3     4   ar
    14     4    27    1
    15    27    28    2
    16    27    29   am
    17    29    31    1
    18    31    42    1
    19    42    43    1
    20    43    44   ar
    21    44    45   ar
    22    45    46   ar
    23    46    47   ar
    24    47    48   ar
    25    48    49   ar
    26    49    50   ar
    27    50    51   ar
    28    31    32    1
    29    32    33    2
    30    32    34   am
    31    34    36    1
    32    36    37   ar
    33    37    38   ar
    34    38    39   ar
    35    39    40   ar
    36    40    41   ar
    37     4     5   ar
    38     5     6    1
    39     5     7   ar
    40    11    12    1
    41    12    13    1
    42    16    17   ar
    43    17    18   ar
    44    18    19   ar
    45    19    20    1
    46    20    21    1
    47    20    22    1
    48    20    23    1
    49    19    14   ar
    50    13     8    1
    51     7     1   ar
    52    51    43   ar
    53    41    36   ar
    54    51    46   ar
    55    29    30    1
    56    45    52    1
    57    34    35    1
@<TRIPOS>MOLECULE
*****
 52 57 0 0 0
SMALL
GASTEIGER

@<TRIPOS>ATOM
      1 C          10.7624   78.9561   25.6622 C.ar    1  UNL1        0.0502
      2 C          12.0710   78.5677   25.3387 C.ar    1  UNL1        0.0148
      3 C          13.0198   79.5223   24.9646 C.ar    1  UNL1        0.0080
      4 C          12.6780   80.8842   24.8941 C.ar    1  UNL1        0.0808
      5 C          11.3651   81.2741   25.2305 C.ar    1  UNL1        0.1457
      6 F          10.9980   82.5798   25.2397 F       1  UNL1       -0.2040
      7 C          10.4196   80.3147   25.6063 C.ar    1  UNL1        0.0443
      8 N           7.8623   76.3707   27.2637 N.pl3   1  UNL1       -0.2897
      9 C           9.2541   76.2501   27.7145 C.3     1  UNL1        0.1136
     10 C          10.2065   76.6865   26.6007 C.3     1  UNL1        0.1123
     11 N           9.7793   77.9771   26.0478 N.pl3   1  UNL1       -0.3040
     12 C           8.3880   78.1021   25.5981 C.3     1  UNL1        0.1123
     13 C           7.4376   77.6651   26.7134 C.3     1  UNL1        0.1136
     14 C           5.0631   74.9202   29.1943 C.ar    1  UNL1        0.0941
     15 N           6.0040   75.7722   28.6987 N.ar    1  UNL1       -0.2326
     16 C           6.8831   75.4202   27.7228 C.ar    1  UNL1        0.1314
     17 C           6.8443   74.1217   27.2059 C.ar    1  UNL1        0.0343
     18 C           5.8865   73.2238   27.6728 C.ar    1  UNL1        0.0080
     19 C           4.9591   73.6101   28.6578 C.ar    1  UNL1        0.0875
     20 C           3.9292   72.6147   29.1569 C.3     1  UNL1        0.4197
     21 F           4.1909   71.3362   28.6941 F       1  UNL1       -0.1658
     22 F           3.9446   72.5887   30.5393 F       1  UNL1       -0.1658
     23 F           2.6663   72.9707   28.7197 F       1  UNL1       -0.1658
     24 C           4.1282   75.4298   30.2624 C.3     1  UNL1        0.1876
     25 C           4.1745   77.7214   30.5057 C.3     1  UNL1        0.1747
     26 O           4.7275   76.5054   30.9568 O.3     1  UNL1       -0.3447
     27 C          13.7087   81.8723   24.4928 C.2     1  UNL1        0.2483
     28 O          14.9279   81.5627   24.5898 O.2     1  UNL1       -0.2701
     29 N          13.3412   83.1551   23.9581 N.am    1  UNL1       -0.2945
     30 H          12.3507   83.2950   23.6592 H       1  UNL1        0.1501
     31 C          14.3361   84.2057   23.6910 C.3     1  UNL1        0.1535
     32 C          14.7954   84.1857   22.2507 C.2     1  UNL1        0.2443
     33 O          15.8342   83.5455   21.9287 O.2     1  UNL1       -0.2730
     34 N          13.9744   84.7882   21.2373 N.am    1  UNL1       -0.2825
     35 H          13.0102   85.0880   21.5077 H       1  UNL1        0.1549
     36 C          14.3225   84.8233   19.8436 C.ar    1  UNL1        0.0535
     37 C          15.1856   83.8699   19.2785 C.ar    1  UNL1        0.0353
     38 C          15.5086   83.9526   17.9216 C.ar    1  UNL1        0.1002
     39 N          15.0007   84.9567   17.1590 N.ar    1  UNL1       -0.2422
     40 C          14.1773   85.9023   17.6836 C.ar    1  UNL1        0.1002
     41 C          13.8306   85.8574   19.0359 C.ar    1  UNL1        0.0353
     42 C          13.7953   85.5996   24.0727 C.3     1  UNL1        0.0569
     43 C          14.4044   86.7052   23.2565 C.ar    1  UNL1       -0.0017
     44 C          15.7248   87.1410   23.3096 C.ar    1  UNL1        0.0681
     45 N          15.9077   88.1961   22.4836 N.ar    1  UNL1       -0.3523
     46 C          14.7141   88.4319   21.9118 C.ar    1  UNL1        0.0563
     47 C          14.4006   89.4328   20.9932 C.ar    1  UNL1        0.0170
     48 C          13.0748   89.5075   20.5285 C.ar    1  UNL1        0.0015
     49 C          12.1031   88.5900   20.9862 C.ar    1  UNL1        0.0001
     50 C          12.4481   87.5894   21.9122 C.ar    1  UNL1        0.0012
     51 C          13.7704   87.5419   22.3575 C.ar    1  UNL1        0.0131
     52 H          16.7960   88.7233   22.3310 H       1  UNL1        0.1660
@<TRIPOS>BOND
     1    25    26    1
     2    26    24    1
     3    24    14    1
     4    14    15   ar
     5    15    16   ar
     6    16     8    1
     7     8     9    1
     8     9    10    1
     9    10    11    1
    10    11     1    1
    11     1     2   ar
    12     2     3   ar
    13     3     4   ar
    14     4    27    1
    15    27    28    2
    16    27    29   am
    17    29    31    1
    18    31    42    1
    19    42    43    1
    20    43    44   ar
    21    44    45   ar
    22    45    46   ar
    23    46    47   ar
    24    47    48   ar
    25    48    49   ar
    26    49    50   ar
    27    50    51   ar
    28    31    32    1
    29    32    33    2
    30    32    34   am
    31    34    36    1
    32    36    37   ar
    33    37    38   ar
    34    38    39   ar
    35    39    40   ar
    36    40    41   ar
    37     4     5   ar
    38     5     6    1
    39     5     7   ar
    40    11    12    1
    41    12    13    1
    42    16    17   ar
    43    17    18   ar
    44    18    19   ar
    45    19    20    1
    46    20    21    1
    47    20    22    1
    48    20    23    1
    49    19    14   ar
    50    13     8    1
    51     7     1   ar
    52    51    43   ar
    53    41    36   ar
    54    51    46   ar
    55    29    30    1
    56    45    52    1
    57    34    35    1
@<TRIPOS>MOLECULE
*****
 52 57 0 0 0
SMALL
GASTEIGER

@<TRIPOS>ATOM
      1 C           6.0813   75.2063   22.9895 C.ar    1  UNL1        0.0502
      2 C           7.1638   75.7661   22.2946 C.ar    1  UNL1        0.0148
      3 C           8.3710   76.0181   22.9507 C.ar    1  UNL1        0.0080
      4 C           8.5186   75.7273   24.3182 C.ar    1  UNL1        0.0808
      5 C           7.4330   75.1542   25.0125 C.ar    1  UNL1        0.1457
      6 F           7.5401   74.7966   26.3166 F       1  UNL1       -0.2040
      7 C           6.2273   74.9020   24.3505 C.ar    1  UNL1        0.0443
      8 N           2.6076   74.8072   20.6583 N.pl3   1  UNL1       -0.2897
      9 C           2.7646   75.9928   21.5095 C.3     1  UNL1        0.1136
     10 C           3.6163   75.6520   22.7329 C.3     1  UNL1        0.1123
     11 N           4.8339   74.9447   22.3193 N.pl3   1  UNL1       -0.3040
     12 C           4.6810   73.7601   21.4666 C.3     1  UNL1        0.1123
     13 C           3.8291   74.1033   20.2441 C.3     1  UNL1        0.1136
     14 C          -0.1553   73.0859   18.9063 C.ar    1  UNL1        0.0941
     15 N           0.9877   73.3492   19.5998 N.ar    1  UNL1       -0.2326
     16 C           1.3754   74.6070   19.9411 C.ar    1  UNL1        0.1314
     17 C           0.5842   75.6930   19.5544 C.ar    1  UNL1        0.0343
     18 C          -0.6016   75.4669   18.8586 C.ar    1  UNL1        0.0080
     19 C          -1.0106   74.1586   18.5416 C.ar    1  UNL1        0.0875
     20 C          -2.3016   73.9354   17.7773 C.3     1  UNL1        0.4197
     21 F          -2.9246   72.7604   18.1628 F       1  UNL1       -0.1658
     22 F          -3.1676   74.9862   18.0173 F       1  UNL1       -0.1658
     23 F          -2.0478   73.8520   16.4203 F       1  UNL1       -0.1658
     24 C          -0.4926   71.6477   18.6026 C.3     1  UNL1        0.1876
     25 C          -0.2613   71.1608   20.8436 C.3     1  UNL1        0.1747
     26 O           0.1338   70.7955   19.5404 O.3     1  UNL1       -0.3447
     27 C           9.8132   76.0077   24.9853 C.2     1  UNL1        0.2483
     28 O          10.8211   75.3086   24.6898 O.2     1  UNL1       -0.2701
     29 N           9.9468   77.0853   25.9272 N.am    1  UNL1       -0.2945
     30 H           9.1813   77.7939   25.9717 H       1  UNL1        0.1501
     31 C          11.1751   77.2924   26.7102 C.3     1  UNL1        0.1535
     32 C          12.1980   78.0973   25.9408 C.2     1  UNL1        0.2443
     33 O          12.0165   79.3317   25.7513 O.2     1  UNL1       -0.2730
     34 N          13.4318   77.4784   25.5426 N.am    1  UNL1       -0.2825
     35 H          13.6488   76.5326   25.9310 H       1  UNL1        0.1549
     36 C          14.4647   78.1558   24.8081 C.ar    1  UNL1        0.0535
     37 C          14.9756   79.3937   25.2323 C.ar    1  UNL1        0.0353
     38 C          15.9688   80.0233   24.4778 C.ar    1  UNL1        0.1002
     39 N          16.4264   79.4467   23.3350 N.ar    1  UNL1       -0.2422
     40 C          15.9377   78.2582   22.8922 C.ar    1  UNL1        0.1002
     41 C          14.9429   77.5963   23.6157 C.ar    1  UNL1        0.0353
     42 C          10.8681   77.9555   28.0694 C.3     1  UNL1        0.0569
     43 C           9.5176   77.5778   28.6109 C.ar    1  UNL1       -0.0017
     44 C           8.4548   78.4413   28.8574 C.ar    1  UNL1        0.0681
     45 N           7.4160   77.7685   29.4026 N.ar    1  UNL1       -0.3523
     46 C           7.8147   76.4887   29.5051 C.ar    1  UNL1        0.0563
     47 C           7.0888   75.4167   30.0225 C.ar    1  UNL1        0.0170
     48 C           7.7076   74.1534   30.0460 C.ar    1  UNL1        0.0015
     49 C           9.0227   73.9912   29.5566 C.ar    1  UNL1        0.0001
     50 C           9.7310   75.0904   29.0389 C.ar    1  UNL1        0.0012
     51 C           9.0923   76.3317   29.0312 C.ar    1  UNL1        0.0131
     52 H           6.4958   78.1681   29.6921 H       1  UNL1        0.1660
@<TRIPOS>BOND
     1    25    26    1
     2    26    24    1
     3    24    14    1
     4    14    15   ar
     5    15    16   ar
     6    16     8    1
     7     8     9    1
     8     9    10    1
     9    10    11    1
    10    11     1    1
    11     1     2   ar
    12     2     3   ar
    13     3     4   ar
    14     4    27    1
    15    27    28    2
    16    27    29   am
    17    29    31    1
    18    31    42    1
    19    42    43    1
    20    43    44   ar
    21    44    45   ar
    22    45    46   ar
    23    46    47   ar
    24    47    48   ar
    25    48    49   ar
    26    49    50   ar
    27    50    51   ar
    28    31    32    1
    29    32    33    2
    30    32    34   am
    31    34    36    1
    32    36    37   ar
    33    37    38   ar
    34    38    39   ar
    35    39    40   ar
    36    40    41   ar
    37     4     5   ar
    38     5     6    1
    39     5     7   ar
    40    11    12    1
    41    12    13    1
    42    16    17   ar
    43    17    18   ar
    44    18    19   ar
    45    19    20    1
    46    20    21    1
    47    20    22    1
    48    20    23    1
    49    19    14   ar
    50    13     8    1
    51     7     1   ar
    52    51    43   ar
    53    41    36   ar
    54    51    46   ar
    55    29    30    1
    56    45    52    1
    57    34    35    1
@<TRIPOS>MOLECULE
*****
 52 57 0 0 0
SMALL
GASTEIGER

@<TRIPOS>ATOM
      1 C           9.8573   79.7267   25.9378 C.ar    1  UNL1        0.0502
      2 C          10.5142   80.5505   26.8640 C.ar    1  UNL1        0.0148
      3 C          11.4500   81.4936   26.4325 C.ar    1  UNL1        0.0080
      4 C          11.7585   81.6254   25.0672 C.ar    1  UNL1        0.0808
      5 C          11.0890   80.8041   24.1364 C.ar    1  UNL1        0.1457
      6 F          11.3021   80.9313   22.8029 F       1  UNL1       -0.2040
      7 C          10.1515   79.8630   24.5735 C.ar    1  UNL1        0.0443
      8 N           7.4703   76.5890   27.3926 N.pl3   1  UNL1       -0.2897
      9 C           8.1902   76.4109   26.1257 C.3     1  UNL1        0.1136
     10 C           8.3689   77.7603   25.4291 C.3     1  UNL1        0.1123
     11 N           8.8922   78.7520   26.3760 N.pl3   1  UNL1       -0.3040
     12 C           8.1763   78.9313   27.6445 C.3     1  UNL1        0.1123
     13 C           7.9987   77.5808   28.3391 C.3     1  UNL1        0.1136
     14 C           4.7769   74.9234   29.2999 C.ar    1  UNL1        0.0941
     15 N           5.6521   75.8466   28.8116 N.ar    1  UNL1       -0.2326
     16 C           6.5649   75.5646   27.8440 C.ar    1  UNL1        0.1314
     17 C           6.6331   74.2668   27.3282 C.ar    1  UNL1        0.0343
     18 C           5.7448   73.2965   27.7877 C.ar    1  UNL1        0.0080
     19 C           4.7812   73.6089   28.7640 C.ar    1  UNL1        0.0875
     20 C           3.8284   72.5357   29.2551 C.3     1  UNL1        0.4197
     21 F           2.5185   72.8205   28.9083 F       1  UNL1       -0.1658
     22 F           4.1731   71.3203   28.6932 F       1  UNL1       -0.1658
     23 F           3.8871   72.4360   30.6333 F       1  UNL1       -0.1658
     24 C           3.7952   75.3583   30.3590 C.3     1  UNL1        0.1876
     25 C           3.8256   77.6470   30.6307 C.3     1  UNL1        0.1747
     26 O           3.1821   76.5743   29.9802 O.3     1  UNL1       -0.3447
     27 C          12.7573   82.6360   24.6421 C.2     1  UNL1        0.2483
     28 O          13.9642   82.2913   24.5135 O.2     1  UNL1       -0.2701
     29 N          12.3667   83.9849   24.3351 N.am    1  UNL1       -0.2945
     30 H          11.3492   84.1830   24.2097 H       1  UNL1        0.1501
     31 C          13.3524   85.0405   24.0549 C.3     1  UNL1        0.1535
     32 C          13.9047   85.6402   25.3283 C.2     1  UNL1        0.2443
     33 O          14.4810   84.9026   26.1746 O.2     1  UNL1       -0.2730
     34 N          13.8843   87.0656   25.5065 N.am    1  UNL1       -0.2825
     35 H          13.6266   87.6548   24.6825 H       1  UNL1        0.1549
     36 C          14.3819   87.7313   26.6788 C.ar    1  UNL1        0.0535
     37 C          15.6526   88.3297   26.6992 C.ar    1  UNL1        0.0353
     38 C          16.1013   88.9524   27.8667 C.ar    1  UNL1        0.1002
     39 N          15.3177   88.9665   28.9774 N.ar    1  UNL1       -0.2422
     40 C          14.0914   88.3803   28.9908 C.ar    1  UNL1        0.1002
     41 C          13.6056   87.7455   27.8453 C.ar    1  UNL1        0.0353
     42 C          14.4937   84.5177   23.1575 C.3     1  UNL1        0.0569
     43 C          15.0047   85.5568   22.1989 C.ar    1  UNL1       -0.0017
     44 C          14.6492   85.6928   20.8605 C.ar    1  UNL1        0.0681
     45 N          15.3506   86.6957   20.2850 N.ar    1  UNL1       -0.3523
     46 C          16.1476   87.1919   21.2472 C.ar    1  UNL1        0.0563
     47 C          17.0672   88.2331   21.1286 C.ar    1  UNL1        0.0170
     48 C          17.8123   88.5857   22.2687 C.ar    1  UNL1        0.0015
     49 C          17.6233   87.8983   23.4882 C.ar    1  UNL1        0.0001
     50 C          16.6874   86.8525   23.5791 C.ar    1  UNL1        0.0012
     51 C          15.9650   86.5233   22.4308 C.ar    1  UNL1        0.0131
     52 H          15.2887   87.0112   19.2915 H       1  UNL1        0.1660
@<TRIPOS>BOND
     1    25    26    1
     2    26    24    1
     3    24    14    1
     4    14    15   ar
     5    15    16   ar
     6    16     8    1
     7     8     9    1
     8     9    10    1
     9    10    11    1
    10    11     1    1
    11     1     2   ar
    12     2     3   ar
    13     3     4   ar
    14     4    27    1
    15    27    28    2
    16    27    29   am
    17    29    31    1
    18    31    42    1
    19    42    43    1
    20    43    44   ar
    21    44    45   ar
    22    45    46   ar
    23    46    47   ar
    24    47    48   ar
    25    48    49   ar
    26    49    50   ar
    27    50    51   ar
    28    31    32    1
    29    32    33    2
    30    32    34   am
    31    34    36    1
    32    36    37   ar
    33    37    38   ar
    34    38    39   ar
    35    39    40   ar
    36    40    41   ar
    37     4     5   ar
    38     5     6    1
    39     5     7   ar
    40    11    12    1
    41    12    13    1
    42    16    17   ar
    43    17    18   ar
    44    18    19   ar
    45    19    20    1
    46    20    21    1
    47    20    22    1
    48    20    23    1
    49    19    14   ar
    50    13     8    1
    51     7     1   ar
    52    51    43   ar
    53    41    36   ar
    54    51    46   ar
    55    29    30    1
    56    45    52    1
    57    34    35    1
@<TRIPOS>MOLECULE
*****
 52 57 0 0 0
SMALL
GASTEIGER

@<TRIPOS>ATOM
      1 C          11.2683   79.4809   25.2893 C.ar    1  UNL1        0.0502
      2 C          10.1627   79.6231   26.1409 C.ar    1  UNL1        0.0148
      3 C           9.4233   78.5044   26.5323 C.ar    1  UNL1        0.0080
      4 C           9.7654   77.2210   26.0713 C.ar    1  UNL1        0.0808
      5 C          10.8840   77.0787   25.2242 C.ar    1  UNL1        0.1457
      6 F          11.2959   75.8580   24.7998 F       1  UNL1       -0.2040
      7 C          11.6221   78.2016   24.8370 C.ar    1  UNL1        0.0443
      8 N          13.3881   83.0422   24.5937 N.pl3   1  UNL1       -0.2897
      9 C          11.9219   83.0581   24.5239 C.3     1  UNL1        0.1136
     10 C          11.4021   81.6886   24.0854 C.3     1  UNL1        0.1123
     11 N          12.0344   80.6300   24.8814 N.pl3   1  UNL1       -0.3040
     12 C          13.4999   80.6121   24.9552 C.3     1  UNL1        0.1123
     13 C          14.0173   81.9825   25.3937 C.3     1  UNL1        0.1136
     14 C          14.8326   86.4353   24.8513 C.ar    1  UNL1        0.0941
     15 N          14.1686   85.2755   25.1170 N.ar    1  UNL1       -0.2326
     16 C          14.1275   84.2288   24.2499 C.ar    1  UNL1        0.1314
     17 C          14.7773   84.3388   23.0168 C.ar    1  UNL1        0.0343
     18 C          15.4824   85.5014   22.7122 C.ar    1  UNL1        0.0080
     19 C          15.5474   86.5642   23.6316 C.ar    1  UNL1        0.0875
     20 C          16.3147   87.8236   23.2770 C.3     1  UNL1        0.4197
     21 F          16.8970   87.7291   22.0242 F       1  UNL1       -0.1658
     22 F          15.4525   88.9045   23.2757 F       1  UNL1       -0.1658
     23 F          17.3248   88.0449   24.1954 F       1  UNL1       -0.1658
     24 C          14.8252   87.5200   25.8992 C.3     1  UNL1        0.1876
     25 C          14.0629   87.4380   28.0728 C.3     1  UNL1        0.1747
     26 O          13.6790   87.3948   26.7169 O.3     1  UNL1       -0.3447
     27 C           8.9593   76.0541   26.5051 C.2     1  UNL1        0.2483
     28 O           9.2474   75.4767   27.5892 O.2     1  UNL1       -0.2701
     29 N           7.8344   75.5992   25.7344 N.am    1  UNL1       -0.2945
     30 H           7.4674   76.2283   24.9863 H       1  UNL1        0.1501
     31 C           7.1109   74.3607   26.0620 C.3     1  UNL1        0.1535
     32 C           6.2850   74.5131   27.3192 C.2     1  UNL1        0.2443
     33 O           5.7360   73.5030   27.8396 O.2     1  UNL1       -0.2730
     34 N           6.2377   75.7852   27.9853 N.am    1  UNL1       -0.2825
     35 H           6.8998   76.5273   27.6635 H       1  UNL1        0.1549
     36 C           5.4820   76.0325   29.1823 C.ar    1  UNL1        0.0535
     37 C           4.1634   76.5142   29.1314 C.ar    1  UNL1        0.0353
     38 C           3.4723   76.7550   30.3216 C.ar    1  UNL1        0.1002
     39 N           4.0779   76.5366   31.5188 N.ar    1  UNL1       -0.2422
     40 C           5.3584   76.0873   31.5974 C.ar    1  UNL1        0.1002
     41 C           6.0854   75.8356   30.4316 C.ar    1  UNL1        0.0353
     42 C           6.2302   73.8976   24.8825 C.3     1  UNL1        0.0569
     43 C           5.7189   75.0414   24.0519 C.ar    1  UNL1       -0.0017
     44 C           6.2441   75.4837   22.8417 C.ar    1  UNL1        0.0681
     45 N           5.5736   76.5745   22.4062 N.ar    1  UNL1       -0.3523
     46 C           4.6319   76.8263   23.3320 C.ar    1  UNL1        0.0563
     47 C           3.7001   77.8634   23.3287 C.ar    1  UNL1        0.0170
     48 C           2.8067   77.9486   24.4121 C.ar    1  UNL1        0.0015
     49 C           2.8631   77.0057   25.4623 C.ar    1  UNL1        0.0001
     50 C           3.8129   75.9687   25.4387 C.ar    1  UNL1        0.0012
     51 C           4.6878   75.9114   24.3524 C.ar    1  UNL1        0.0131
     52 H           5.7592   77.1140   21.5316 H       1  UNL1        0.1660
@<TRIPOS>BOND
     1    25    26    1
     2    26    24    1
     3    24    14    1
     4    14    15   ar
     5    15    16   ar
     6    16     8    1
     7     8     9    1
     8     9    10    1
     9    10    11    1
    10    11     1    1
    11     1     2   ar
    12     2     3   ar
    13     3     4   ar
    14     4    27    1
    15    27    28    2
    16    27    29   am
    17    29    31    1
    18    31    42    1
    19    42    43    1
    20    43    44   ar
    21    44    45   ar
    22    45    46   ar
    23    46    47   ar
    24    47    48   ar
    25    48    49   ar
    26    49    50   ar
    27    50    51   ar
    28    31    32    1
    29    32    33    2
    30    32    34   am
    31    34    36    1
    32    36    37   ar
    33    37    38   ar
    34    38    39   ar
    35    39    40   ar
    36    40    41   ar
    37     4     5   ar
    38     5     6    1
    39     5     7   ar
    40    11    12    1
    41    12    13    1
    42    16    17   ar
    43    17    18   ar
    44    18    19   ar
    45    19    20    1
    46    20    21    1
    47    20    22    1
    48    20    23    1
    49    19    14   ar
    50    13     8    1
    51     7     1   ar
    52    51    43   ar
    53    41    36   ar
    54    51    46   ar
    55    29    30    1
    56    45    52    1
    57    34    35    1
@<TRIPOS>MOLECULE
*****
 52 57 0 0 0
SMALL
GASTEIGER

@<TRIPOS>ATOM
      1 C          10.0823   80.0712   25.7998 C.ar    1  UNL1        0.0502
      2 C          10.3074   80.2869   24.4320 C.ar    1  UNL1        0.0148
      3 C          11.2353   81.2421   24.0103 C.ar    1  UNL1        0.0080
      4 C          11.9494   82.0108   24.9461 C.ar    1  UNL1        0.0808
      5 C          11.7300   81.7847   26.3208 C.ar    1  UNL1        0.1457
      6 F          12.4356   82.4536   27.2665 F       1  UNL1       -0.2040
      7 C          10.8013   80.8259   26.7377 C.ar    1  UNL1        0.0443
      8 N           7.7243   76.9243   27.2821 N.pl3   1  UNL1       -0.2897
      9 C           8.4777   76.7278   26.0376 C.3     1  UNL1        0.1136
     10 C           8.6460   78.0617   25.3094 C.3     1  UNL1        0.1123
     11 N           9.1266   79.0886   26.2413 N.pl3   1  UNL1       -0.3040
     12 C           8.3772   79.2865   27.4875 C.3     1  UNL1        0.1123
     13 C           8.2101   77.9513   28.2138 C.3     1  UNL1        0.1136
     14 C           5.0430   75.2452   29.1947 C.ar    1  UNL1        0.0941
     15 N           5.9095   76.1740   28.7012 N.ar    1  UNL1       -0.2326
     16 C           6.8291   75.8936   27.7396 C.ar    1  UNL1        0.1314
     17 C           6.9142   74.5921   27.2360 C.ar    1  UNL1        0.0343
     18 C           6.0354   73.6158   27.7011 C.ar    1  UNL1        0.0080
     19 C           5.0645   73.9260   28.6709 C.ar    1  UNL1        0.0875
     20 C           4.1223   72.8464   29.1683 C.3     1  UNL1        0.4197
     21 F           2.8144   73.0982   28.7897 F       1  UNL1       -0.1658
     22 F           4.5005   71.6253   28.6416 F       1  UNL1       -0.1658
     23 F           4.1556   72.7794   30.5494 F       1  UNL1       -0.1658
     24 C           4.0524   75.6785   30.2461 C.3     1  UNL1        0.1876
     25 C           4.1499   77.9383   30.6889 C.3     1  UNL1        0.1747
     26 O           4.6280   76.6691   31.0740 O.3     1  UNL1       -0.3447
     27 C          12.9269   83.0172   24.4653 C.2     1  UNL1        0.2483
     28 O          14.1146   82.6595   24.2344 O.2     1  UNL1       -0.2701
     29 N          12.5337   84.3779   24.2192 N.am    1  UNL1       -0.2945
     30 H          11.5127   84.5924   24.1789 H       1  UNL1        0.1501
     31 C          13.5102   85.4263   23.8849 C.3     1  UNL1        0.1535
     32 C          14.1351   86.0228   25.1258 C.2     1  UNL1        0.2443
     33 O          14.3782   85.2901   26.1241 O.2     1  UNL1       -0.2730
     34 N          14.5667   87.3930   25.1124 N.am    1  UNL1       -0.2825
     35 H          14.5742   87.8913   24.1936 H       1  UNL1        0.1549
     36 C          15.1687   88.0519   26.2387 C.ar    1  UNL1        0.0535
     37 C          16.4933   88.5177   26.1946 C.ar    1  UNL1        0.0353
     38 C          17.0421   89.1387   27.3194 C.ar    1  UNL1        0.1002
     39 N          16.3024   89.2783   28.4513 N.ar    1  UNL1       -0.2422
     40 C          15.0244   88.8216   28.5273 C.ar    1  UNL1        0.1002
     41 C          14.4382   88.1932   27.4261 C.ar    1  UNL1        0.0353
     42 C          14.5973   84.8948   22.9273 C.3     1  UNL1        0.0569
     43 C          14.3012   85.1950   21.4844 C.ar    1  UNL1       -0.0017
     44 C          14.8755   84.5785   20.3771 C.ar    1  UNL1        0.0681
     45 N          14.4218   85.1420   19.2344 N.ar    1  UNL1       -0.3523
     46 C          13.5685   86.1103   19.6107 C.ar    1  UNL1        0.0563
     47 C          12.8578   86.9784   18.7828 C.ar    1  UNL1        0.0170
     48 C          12.0228   87.9327   19.3923 C.ar    1  UNL1        0.0015
     49 C          11.9172   87.9969   20.7995 C.ar    1  UNL1        0.0001
     50 C          12.6450   87.1074   21.6101 C.ar    1  UNL1        0.0012
     51 C          13.4673   86.1735   20.9771 C.ar    1  UNL1        0.0131
     52 H          14.6897   84.8804   18.2596 H       1  UNL1        0.1660
@<TRIPOS>BOND
     1    25    26    1
     2    26    24    1
     3    24    14    1
     4    14    15   ar
     5    15    16   ar
     6    16     8    1
     7     8     9    1
     8     9    10    1
     9    10    11    1
    10    11     1    1
    11     1     2   ar
    12     2     3   ar
    13     3     4   ar
    14     4    27    1
    15    27    28    2
    16    27    29   am
    17    29    31    1
    18    31    42    1
    19    42    43    1
    20    43    44   ar
    21    44    45   ar
    22    45    46   ar
    23    46    47   ar
    24    47    48   ar
    25    48    49   ar
    26    49    50   ar
    27    50    51   ar
    28    31    32    1
    29    32    33    2
    30    32    34   am
    31    34    36    1
    32    36    37   ar
    33    37    38   ar
    34    38    39   ar
    35    39    40   ar
    36    40    41   ar
    37     4     5   ar
    38     5     6    1
    39     5     7   ar
    40    11    12    1
    41    12    13    1
    42    16    17   ar
    43    17    18   ar
    44    18    19   ar
    45    19    20    1
    46    20    21    1
    47    20    22    1
    48    20    23    1
    49    19    14   ar
    50    13     8    1
    51     7     1   ar
    52    51    43   ar
    53    41    36   ar
    54    51    46   ar
    55    29    30    1
    56    45    52    1
    57    34    35    1
@<TRIPOS>MOLECULE
*****
 52 57 0 0 0
SMALL
GASTEIGER

@<TRIPOS>ATOM
      1 C          11.2154   79.4472   25.2574 C.ar    1  UNL1        0.0502
      2 C          10.2434   79.5667   26.2619 C.ar    1  UNL1        0.0148
      3 C           9.4923   78.4564   26.6546 C.ar    1  UNL1        0.0080
      4 C           9.6879   77.2053   26.0437 C.ar    1  UNL1        0.0808
      5 C          10.6733   77.0845   25.0419 C.ar    1  UNL1        0.1457
      6 F          10.9467   75.8888   24.4628 F       1  UNL1       -0.2040
      7 C          11.4239   78.1988   24.6538 C.ar    1  UNL1        0.0443
      8 N          13.3742   82.9840   24.5569 N.pl3   1  UNL1       -0.2897
      9 C          11.9078   83.0185   24.4987 C.3     1  UNL1        0.1136
     10 C          11.3675   81.6571   24.0598 C.3     1  UNL1        0.1123
     11 N          11.9926   80.5880   24.8473 N.pl3   1  UNL1       -0.3040
     12 C          13.4583   80.5515   24.9095 C.3     1  UNL1        0.1123
     13 C          13.9963   81.9138   25.3485 C.3     1  UNL1        0.1136
     14 C          14.8301   86.3736   24.7961 C.ar    1  UNL1        0.0941
     15 N          14.1555   85.2205   25.0647 N.ar    1  UNL1       -0.2326
     16 C          14.1258   84.1624   24.2112 C.ar    1  UNL1        0.1314
     17 C          14.7992   84.2527   22.9893 C.ar    1  UNL1        0.0343
     18 C          15.5156   85.4077   22.6824 C.ar    1  UNL1        0.0080
     19 C          15.5683   86.4827   23.5885 C.ar    1  UNL1        0.0875
     20 C          16.3483   87.7336   23.2315 C.3     1  UNL1        0.4197
     21 F          17.3997   87.9452   24.1073 F       1  UNL1       -0.1658
     22 F          16.8641   87.6072   21.9549 F       1  UNL1       -0.1658
     23 F          15.5255   88.8439   23.2850 F       1  UNL1       -0.1658
     24 C          14.8082   87.4724   25.8289 C.3     1  UNL1        0.1876
     25 C          13.4099   88.7491   27.1432 C.3     1  UNL1        0.1747
     26 O          13.5386   87.5295   26.4476 O.3     1  UNL1       -0.3447
     27 C           8.8734   76.0465   26.4833 C.2     1  UNL1        0.2483
     28 O           9.1315   75.4980   27.5898 O.2     1  UNL1       -0.2701
     29 N           7.7730   75.5675   25.6919 N.am    1  UNL1       -0.2945
     30 H           7.4260   76.1759   24.9176 H       1  UNL1        0.1501
     31 C           7.0444   74.3348   26.0297 C.3     1  UNL1        0.1535
     32 C           6.3751   74.4352   27.3817 C.2     1  UNL1        0.2443
     33 O           6.0554   73.3865   28.0067 O.2     1  UNL1       -0.2730
     34 N           6.2250   75.7216   28.0036 N.am    1  UNL1       -0.2825
     35 H           6.7213   76.5324   27.5690 H       1  UNL1        0.1549
     36 C           5.6025   75.9225   29.2830 C.ar    1  UNL1        0.0535
     37 C           6.3133   75.7435   30.4813 C.ar    1  UNL1        0.0353
     38 C           5.6625   75.9349   31.7028 C.ar    1  UNL1        0.1002
     39 N           4.3478   76.2791   31.7292 N.ar    1  UNL1       -0.2422
     40 C           3.6315   76.4420   30.5855 C.ar    1  UNL1        0.1002
     41 C           4.2434   76.2585   29.3434 C.ar    1  UNL1        0.0353
     42 C           6.0166   73.9740   24.9367 C.3     1  UNL1        0.0569
     43 C           6.6516   73.7326   23.5957 C.ar    1  UNL1       -0.0017
     44 C           7.9937   73.4554   23.3544 C.ar    1  UNL1        0.0681
     45 N           8.2244   73.3582   22.0254 N.ar    1  UNL1       -0.3523
     46 C           7.0408   73.5742   21.4257 C.ar    1  UNL1        0.0563
     47 C           6.7778   73.5886   20.0566 C.ar    1  UNL1        0.0170
     48 C           5.4587   73.8493   19.6428 C.ar    1  UNL1        0.0015
     49 C           4.4432   74.0863   20.5956 C.ar    1  UNL1        0.0001
     50 C           4.7371   74.0643   21.9708 C.ar    1  UNL1        0.0012
     51 C           6.0552   73.8057   22.3510 C.ar    1  UNL1        0.0131
     52 H           9.1402   73.1634   21.5630 H       1  UNL1        0.1660
@<TRIPOS>BOND
     1    25    26    1
     2    26    24    1
     3    24    14    1
     4    14    15   ar
     5    15    16   ar
     6    16     8    1
     7     8     9    1
     8     9    10    1
     9    10    11    1
    10    11     1    1
    11     1     2   ar
    12     2     3   ar
    13     3     4   ar
    14     4    27    1
    15    27    28    2
    16    27    29   am
    17    29    31    1
    18    31    42    1
    19    42    43    1
    20    43    44   ar
    21    44    45   ar
    22    45    46   ar
    23    46    47   ar
    24    47    48   ar
    25    48    49   ar
    26    49    50   ar
    27    50    51   ar
    28    31    32    1
    29    32    33    2
    30    32    34   am
    31    34    36    1
    32    36    37   ar
    33    37    38   ar
    34    38    39   ar
    35    39    40   ar
    36    40    41   ar
    37     4     5   ar
    38     5     6    1
    39     5     7   ar
    40    11    12    1
    41    12    13    1
    42    16    17   ar
    43    17    18   ar
    44    18    19   ar
    45    19    20    1
    46    20    21    1
    47    20    22    1
    48    20    23    1
    49    19    14   ar
    50    13     8    1
    51     7     1   ar
    52    51    43   ar
    53    41    36   ar
    54    51    46   ar
    55    29    30    1
    56    45    52    1
    57    34    35    1
@<TRIPOS>MOLECULE
*****
 52 57 0 0 0
SMALL
GASTEIGER

@<TRIPOS>ATOM
      1 C          11.7531   79.6939   25.3532 C.ar    1  UNL1        0.0502
      2 C          10.6660   79.5278   26.2242 C.ar    1  UNL1        0.0148
      3 C          10.0479   78.2818   26.3539 C.ar    1  UNL1        0.0080
      4 C          10.4951   77.1779   25.6069 C.ar    1  UNL1        0.0808
      5 C          11.5951   77.3440   24.7401 C.ar    1  UNL1        0.1457
      6 F          12.1069   76.2994   24.0426 F       1  UNL1       -0.2040
      7 C          12.2117   78.5930   24.6155 C.ar    1  UNL1        0.0443
      8 N          13.6448   83.3258   24.4098 N.pl3   1  UNL1       -0.2897
      9 C          14.4389   82.0914   24.4323 C.3     1  UNL1        0.1136
     10 C          13.8404   81.1002   25.4311 C.3     1  UNL1        0.1123
     11 N          12.3943   80.9757   25.2142 N.pl3   1  UNL1       -0.3040
     12 C          11.5975   82.2078   25.1889 C.3     1  UNL1        0.1123
     13 C          12.1978   83.1973   24.1896 C.3     1  UNL1        0.1136
     14 C          14.7440   86.8115   24.9652 C.ar    1  UNL1        0.0941
     15 N          14.1659   85.5861   25.1100 N.ar    1  UNL1       -0.2326
     16 C          14.3027   84.5886   24.1960 C.ar    1  UNL1        0.1314
     17 C          15.0539   84.8211   23.0400 C.ar    1  UNL1        0.0343
     18 C          15.6762   86.0549   22.8607 C.ar    1  UNL1        0.0080
     19 C          15.5567   87.0677   23.8298 C.ar    1  UNL1        0.0875
     20 C          16.2366   88.4058   23.6114 C.3     1  UNL1        0.4197
     21 F          16.9834   88.7834   24.7146 F       1  UNL1       -0.1658
     22 F          17.0828   88.3210   22.5213 F       1  UNL1       -0.1658
     23 F          15.2938   89.3917   23.3835 F       1  UNL1       -0.1658
     24 C          14.5386   87.8327   26.0558 C.3     1  UNL1        0.1876
     25 C          14.3934   87.0176   28.2069 C.3     1  UNL1        0.1747
     26 O          13.6626   87.3202   27.0397 O.3     1  UNL1       -0.3447
     27 C           9.8165   75.8689   25.7673 C.2     1  UNL1        0.2483
     28 O          10.4216   74.9307   26.3550 O.2     1  UNL1       -0.2701
     29 N           8.4711   75.6665   25.3033 N.am    1  UNL1       -0.2945
     30 H           7.9096   76.5091   25.0484 H       1  UNL1        0.1501
     31 C           7.8295   74.3426   25.3166 C.3     1  UNL1        0.1535
     32 C           6.5987   74.3281   26.1946 C.2     1  UNL1        0.2443
     33 O           5.5450   74.9085   25.8134 O.2     1  UNL1       -0.2730
     34 N           6.5969   73.5437   27.3983 N.am    1  UNL1       -0.2825
     35 H           7.3945   72.8854   27.5506 H       1  UNL1        0.1549
     36 C           5.4801   73.4655   28.2991 C.ar    1  UNL1        0.0535
     37 C           5.1529   74.5290   29.1566 C.ar    1  UNL1        0.0353
     38 C           4.0674   74.4023   30.0270 C.ar    1  UNL1        0.1002
     39 N           3.3426   73.2525   30.0515 N.ar    1  UNL1       -0.2422
     40 C           3.6476   72.2015   29.2453 C.ar    1  UNL1        0.1002
     41 C           4.7260   72.2861   28.3616 C.ar    1  UNL1        0.0353
     42 C           7.4869   73.8715   23.8877 C.3     1  UNL1        0.0569
     43 C           8.5650   74.1969   22.8919 C.ar    1  UNL1       -0.0017
     44 C           8.5179   75.1889   21.9173 C.ar    1  UNL1        0.0681
     45 N           9.6360   75.1578   21.1572 N.ar    1  UNL1       -0.3523
     46 C          10.3870   74.1534   21.6414 C.ar    1  UNL1        0.0563
     47 C          11.6289   73.7258   21.1736 C.ar    1  UNL1        0.0170
     48 C          12.2387   72.6384   21.8256 C.ar    1  UNL1        0.0015
     49 C          11.6015   72.0103   22.9187 C.ar    1  UNL1        0.0001
     50 C          10.3492   72.4639   23.3702 C.ar    1  UNL1        0.0012
     51 C           9.7675   73.5427   22.7018 C.ar    1  UNL1        0.0131
     52 H           9.8619   75.7836   20.3523 H       1  UNL1        0.1660
@<TRIPOS>BOND
     1    25    26    1
     2    26    24    1
     3    24    14    1
     4    14    15   ar
     5    15    16   ar
     6    16     8    1
     7     8     9    1
     8     9    10    1
     9    10    11    1
    10    11     1    1
    11     1     2   ar
    12     2     3   ar
    13     3     4   ar
    14     4    27    1
    15    27    28    2
    16    27    29   am
    17    29    31    1
    18    31    42    1
    19    42    43    1
    20    43    44   ar
    21    44    45   ar
    22    45    46   ar
    23    46    47   ar
    24    47    48   ar
    25    48    49   ar
    26    49    50   ar
    27    50    51   ar
    28    31    32    1
    29    32    33    2
    30    32    34   am
    31    34    36    1
    32    36    37   ar
    33    37    38   ar
    34    38    39   ar
    35    39    40   ar
    36    40    41   ar
    37     4     5   ar
    38     5     6    1
    39     5     7   ar
    40    11    12    1
    41    12    13    1
    42    16    17   ar
    43    17    18   ar
    44    18    19   ar
    45    19    20    1
    46    20    21    1
    47    20    22    1
    48    20    23    1
    49    19    14   ar
    50    13     8    1
    51     7     1   ar
    52    51    43   ar
    53    41    36   ar
    54    51    46   ar
    55    29    30    1
    56    45    52    1
    57    34    35    1
