@<TRIPOS>MOLECULE
*****
 37 41 0 0 0
SMALL
GASTEIGER

@<TRIPOS>ATOM
      1 C         -22.4058   -8.6848  -10.1064 C.2     1  UNL1        0.2491
      2 O         -23.3377   -8.7942   -9.2644 O.2     1  UNL1       -0.2699
      3 N         -22.5836   -7.8621  -11.2777 N.am    1  UNL1       -0.2680
      4 C         -21.4305   -7.2044  -11.9033 C.3     1  UNL1        0.1412
      5 C         -20.9773   -7.9957  -13.1288 C.3     1  UNL1        0.2269
      6 O         -22.0873   -8.5169  -13.8583 O.3     1  UNL1       -0.4716
      7 C         -23.1925   -7.7346  -14.2012 C.ar    1  UNL1        0.1634
      8 C         -23.4403   -7.4836  -15.5546 C.ar    1  UNL1        0.1735
      9 F         -22.6182   -8.0013  -16.5014 F       1  UNL1       -0.2010
     10 C         -24.5146   -6.6811  -15.9399 C.ar    1  UNL1        0.0328
     11 C         -25.3717   -6.1275  -14.9759 C.ar    1  UNL1        0.0022
     12 C         -25.1376   -6.4030  -13.6175 C.ar    1  UNL1        0.0005
     13 C         -24.0508   -7.1980  -13.2132 C.ar    1  UNL1        0.0339
     14 C         -23.9507   -7.5795  -11.7452 C.3     1  UNL1        0.1236
     15 C         -26.5182   -5.2770  -15.3851 C.ar    1  UNL1        0.0016
     16 C         -26.3515   -4.2701  -16.3772 C.ar    1  UNL1        0.0016
     17 C         -27.4325   -3.4591  -16.7709 C.ar    1  UNL1        0.0206
     18 C         -28.6622   -3.6763  -16.1588 C.ar    1  UNL1        0.0985
     19 N         -29.8178   -3.0238  -16.3772 N.ar    1  UNL1       -0.2241
     20 C         -30.6768   -3.6356  -15.5196 C.ar    1  UNL1        0.1750
     21 N         -30.1025   -4.6244  -14.7930 N.ar    1  UNL1       -0.3349
     22 C         -28.8313   -4.6365  -15.2102 C.ar    1  UNL1        0.0757
     23 C         -27.7907   -5.4608  -14.7910 C.ar    1  UNL1        0.0185
     24 H         -30.5515   -5.2343  -14.0743 H       1  UNL1        0.1675
     25 C         -20.8365  -10.6016  -10.5830 C.ar    1  UNL1       -0.0165
     26 C         -19.6272  -11.2642  -10.3102 C.ar    1  UNL1        0.0142
     27 C         -18.7355  -10.7618   -9.3546 C.ar    1  UNL1        0.1054
     28 C         -19.0520   -9.5897   -8.6600 C.ar    1  UNL1        0.0185
     29 C         -20.2551   -8.9283   -8.9101 C.ar    1  UNL1        0.0055
     30 C         -21.1497   -9.4189   -9.8713 C.ar    1  UNL1        0.0497
     31 S         -17.2133  -11.5912   -9.0479 S.O2    1  UNL1        0.0104
     32 C         -16.9782  -11.7602   -7.2937 C.3     1  UNL1        0.1816
     33 O         -17.2340  -12.9526   -9.6847 O.2     1  UNL1       -0.1686
     34 O         -16.0773  -10.8015   -9.6353 O.2     1  UNL1       -0.1686
     35 C         -21.8016  -11.2214  -11.5683 C.3     1  UNL1        0.0265
     36 C         -21.6433  -12.1500  -13.9076 C.3     1  UNL1        0.0004
     37 C         -21.0730  -12.2008  -12.4935 C.3     1  UNL1        0.0047
@<TRIPOS>BOND
     1    36    37    1
     2    37    35    1
     3    35    25    1
     4    25    26   ar
     5    26    27   ar
     6    27    31    1
     7    31    32    1
     8    31    33    2
     9    31    34    2
    10    27    28   ar
    11    28    29   ar
    12    29    30   ar
    13    30     1    1
    14     1     2    2
    15     1     3   am
    16     3     4    1
    17     4     5    1
    18     5     6    1
    19     6     7    1
    20     7     8   ar
    21     8     9    1
    22     8    10   ar
    23    10    11   ar
    24    11    15    1
    25    15    16   ar
    26    16    17   ar
    27    17    18   ar
    28    18    19   ar
    29    19    20   ar
    30    20    21   ar
    31    21    22   ar
    32    22    23   ar
    33    11    12   ar
    34    12    13   ar
    35    13    14    1
    36    30    25   ar
    37    14     3    1
    38    13     7   ar
    39    23    15   ar
    40    22    18   ar
    41    21    24    1
@<TRIPOS>MOLECULE
*****
 37 41 0 0 0
SMALL
GASTEIGER

@<TRIPOS>ATOM
      1 C         -22.9190   -8.7778  -10.8539 C.2     1  UNL1        0.2491
      2 O         -23.9851   -9.4301  -10.6883 O.2     1  UNL1       -0.2699
      3 N         -22.6793   -8.0897  -12.0986 N.am    1  UNL1       -0.2680
      4 C         -21.8580   -6.8738  -12.1270 C.3     1  UNL1        0.1412
      5 C         -20.4456   -7.2066  -12.6043 C.3     1  UNL1        0.2269
      6 O         -20.4586   -8.1816  -13.6461 O.3     1  UNL1       -0.4716
      7 C         -21.3050   -8.0842  -14.7529 C.ar    1  UNL1        0.1634
      8 C         -20.7350   -7.9017  -16.0170 C.ar    1  UNL1        0.1735
      9 F         -19.3867   -7.8285  -16.1482 F       1  UNL1       -0.2010
     10 C         -21.5446   -7.7676  -17.1453 C.ar    1  UNL1        0.0328
     11 C         -22.9423   -7.8303  -17.0305 C.ar    1  UNL1        0.0022
     12 C         -23.5129   -8.0412  -15.7632 C.ar    1  UNL1        0.0005
     13 C         -22.7106   -8.1637  -14.6153 C.ar    1  UNL1        0.0339
     14 C         -23.3861   -8.5437  -13.3077 C.3     1  UNL1        0.1236
     15 C         -23.8049   -7.6924  -18.2313 C.ar    1  UNL1        0.0016
     16 C         -24.5654   -6.5077  -18.4410 C.ar    1  UNL1        0.0016
     17 C         -25.3860   -6.3684  -19.5761 C.ar    1  UNL1        0.0206
     18 C         -25.4263   -7.4245  -20.4800 C.ar    1  UNL1        0.0985
     19 N         -26.1361   -7.5068  -21.6195 N.ar    1  UNL1       -0.2241
     20 C         -25.8041   -8.7367  -22.0938 C.ar    1  UNL1        0.1750
     21 N         -24.9306   -9.4038  -21.3017 N.ar    1  UNL1       -0.3349
     22 C         -24.7026   -8.5602  -20.2885 C.ar    1  UNL1        0.0757
     23 C         -23.8785   -8.7404  -19.1812 C.ar    1  UNL1        0.0185
     24 H         -24.5299  -10.3564  -21.4508 H       1  UNL1        0.1675
     25 C         -20.6544   -9.3406   -9.8954 C.ar    1  UNL1       -0.0165
     26 C         -19.7568   -9.2866   -8.8151 C.ar    1  UNL1        0.0142
     27 C         -20.1115   -8.6470   -7.6211 C.ar    1  UNL1        0.1054
     28 C         -21.3744   -8.0582   -7.4990 C.ar    1  UNL1        0.0185
     29 C         -22.2815   -8.1157   -8.5580 C.ar    1  UNL1        0.0055
     30 C         -21.9317   -8.7460   -9.7602 C.ar    1  UNL1        0.0497
     31 S         -18.9624   -8.5658   -6.2900 S.O2    1  UNL1        0.0104
     32 C         -19.8149   -8.8599   -4.7576 C.3     1  UNL1        0.1816
     33 O         -17.8902   -9.6029   -6.4744 O.2     1  UNL1       -0.1686
     34 O         -18.3190   -7.2078   -6.2565 O.2     1  UNL1       -0.1686
     35 C         -20.2561  -10.1063  -11.1371 C.3     1  UNL1        0.0265
     36 C         -21.4845  -11.9596  -12.3269 C.3     1  UNL1        0.0004
     37 C         -20.7432  -11.5562  -11.0560 C.3     1  UNL1        0.0047
@<TRIPOS>BOND
     1    36    37    1
     2    37    35    1
     3    35    25    1
     4    25    26   ar
     5    26    27   ar
     6    27    31    1
     7    31    32    1
     8    31    33    2
     9    31    34    2
    10    27    28   ar
    11    28    29   ar
    12    29    30   ar
    13    30     1    1
    14     1     2    2
    15     1     3   am
    16     3     4    1
    17     4     5    1
    18     5     6    1
    19     6     7    1
    20     7     8   ar
    21     8     9    1
    22     8    10   ar
    23    10    11   ar
    24    11    15    1
    25    15    16   ar
    26    16    17   ar
    27    17    18   ar
    28    18    19   ar
    29    19    20   ar
    30    20    21   ar
    31    21    22   ar
    32    22    23   ar
    33    11    12   ar
    34    12    13   ar
    35    13    14    1
    36    30    25   ar
    37    14     3    1
    38    13     7   ar
    39    23    15   ar
    40    22    18   ar
    41    21    24    1
@<TRIPOS>MOLECULE
*****
 37 41 0 0 0
SMALL
GASTEIGER

@<TRIPOS>ATOM
      1 C         -22.5899   -8.6208  -12.4093 C.2     1  UNL1        0.2491
      2 O         -22.9487   -7.4122  -12.4082 O.2     1  UNL1       -0.2699
      3 N         -22.0104   -9.2032  -11.2238 N.am    1  UNL1       -0.2680
      4 C         -22.1707  -10.6356  -10.9475 C.3     1  UNL1        0.1412
      5 C         -20.9035  -11.3906  -11.3443 C.3     1  UNL1        0.2269
      6 O         -19.7275  -10.6469  -11.0283 O.3     1  UNL1       -0.4716
      7 C         -19.5323  -10.0476   -9.7818 C.ar    1  UNL1        0.1634
      8 C         -18.4929  -10.5143   -8.9706 C.ar    1  UNL1        0.1735
      9 F         -17.6971  -11.5244   -9.4029 F       1  UNL1       -0.2010
     10 C         -18.2825   -9.9657   -7.7052 C.ar    1  UNL1        0.0328
     11 C         -19.1004   -8.9266   -7.2345 C.ar    1  UNL1        0.0022
     12 C         -20.1274   -8.4399   -8.0618 C.ar    1  UNL1        0.0005
     13 C         -20.3606   -8.9924   -9.3334 C.ar    1  UNL1        0.0339
     14 C         -21.3836   -8.3152  -10.2308 C.3     1  UNL1        0.1236
     15 C         -18.8745   -8.3388   -5.8897 C.ar    1  UNL1        0.0016
     16 C         -17.6579   -7.6623   -5.5931 C.ar    1  UNL1        0.0016
     17 C         -17.4350   -7.1024   -4.3211 C.ar    1  UNL1        0.0206
     18 C         -18.4412   -7.2335   -3.3701 C.ar    1  UNL1        0.0985
     19 N         -18.4410   -6.7822   -2.1030 N.ar    1  UNL1       -0.2241
     20 C         -19.6531   -7.1858   -1.6386 C.ar    1  UNL1        0.1750
     21 N         -20.3876   -7.8578   -2.5575 N.ar    1  UNL1       -0.3349
     22 C         -19.6075   -7.8776   -3.6444 C.ar    1  UNL1        0.0757
     23 C         -19.8700   -8.4457   -4.8878 C.ar    1  UNL1        0.0185
     24 H         -21.3420   -8.2649   -2.4409 H       1  UNL1        0.1675
     25 C         -24.0064  -10.0071  -13.9699 C.ar    1  UNL1       -0.0165
     26 C         -24.1126  -10.7562  -15.1545 C.ar    1  UNL1        0.0142
     27 C         -23.0124  -10.9068  -16.0073 C.ar    1  UNL1        0.1054
     28 C         -21.7920  -10.3089  -15.6761 C.ar    1  UNL1        0.0185
     29 C         -21.6673   -9.5737  -14.4966 C.ar    1  UNL1        0.0055
     30 C         -22.7658   -9.4101  -13.6413 C.ar    1  UNL1        0.0497
     31 S         -23.1739  -11.8254  -17.5003 S.O2    1  UNL1        0.0104
     32 C         -21.7221  -12.8243  -17.7368 C.3     1  UNL1        0.1816
     33 O         -24.3860  -12.7114  -17.4283 O.2     1  UNL1       -0.1686
     34 O         -23.3330  -10.8841  -18.6612 O.2     1  UNL1       -0.1686
     35 C         -25.1992   -9.9345  -13.0434 C.3     1  UNL1        0.0265
     36 C         -26.4815   -7.9543  -12.1524 C.3     1  UNL1        0.0004
     37 C         -26.0872   -8.7385  -13.4002 C.3     1  UNL1        0.0047
@<TRIPOS>BOND
     1    36    37    1
     2    37    35    1
     3    35    25    1
     4    25    26   ar
     5    26    27   ar
     6    27    31    1
     7    31    32    1
     8    31    33    2
     9    31    34    2
    10    27    28   ar
    11    28    29   ar
    12    29    30   ar
    13    30     1    1
    14     1     2    2
    15     1     3   am
    16     3     4    1
    17     4     5    1
    18     5     6    1
    19     6     7    1
    20     7     8   ar
    21     8     9    1
    22     8    10   ar
    23    10    11   ar
    24    11    15    1
    25    15    16   ar
    26    16    17   ar
    27    17    18   ar
    28    18    19   ar
    29    19    20   ar
    30    20    21   ar
    31    21    22   ar
    32    22    23   ar
    33    11    12   ar
    34    12    13   ar
    35    13    14    1
    36    30    25   ar
    37    14     3    1
    38    13     7   ar
    39    23    15   ar
    40    22    18   ar
    41    21    24    1
@<TRIPOS>MOLECULE
*****
 37 41 0 0 0
SMALL
GASTEIGER

@<TRIPOS>ATOM
      1 C         -22.0048   -6.6078  -11.4372 C.2     1  UNL1        0.2491
      2 O         -21.2186   -5.6223  -11.4388 O.2     1  UNL1       -0.2699
      3 N         -21.6283   -7.8311  -10.7722 N.am    1  UNL1       -0.2680
      4 C         -22.6549   -8.7090  -10.1987 C.3     1  UNL1        0.1412
      5 C         -22.9280   -9.8804  -11.1404 C.3     1  UNL1        0.2269
      6 O         -21.7292  -10.3535  -11.7528 O.3     1  UNL1       -0.4716
      7 C         -20.5673  -10.6140  -11.0227 C.ar    1  UNL1        0.1634
      8 C         -20.1055  -11.9322  -10.9482 C.ar    1  UNL1        0.1735
      9 F         -20.7805  -12.9235  -11.5821 F       1  UNL1       -0.2010
     10 C         -18.9670  -12.2417  -10.2035 C.ar    1  UNL1        0.0328
     11 C         -18.2593  -11.2326   -9.5317 C.ar    1  UNL1        0.0022
     12 C         -18.7089   -9.9042   -9.6299 C.ar    1  UNL1        0.0005
     13 C         -19.8625   -9.5791  -10.3647 C.ar    1  UNL1        0.0339
     14 C         -20.1991   -8.1090  -10.5541 C.3     1  UNL1        0.1236
     15 C         -17.0448  -11.5601   -8.7426 C.ar    1  UNL1        0.0016
     16 C         -15.9309  -12.1934   -9.3623 C.ar    1  UNL1        0.0016
     17 C         -14.7757  -12.5079   -8.6220 C.ar    1  UNL1        0.0206
     18 C         -14.7626  -12.1791   -7.2709 C.ar    1  UNL1        0.0985
     19 N         -13.7747  -12.3871   -6.3820 N.ar    1  UNL1       -0.2241
     20 C         -14.2923  -11.8809   -5.2315 C.ar    1  UNL1        0.1750
     21 N         -15.5416  -11.3774   -5.3764 N.ar    1  UNL1       -0.3349
     22 C         -15.8219  -11.5732   -6.6700 C.ar    1  UNL1        0.0757
     23 C         -16.9833  -11.2442   -7.3633 C.ar    1  UNL1        0.0185
     24 H         -16.1438  -10.9382   -4.6451 H       1  UNL1        0.1675
     25 C         -23.5383   -7.1205  -13.3737 C.ar    1  UNL1       -0.0165
     26 C         -24.7884   -6.9583  -13.9953 C.ar    1  UNL1        0.0142
     27 C         -25.7904   -6.1846  -13.3970 C.ar    1  UNL1        0.1054
     28 C         -25.5447   -5.5624  -12.1686 C.ar    1  UNL1        0.0185
     29 C         -24.3038   -5.7028  -11.5459 C.ar    1  UNL1        0.0055
     30 C         -23.2979   -6.4827  -12.1332 C.ar    1  UNL1        0.0497
     31 S         -27.3590   -6.0171  -14.1783 S.O2    1  UNL1        0.0104
     32 C         -28.3037   -7.5022  -13.9265 C.3     1  UNL1        0.1816
     33 O         -28.0998   -4.8465  -13.5949 O.2     1  UNL1       -0.1686
     34 O         -27.1704   -5.7829  -15.6510 O.2     1  UNL1       -0.1686
     35 C         -22.4622   -7.9027  -14.0925 C.3     1  UNL1        0.0265
     36 C         -21.3971   -8.1664  -16.3631 C.3     1  UNL1        0.0004
     37 C         -22.6868   -7.8623  -15.6071 C.3     1  UNL1        0.0047
@<TRIPOS>BOND
     1    36    37    1
     2    37    35    1
     3    35    25    1
     4    25    26   ar
     5    26    27   ar
     6    27    31    1
     7    31    32    1
     8    31    33    2
     9    31    34    2
    10    27    28   ar
    11    28    29   ar
    12    29    30   ar
    13    30     1    1
    14     1     2    2
    15     1     3   am
    16     3     4    1
    17     4     5    1
    18     5     6    1
    19     6     7    1
    20     7     8   ar
    21     8     9    1
    22     8    10   ar
    23    10    11   ar
    24    11    15    1
    25    15    16   ar
    26    16    17   ar
    27    17    18   ar
    28    18    19   ar
    29    19    20   ar
    30    20    21   ar
    31    21    22   ar
    32    22    23   ar
    33    11    12   ar
    34    12    13   ar
    35    13    14    1
    36    30    25   ar
    37    14     3    1
    38    13     7   ar
    39    23    15   ar
    40    22    18   ar
    41    21    24    1
@<TRIPOS>MOLECULE
*****
 37 41 0 0 0
SMALL
GASTEIGER

@<TRIPOS>ATOM
      1 C         -22.0881   -9.0317   -9.8241 C.2     1  UNL1        0.2491
      2 O         -22.9935   -9.2351   -8.9706 O.2     1  UNL1       -0.2699
      3 N         -22.3442   -8.1799  -10.9596 N.am    1  UNL1       -0.2680
      4 C         -21.2507   -7.4229  -11.5797 C.3     1  UNL1        0.1412
      5 C         -20.7703   -8.1357  -12.8425 C.3     1  UNL1        0.2269
      6 O         -21.8573   -8.7035  -13.5717 O.3     1  UNL1       -0.4716
      7 C         -23.0192   -7.9857  -13.8648 C.ar    1  UNL1        0.1634
      8 C         -23.3106   -7.7020  -15.2030 C.ar    1  UNL1        0.1735
      9 F         -22.4749   -8.1273  -16.1834 F       1  UNL1       -0.2010
     10 C         -24.4438   -6.9604  -15.5383 C.ar    1  UNL1        0.0328
     11 C         -25.3164   -6.5022  -14.5388 C.ar    1  UNL1        0.0022
     12 C         -25.0370   -6.8114  -13.1962 C.ar    1  UNL1        0.0005
     13 C         -23.8914   -7.5454  -12.8420 C.ar    1  UNL1        0.0339
     14 C         -23.7364   -7.9735  -11.3917 C.3     1  UNL1        0.1236
     15 C         -26.5253   -5.7168  -14.8947 C.ar    1  UNL1        0.0016
     16 C         -26.4056   -4.4955  -15.6159 C.ar    1  UNL1        0.0016
     17 C         -27.5460   -3.7443  -15.9573 C.ar    1  UNL1        0.0206
     18 C         -28.7867   -4.2360  -15.5664 C.ar    1  UNL1        0.0985
     19 N         -29.9955   -3.6869  -15.7818 N.ar    1  UNL1       -0.2241
     20 C         -30.8396   -4.5744  -15.1921 C.ar    1  UNL1        0.1750
     21 N         -30.2059   -5.6321  -14.6309 N.ar    1  UNL1       -0.3349
     22 C         -28.9111   -5.4023  -14.8775 C.ar    1  UNL1        0.0757
     23 C         -27.8113   -6.1768  -14.5194 C.ar    1  UNL1        0.0185
     24 H         -30.6329   -6.4388  -14.1237 H       1  UNL1        0.1675
     25 C         -19.8406   -9.2147   -8.6931 C.ar    1  UNL1       -0.0165
     26 C         -18.6064   -9.8753   -8.5669 C.ar    1  UNL1        0.0142
     27 C         -18.3079  -10.9918   -9.3574 C.ar    1  UNL1        0.1054
     28 C         -19.2460  -11.4539  -10.2864 C.ar    1  UNL1        0.0185
     29 C         -20.4702  -10.8002  -10.4328 C.ar    1  UNL1        0.0055
     30 C         -20.7812   -9.6872   -9.6394 C.ar    1  UNL1        0.0497
     31 S         -16.7676  -11.8219   -9.1641 S.O2    1  UNL1        0.0104
     32 C         -16.5035  -12.1793   -7.4425 C.3     1  UNL1        0.1816
     33 O         -16.7750  -13.1048   -9.9474 O.2     1  UNL1       -0.1686
     34 O         -15.6538  -10.9515   -9.6751 O.2     1  UNL1       -0.1686
     35 C         -20.0887   -7.9694   -7.8720 C.3     1  UNL1        0.0265
     36 C         -19.6896   -8.5826   -5.4587 C.3     1  UNL1        0.0004
     37 C         -19.1129   -7.8971   -6.6936 C.3     1  UNL1        0.0047
@<TRIPOS>BOND
     1    36    37    1
     2    37    35    1
     3    35    25    1
     4    25    26   ar
     5    26    27   ar
     6    27    31    1
     7    31    32    1
     8    31    33    2
     9    31    34    2
    10    27    28   ar
    11    28    29   ar
    12    29    30   ar
    13    30     1    1
    14     1     2    2
    15     1     3   am
    16     3     4    1
    17     4     5    1
    18     5     6    1
    19     6     7    1
    20     7     8   ar
    21     8     9    1
    22     8    10   ar
    23    10    11   ar
    24    11    15    1
    25    15    16   ar
    26    16    17   ar
    27    17    18   ar
    28    18    19   ar
    29    19    20   ar
    30    20    21   ar
    31    21    22   ar
    32    22    23   ar
    33    11    12   ar
    34    12    13   ar
    35    13    14    1
    36    30    25   ar
    37    14     3    1
    38    13     7   ar
    39    23    15   ar
    40    22    18   ar
    41    21    24    1
@<TRIPOS>MOLECULE
*****
 37 41 0 0 0
SMALL
GASTEIGER

@<TRIPOS>ATOM
      1 C         -21.5657   -6.7189  -10.9044 C.2     1  UNL1        0.2491
      2 O         -21.4936   -5.5942  -10.3393 O.2     1  UNL1       -0.2699
      3 N         -22.4905   -6.9226  -11.9923 N.am    1  UNL1       -0.2680
      4 C         -22.1924   -7.9005  -13.0450 C.3     1  UNL1        0.1412
      5 C         -22.9653   -9.1938  -12.7928 C.3     1  UNL1        0.2269
      6 O         -24.2782   -8.9339  -12.2980 O.3     1  UNL1       -0.4716
      7 C         -25.1305   -7.9989  -12.8899 C.ar    1  UNL1        0.1634
      8 C         -26.3089   -8.4539  -13.4904 C.ar    1  UNL1        0.1735
      9 F         -26.6051   -9.7777  -13.4843 F       1  UNL1       -0.2010
     10 C         -27.1729   -7.5581  -14.1209 C.ar    1  UNL1        0.0328
     11 C         -26.8804   -6.1855  -14.1475 C.ar    1  UNL1        0.0022
     12 C         -25.7095   -5.7261  -13.5197 C.ar    1  UNL1        0.0005
     13 C         -24.8221   -6.6184  -12.8930 C.ar    1  UNL1        0.0339
     14 C         -23.6607   -6.0361  -12.1040 C.3     1  UNL1        0.1236
     15 C         -27.8016   -5.2305  -14.8142 C.ar    1  UNL1        0.0016
     16 C         -27.3103   -4.3120  -15.7841 C.ar    1  UNL1        0.0016
     17 C         -28.1762   -3.4030  -16.4208 C.ar    1  UNL1        0.0206
     18 C         -29.5214   -3.4350  -16.0697 C.ar    1  UNL1        0.0985
     19 N         -30.5154   -2.6637  -16.5451 N.ar    1  UNL1       -0.2241
     20 C         -31.6010   -3.1163  -15.8636 C.ar    1  UNL1        0.1750
     21 N         -31.3171   -4.1210  -15.0004 N.ar    1  UNL1       -0.3349
     22 C         -30.0003   -4.3096  -15.1444 C.ar    1  UNL1        0.0757
     23 C         -29.1806   -5.2253  -14.4907 C.ar    1  UNL1        0.0185
     24 H         -31.9764   -4.6289  -14.3698 H       1  UNL1        0.1675
     25 C         -21.1145   -8.6896   -9.3955 C.ar    1  UNL1       -0.0165
     26 C         -20.2417   -9.7065   -8.9714 C.ar    1  UNL1        0.0142
     27 C         -18.9800   -9.8581   -9.5593 C.ar    1  UNL1        0.1054
     28 C         -18.5806   -8.9862  -10.5776 C.ar    1  UNL1        0.0185
     29 C         -19.4307   -7.9632  -10.9998 C.ar    1  UNL1        0.0055
     30 C         -20.6991   -7.8095  -10.4233 C.ar    1  UNL1        0.0497
     31 S         -17.9129  -11.1556   -9.0331 S.O2    1  UNL1        0.0104
     32 C         -18.3767  -12.6662   -9.8483 C.3     1  UNL1        0.1816
     33 O         -16.4885  -10.8182   -9.3748 O.2     1  UNL1       -0.1686
     34 O         -18.0229  -11.3315   -7.5445 O.2     1  UNL1       -0.1686
     35 C         -22.4359   -8.5175   -8.6808 C.3     1  UNL1        0.0265
     36 C         -24.7666   -9.3518   -9.1617 C.3     1  UNL1        0.0004
     37 C         -23.3215   -9.7513   -8.8799 C.3     1  UNL1        0.0047
@<TRIPOS>BOND
     1    36    37    1
     2    37    35    1
     3    35    25    1
     4    25    26   ar
     5    26    27   ar
     6    27    31    1
     7    31    32    1
     8    31    33    2
     9    31    34    2
    10    27    28   ar
    11    28    29   ar
    12    29    30   ar
    13    30     1    1
    14     1     2    2
    15     1     3   am
    16     3     4    1
    17     4     5    1
    18     5     6    1
    19     6     7    1
    20     7     8   ar
    21     8     9    1
    22     8    10   ar
    23    10    11   ar
    24    11    15    1
    25    15    16   ar
    26    16    17   ar
    27    17    18   ar
    28    18    19   ar
    29    19    20   ar
    30    20    21   ar
    31    21    22   ar
    32    22    23   ar
    33    11    12   ar
    34    12    13   ar
    35    13    14    1
    36    30    25   ar
    37    14     3    1
    38    13     7   ar
    39    23    15   ar
    40    22    18   ar
    41    21    24    1
@<TRIPOS>MOLECULE
*****
 37 41 0 0 0
SMALL
GASTEIGER

@<TRIPOS>ATOM
      1 C         -20.6517   -7.8401   -9.7001 C.2     1  UNL1        0.2491
      2 O         -20.7754   -6.8110   -8.9823 O.2     1  UNL1       -0.2699
      3 N         -21.4563   -7.9935  -10.8873 N.am    1  UNL1       -0.2680
      4 C         -20.9503   -8.7607  -12.0314 C.3     1  UNL1        0.1412
      5 C         -21.5571  -10.1625  -12.0318 C.3     1  UNL1        0.2269
      6 O         -22.9264  -10.1430  -11.6310 O.3     1  UNL1       -0.4716
      7 C         -23.8511   -9.2434  -12.1665 C.ar    1  UNL1        0.1634
      8 C         -24.9085   -9.7469  -12.9311 C.ar    1  UNL1        0.1735
      9 F         -25.0219  -11.0835  -13.1337 F       1  UNL1       -0.2010
     10 C         -25.8366   -8.8816  -13.5111 C.ar    1  UNL1        0.0328
     11 C         -25.7320   -7.4945  -13.3223 C.ar    1  UNL1        0.0022
     12 C         -24.6845   -6.9918  -12.5309 C.ar    1  UNL1        0.0005
     13 C         -23.7336   -7.8503  -11.9520 C.ar    1  UNL1        0.0339
     14 C         -22.7243   -7.2518  -10.9856 C.3     1  UNL1        0.1236
     15 C         -26.7218   -6.5729  -13.9353 C.ar    1  UNL1        0.0016
     16 C         -26.3068   -5.3213  -14.4711 C.ar    1  UNL1        0.0016
     17 C         -27.2381   -4.4412  -15.0537 C.ar    1  UNL1        0.0206
     18 C         -28.5709   -4.8370  -15.0865 C.ar    1  UNL1        0.0985
     19 N         -29.6192   -4.1598  -15.5882 N.ar    1  UNL1       -0.2241
     20 C         -30.6614   -5.0008  -15.3549 C.ar    1  UNL1        0.1750
     21 N         -30.2997   -6.1517  -14.7384 N.ar    1  UNL1       -0.3349
     22 C         -28.9769   -6.0313  -14.5776 C.ar    1  UNL1        0.0757
     23 C         -28.0908   -6.9318  -13.9930 C.ar    1  UNL1        0.0185
     24 H         -30.9143   -6.9470  -14.4556 H       1  UNL1        0.1675
     25 C         -19.2319   -8.9843   -7.9568 C.ar    1  UNL1       -0.0165
     26 C         -18.3010   -9.9852   -7.6295 C.ar    1  UNL1        0.0142
     27 C         -17.8288  -10.8706   -8.6060 C.ar    1  UNL1        0.1054
     28 C         -18.2847  -10.7566   -9.9235 C.ar    1  UNL1        0.0185
     29 C         -19.1985   -9.7592  -10.2666 C.ar    1  UNL1        0.0055
     30 C         -19.6835   -8.8742   -9.2938 C.ar    1  UNL1        0.0497
     31 S         -16.6844  -12.1351   -8.1696 S.O2    1  UNL1        0.0104
     32 C         -15.3506  -12.1532   -9.3452 C.3     1  UNL1        0.1816
     33 O         -16.1366  -11.8780   -6.7936 O.2     1  UNL1       -0.1686
     34 O         -17.3765  -13.4693   -8.1715 O.2     1  UNL1       -0.1686
     35 C         -19.6563   -8.0045   -6.8861 C.3     1  UNL1        0.0265
     36 C         -18.3165   -7.4702   -4.8176 C.3     1  UNL1        0.0004
     37 C         -19.2168   -8.4936   -5.5027 C.3     1  UNL1        0.0047
@<TRIPOS>BOND
     1    36    37    1
     2    37    35    1
     3    35    25    1
     4    25    26   ar
     5    26    27   ar
     6    27    31    1
     7    31    32    1
     8    31    33    2
     9    31    34    2
    10    27    28   ar
    11    28    29   ar
    12    29    30   ar
    13    30     1    1
    14     1     2    2
    15     1     3   am
    16     3     4    1
    17     4     5    1
    18     5     6    1
    19     6     7    1
    20     7     8   ar
    21     8     9    1
    22     8    10   ar
    23    10    11   ar
    24    11    15    1
    25    15    16   ar
    26    16    17   ar
    27    17    18   ar
    28    18    19   ar
    29    19    20   ar
    30    20    21   ar
    31    21    22   ar
    32    22    23   ar
    33    11    12   ar
    34    12    13   ar
    35    13    14    1
    36    30    25   ar
    37    14     3    1
    38    13     7   ar
    39    23    15   ar
    40    22    18   ar
    41    21    24    1
@<TRIPOS>MOLECULE
*****
 37 41 0 0 0
SMALL
GASTEIGER

@<TRIPOS>ATOM
      1 C         -21.9490   -9.8133  -13.1861 C.2     1  UNL1        0.2491
      2 O         -21.7673  -10.2154  -14.3672 O.2     1  UNL1       -0.2699
      3 N         -23.1002   -9.0050  -12.8674 N.am    1  UNL1       -0.2680
      4 C         -23.6910   -9.0534  -11.5249 C.3     1  UNL1        0.1412
      5 C         -23.2300   -7.8493  -10.7059 C.3     1  UNL1        0.2269
      6 O         -23.1612   -6.6670  -11.5018 O.3     1  UNL1       -0.4716
      7 C         -24.1987   -6.2737  -12.3505 C.ar    1  UNL1        0.1634
      8 C         -24.8809   -5.0861  -12.0670 C.ar    1  UNL1        0.1735
      9 F         -24.5261   -4.3412  -10.9902 F       1  UNL1       -0.2010
     10 C         -25.9442   -4.6723  -12.8701 C.ar    1  UNL1        0.0328
     11 C         -26.3340   -5.4334  -13.9833 C.ar    1  UNL1        0.0022
     12 C         -25.6298   -6.6126  -14.2829 C.ar    1  UNL1        0.0005
     13 C         -24.5657   -7.0496  -13.4747 C.ar    1  UNL1        0.0339
     14 C         -23.7542   -8.2455  -13.9458 C.3     1  UNL1        0.1236
     15 C         -27.4625   -4.9916  -14.8414 C.ar    1  UNL1        0.0016
     16 C         -28.7863   -5.4462  -14.5829 C.ar    1  UNL1        0.0016
     17 C         -29.8620   -5.0330  -15.3912 C.ar    1  UNL1        0.0206
     18 C         -29.5858   -4.1693  -16.4456 C.ar    1  UNL1        0.0985
     19 N         -30.4514   -3.6544  -17.3370 N.ar    1  UNL1       -0.2241
     20 C         -29.6514   -2.8927  -18.1293 C.ar    1  UNL1        0.1750
     21 N         -28.3468   -2.9192  -17.7649 N.ar    1  UNL1       -0.3349
     22 C         -28.3241   -3.7290  -16.7001 C.ar    1  UNL1        0.0757
     23 C         -27.2316   -4.1117  -15.9270 C.ar    1  UNL1        0.0185
     24 H         -27.5464   -2.4210  -18.2138 H       1  UNL1        0.1675
     25 C         -20.6966  -11.5277  -11.8235 C.ar    1  UNL1       -0.0165
     26 C         -19.7496  -11.8143  -10.8252 C.ar    1  UNL1        0.0142
     27 C         -19.0667  -10.7830  -10.1691 C.ar    1  UNL1        0.1054
     28 C         -19.3316   -9.4517  -10.5070 C.ar    1  UNL1        0.0185
     29 C         -20.2791   -9.1510  -11.4864 C.ar    1  UNL1        0.0055
     30 C         -20.9610  -10.1772  -12.1548 C.ar    1  UNL1        0.0497
     31 S         -17.8640  -11.1641   -8.9414 S.O2    1  UNL1        0.0104
     32 C         -17.8143  -12.9239   -8.6923 C.3     1  UNL1        0.1816
     33 O         -16.5105  -10.6816   -9.3826 O.2     1  UNL1       -0.1686
     34 O         -18.2218  -10.4819   -7.6507 O.2     1  UNL1       -0.1686
     35 C         -21.4630  -12.6700  -12.4515 C.3     1  UNL1        0.0265
     36 C         -21.4263  -13.7432  -14.7333 C.3     1  UNL1        0.0004
     37 C         -20.6039  -13.3841  -13.4994 C.3     1  UNL1        0.0047
@<TRIPOS>BOND
     1    36    37    1
     2    37    35    1
     3    35    25    1
     4    25    26   ar
     5    26    27   ar
     6    27    31    1
     7    31    32    1
     8    31    33    2
     9    31    34    2
    10    27    28   ar
    11    28    29   ar
    12    29    30   ar
    13    30     1    1
    14     1     2    2
    15     1     3   am
    16     3     4    1
    17     4     5    1
    18     5     6    1
    19     6     7    1
    20     7     8   ar
    21     8     9    1
    22     8    10   ar
    23    10    11   ar
    24    11    15    1
    25    15    16   ar
    26    16    17   ar
    27    17    18   ar
    28    18    19   ar
    29    19    20   ar
    30    20    21   ar
    31    21    22   ar
    32    22    23   ar
    33    11    12   ar
    34    12    13   ar
    35    13    14    1
    36    30    25   ar
    37    14     3    1
    38    13     7   ar
    39    23    15   ar
    40    22    18   ar
    41    21    24    1
@<TRIPOS>MOLECULE
*****
 37 41 0 0 0
SMALL
GASTEIGER

@<TRIPOS>ATOM
      1 C         -22.6833   -8.9582  -12.3669 C.2     1  UNL1        0.2491
      2 O         -23.1502   -7.7871  -12.3758 O.2     1  UNL1       -0.2699
      3 N         -22.0457   -9.4726  -11.1798 N.am    1  UNL1       -0.2680
      4 C         -22.0737  -10.9104  -10.8875 C.3     1  UNL1        0.1412
      5 C         -20.7459  -11.5520  -11.2858 C.3     1  UNL1        0.2269
      6 O         -19.6401  -10.7014  -10.9864 O.3     1  UNL1       -0.4716
      7 C         -19.4919  -10.0731   -9.7477 C.ar    1  UNL1        0.1634
      8 C         -18.4092  -10.4347   -8.9394 C.ar    1  UNL1        0.1735
      9 F         -17.5281  -11.3733   -9.3671 F       1  UNL1       -0.2010
     10 C         -18.2412   -9.8553   -7.6814 C.ar    1  UNL1        0.0328
     11 C         -19.1470   -8.8894   -7.2154 C.ar    1  UNL1        0.0022
     12 C         -20.2192   -8.5069   -8.0401 C.ar    1  UNL1        0.0005
     13 C         -20.4096   -9.0923   -9.3041 C.ar    1  UNL1        0.0339
     14 C         -21.4956   -8.5205  -10.2009 C.3     1  UNL1        0.1236
     15 C         -18.9666   -8.2687   -5.8786 C.ar    1  UNL1        0.0016
     16 C         -17.8101   -7.4888   -5.5954 C.ar    1  UNL1        0.0016
     17 C         -17.6307   -6.8970   -4.3310 C.ar    1  UNL1        0.0206
     18 C         -18.6189   -7.1010   -3.3740 C.ar    1  UNL1        0.0985
     19 N         -18.6521   -6.6362   -2.1122 N.ar    1  UNL1       -0.2241
     20 C         -19.8243   -7.1348   -1.6377 C.ar    1  UNL1        0.1750
     21 N         -20.5029   -7.8771   -2.5453 N.ar    1  UNL1       -0.3349
     22 C         -19.7278   -7.8442   -3.6354 C.ar    1  UNL1        0.0757
     23 C         -19.9460   -8.4470   -4.8710 C.ar    1  UNL1        0.0185
     24 H         -21.4193   -8.3616   -2.4197 H       1  UNL1        0.1675
     25 C         -22.0197   -9.4961  -14.7406 C.ar    1  UNL1       -0.0165
     26 C         -22.1749  -10.3032  -15.8808 C.ar    1  UNL1        0.0142
     27 C         -23.0761  -11.3748  -15.8820 C.ar    1  UNL1        0.1054
     28 C         -23.8341  -11.6441  -14.7377 C.ar    1  UNL1        0.0185
     29 C         -23.7011  -10.8432  -13.6027 C.ar    1  UNL1        0.0055
     30 C         -22.7949   -9.7738  -13.5893 C.ar    1  UNL1        0.0497
     31 S         -23.2351  -12.3909  -17.3108 S.O2    1  UNL1        0.0104
     32 C         -21.9086  -13.5744  -17.3419 C.3     1  UNL1        0.1816
     33 O         -24.5523  -13.1145  -17.2811 O.2     1  UNL1       -0.1686
     34 O         -23.1805  -11.5395  -18.5482 O.2     1  UNL1       -0.1686
     35 C         -21.0903   -8.3054  -14.8109 C.3     1  UNL1        0.0265
     36 C         -22.3307   -7.3590  -16.7921 C.3     1  UNL1        0.0004
     37 C         -20.9732   -7.7969  -16.2509 C.3     1  UNL1        0.0047
@<TRIPOS>BOND
     1    36    37    1
     2    37    35    1
     3    35    25    1
     4    25    26   ar
     5    26    27   ar
     6    27    31    1
     7    31    32    1
     8    31    33    2
     9    31    34    2
    10    27    28   ar
    11    28    29   ar
    12    29    30   ar
    13    30     1    1
    14     1     2    2
    15     1     3   am
    16     3     4    1
    17     4     5    1
    18     5     6    1
    19     6     7    1
    20     7     8   ar
    21     8     9    1
    22     8    10   ar
    23    10    11   ar
    24    11    15    1
    25    15    16   ar
    26    16    17   ar
    27    17    18   ar
    28    18    19   ar
    29    19    20   ar
    30    20    21   ar
    31    21    22   ar
    32    22    23   ar
    33    11    12   ar
    34    12    13   ar
    35    13    14    1
    36    30    25   ar
    37    14     3    1
    38    13     7   ar
    39    23    15   ar
    40    22    18   ar
    41    21    24    1
