@<TRIPOS>MOLECULE
*****
 43 48 0 0 0
SMALL
GASTEIGER

@<TRIPOS>ATOM
      1 N          59.8274   88.3546    6.9950 N.pl3   1  UNL1       -0.3041
      2 C          60.0519   88.8807    8.3492 C.3     1  UNL1        0.1122
      3 C          60.7071   87.8230    9.2430 C.3     1  UNL1        0.1122
      4 N          59.9739   86.5482    9.1994 N.pl3   1  UNL1       -0.3041
      5 C          59.0211   86.2870    8.1105 C.3     1  UNL1        0.1122
      6 C          59.4948   86.9340    6.8053 C.3     1  UNL1        0.1122
      7 C          59.8884   90.9947    3.6353 C.ar    1  UNL1        0.0699
      8 C          61.0333   90.2616    3.9873 C.ar    1  UNL1        0.0190
      9 C          61.0149   89.3989    5.0866 C.ar    1  UNL1        0.0160
     10 C          59.8477   89.2441    5.8558 C.ar    1  UNL1        0.0480
     11 C          58.7009   89.9749    5.4984 C.ar    1  UNL1        0.0160
     12 C          58.7202   90.8379    4.3993 C.ar    1  UNL1        0.0190
     13 N          59.7522   92.7202    0.4466 N.ar    1  UNL1       -0.2024
     14 N          60.1215   93.7163    1.2392 N.ar    1  UNL1       -0.1442
     15 C          60.2204   93.1963    2.4821 C.ar    1  UNL1        0.2073
     16 N          59.9129   91.8789    2.4978 N.ar    1  UNL1       -0.2398
     17 C          59.6138   91.6209    1.2091 C.ar    1  UNL1        0.3522
     18 O          59.2128   90.5063    0.7775 O.2     1  UNL1       -0.2444
     19 C          59.4567   92.8587   -0.9829 C.3     1  UNL1        0.1099
     20 C          60.4516   93.8345   -1.6251 C.3     1  UNL1        0.0265
     21 C          57.0420   92.1564   -1.4528 C.3     1  UNL1        0.0021
     22 C          57.9952   93.3154   -1.1604 C.3     1  UNL1        0.0245
     23 C          60.1311   85.5937   10.2734 C.ar    1  UNL1        0.0481
     24 C          61.2775   85.6157   11.0883 C.ar    1  UNL1        0.0176
     25 C          61.4298   84.6941   12.1283 C.ar    1  UNL1        0.0382
     26 C          60.4344   83.7313   12.3753 C.ar    1  UNL1        0.1388
     27 C          59.2919   83.7103   11.5695 C.ar    1  UNL1        0.0382
     28 C          59.1382   84.6302   10.5288 C.ar    1  UNL1        0.0176
     29 O          60.5416   82.7840   13.4039 O.3     1  UNL1       -0.4727
     30 C          61.7143   82.5743   14.1868 C.3     1  UNL1        0.2374
     31 C          62.3010   81.1947   13.8705 C.3     1  UNL1        0.1910
     32 C          63.8088   81.2061   13.8560 C.3     1  UNL1        0.1785
     33 O          64.1808   81.2740   12.5180 O.3     1  UNL1       -0.3244
     34 C          63.0646   80.8011   11.7979 C.3     1  UNL1        0.2610
     35 O          61.9013   80.7973   12.5944 O.3     1  UNL1       -0.3231
     36 C          62.8183   81.6497   10.5686 C.ar    1  UNL1        0.0442
     37 C          63.7499   82.6384   10.1944 C.ar    1  UNL1        0.0023
     38 C          63.5117   83.4599    9.0903 C.ar    1  UNL1        0.0113
     39 C          62.3343   83.3204    8.3537 C.ar    1  UNL1        0.0585
     40 CL         62.0367   84.3564    6.9699 Cl      1  UNL1       -0.0822
     41 C          61.3878   82.3637    8.7278 C.ar    1  UNL1        0.0226
     42 C          61.6153   81.5353    9.8338 C.ar    1  UNL1        0.0592
     43 CL         60.3576   80.3847   10.2773 Cl      1  UNL1       -0.0824
@<TRIPOS>BOND
     1    21    22    1
     2    22    19    1
     3    19    20    1
     4    19    13    1
     5    13    14   ar
     6    14    15   ar
     7    15    16   ar
     8    16     7    1
     9     7     8   ar
    10     8     9   ar
    11     9    10   ar
    12    10     1    1
    13     1     2    1
    14     2     3    1
    15     3     4    1
    16     4    23    1
    17    23    24   ar
    18    24    25   ar
    19    25    26   ar
    20    26    29    1
    21    29    30    1
    22    30    31    1
    23    31    32    1
    24    32    33    1
    25    33    34    1
    26    34    36    1
    27    36    37   ar
    28    37    38   ar
    29    38    39   ar
    30    39    40    1
    31    39    41   ar
    32    41    42   ar
    33    42    43    1
    34    34    35    1
    35    26    27   ar
    36    27    28   ar
    37     4     5    1
    38     5     6    1
    39    10    11   ar
    40    11    12   ar
    41    16    17   ar
    42    17    18    2
    43    17    13   ar
    44    12     7   ar
    45     6     1    1
    46    28    23   ar
    47    35    31    1
    48    42    36   ar
@<TRIPOS>MOLECULE
*****
 43 48 0 0 0
SMALL
GASTEIGER

@<TRIPOS>ATOM
      1 N          59.7843   88.3024    6.9359 N.pl3   1  UNL1       -0.3041
      2 C          59.9272   88.8165    8.3058 C.3     1  UNL1        0.1122
      3 C          60.5754   87.7687    9.2162 C.3     1  UNL1        0.1122
      4 N          59.8888   86.4708    9.1219 N.pl3   1  UNL1       -0.3041
      5 C          58.9975   86.1934    7.9860 C.3     1  UNL1        0.1122
      6 C          59.5095   86.8743    6.7128 C.3     1  UNL1        0.1122
      7 C          59.9137   90.9903    3.6163 C.ar    1  UNL1        0.0699
      8 C          61.0437   90.2334    3.9657 C.ar    1  UNL1        0.0190
      9 C          61.0030   89.3550    5.0519 C.ar    1  UNL1        0.0160
     10 C          59.8277   89.2081    5.8102 C.ar    1  UNL1        0.0480
     11 C          58.6957   89.9628    5.4554 C.ar    1  UNL1        0.0160
     12 C          58.7373   90.8414    4.3694 C.ar    1  UNL1        0.0190
     13 N          59.8874   92.7504    0.4437 N.ar    1  UNL1       -0.2024
     14 N          60.1434   93.7549    1.2696 N.ar    1  UNL1       -0.1442
     15 C          60.1902   93.2238    2.5109 C.ar    1  UNL1        0.2073
     16 N          59.9612   91.8907    2.4923 N.ar    1  UNL1       -0.2398
     17 C          59.7642   91.6340    1.1838 C.ar    1  UNL1        0.3522
     18 O          59.4596   90.5042    0.7146 O.2     1  UNL1       -0.2444
     19 C          59.6798   92.8918   -1.0009 C.3     1  UNL1        0.1099
     20 C          60.8029   93.7457   -1.6041 C.3     1  UNL1        0.0265
     21 C          57.1769   92.4426   -1.2808 C.3     1  UNL1        0.0021
     22 C          58.2853   93.4954   -1.2598 C.3     1  UNL1        0.0245
     23 C          60.0279   85.5070   10.1901 C.ar    1  UNL1        0.0481
     24 C          58.9774   84.6238   10.4984 C.ar    1  UNL1        0.0176
     25 C          59.1114   83.6901   11.5300 C.ar    1  UNL1        0.0382
     26 C          60.3033   83.6204   12.2741 C.ar    1  UNL1        0.1388
     27 C          61.3505   84.4943   11.9665 C.ar    1  UNL1        0.0382
     28 C          61.2181   85.4288   10.9361 C.ar    1  UNL1        0.0176
     29 O          60.4856   82.7039   13.3199 O.3     1  UNL1       -0.4727
     30 C          61.6515   82.6359   14.1373 C.3     1  UNL1        0.2374
     31 C          62.1490   81.1882   14.2001 C.3     1  UNL1        0.1910
     32 C          63.3788   80.9708   13.3550 C.3     1  UNL1        0.1785
     33 O          62.9357   80.3890   12.1724 O.3     1  UNL1       -0.3244
     34 C          61.6855   79.8173   12.4857 C.3     1  UNL1        0.2610
     35 O          61.1700   80.3343   13.6918 O.3     1  UNL1       -0.3231
     36 C          60.6867   80.0658   11.3754 C.ar    1  UNL1        0.0442
     37 C          61.1012   80.6791   10.1764 C.ar    1  UNL1        0.0023
     38 C          60.1808   80.9572    9.1635 C.ar    1  UNL1        0.0113
     39 C          58.8316   80.6447    9.3371 C.ar    1  UNL1        0.0585
     40 CL         57.6776   80.9989    8.0643 Cl      1  UNL1       -0.0822
     41 C          58.3995   80.0616   10.5306 C.ar    1  UNL1        0.0226
     42 C          59.3132   79.7794   11.5537 C.ar    1  UNL1        0.0592
     43 CL         58.6914   79.0888   13.0500 Cl      1  UNL1       -0.0824
@<TRIPOS>BOND
     1    21    22    1
     2    22    19    1
     3    19    20    1
     4    19    13    1
     5    13    14   ar
     6    14    15   ar
     7    15    16   ar
     8    16     7    1
     9     7     8   ar
    10     8     9   ar
    11     9    10   ar
    12    10     1    1
    13     1     2    1
    14     2     3    1
    15     3     4    1
    16     4    23    1
    17    23    24   ar
    18    24    25   ar
    19    25    26   ar
    20    26    29    1
    21    29    30    1
    22    30    31    1
    23    31    32    1
    24    32    33    1
    25    33    34    1
    26    34    36    1
    27    36    37   ar
    28    37    38   ar
    29    38    39   ar
    30    39    40    1
    31    39    41   ar
    32    41    42   ar
    33    42    43    1
    34    34    35    1
    35    26    27   ar
    36    27    28   ar
    37     4     5    1
    38     5     6    1
    39    10    11   ar
    40    11    12   ar
    41    16    17   ar
    42    17    18    2
    43    17    13   ar
    44    12     7   ar
    45     6     1    1
    46    28    23   ar
    47    35    31    1
    48    42    36   ar
@<TRIPOS>MOLECULE
*****
 43 48 0 0 0
SMALL
GASTEIGER

@<TRIPOS>ATOM
      1 N          59.6323   88.1359    7.0539 N.pl3   1  UNL1       -0.3041
      2 C          59.8450   88.5699    8.4423 C.3     1  UNL1        0.1122
      3 C          60.4328   87.4333    9.2846 C.3     1  UNL1        0.1122
      4 N          59.6480   86.1963    9.1473 N.pl3   1  UNL1       -0.3041
      5 C          58.7124   86.0423    8.0236 C.3     1  UNL1        0.1122
      6 C          59.2451   86.7449    6.7709 C.3     1  UNL1        0.1122
      7 C          59.8879   90.9668    3.8630 C.ar    1  UNL1        0.0699
      8 C          60.9803   90.1406    4.1729 C.ar    1  UNL1        0.0190
      9 C          60.8984   89.2154    5.2170 C.ar    1  UNL1        0.0160
     10 C          59.7182   89.0901    5.9716 C.ar    1  UNL1        0.0480
     11 C          58.6236   89.9144    5.6563 C.ar    1  UNL1        0.0160
     12 C          58.7065   90.8398    4.6123 C.ar    1  UNL1        0.0190
     13 N          59.9390   92.8736    0.7767 N.ar    1  UNL1       -0.2024
     14 N          60.2534   93.8228    1.6467 N.ar    1  UNL1       -0.1442
     15 C          60.2784   93.2319    2.8613 C.ar    1  UNL1        0.2073
     16 N          59.9776   91.9153    2.7821 N.ar    1  UNL1       -0.2398
     17 C          59.7598   91.7318    1.4646 C.ar    1  UNL1        0.3522
     18 O          59.3920   90.6433    0.9455 O.2     1  UNL1       -0.2444
     19 C          59.7312   93.0941   -0.6580 C.3     1  UNL1        0.1099
     20 C          58.2769   92.7718   -1.0260 C.3     1  UNL1        0.0265
     21 C          62.1880   92.6673   -1.2295 C.3     1  UNL1        0.0021
     22 C          60.7372   92.2419   -1.4565 C.3     1  UNL1        0.0245
     23 C          59.7383   85.1735   10.1646 C.ar    1  UNL1        0.0481
     24 C          60.7942   85.1796   11.0938 C.ar    1  UNL1        0.0176
     25 C          60.8817   84.1919   12.0791 C.ar    1  UNL1        0.0382
     26 C          59.9103   83.1771   12.1554 C.ar    1  UNL1        0.1388
     27 C          58.8573   83.1716   11.2356 C.ar    1  UNL1        0.0382
     28 C          58.7687   84.1576   10.2494 C.ar    1  UNL1        0.0176
     29 O          59.9552   82.1629   13.1229 O.3     1  UNL1       -0.4727
     30 C          59.4084   80.8581   12.9481 C.3     1  UNL1        0.2374
     31 C          60.5454   79.8428   12.7942 C.3     1  UNL1        0.1910
     32 C          61.7833   80.2542   13.5508 C.3     1  UNL1        0.1785
     33 O          62.6400   80.8167   12.6112 O.3     1  UNL1       -0.3244
     34 C          62.2140   80.3062   11.3678 C.3     1  UNL1        0.2610
     35 O          60.9182   79.7572   11.4527 O.3     1  UNL1       -0.3231
     36 C          62.2230   81.3890   10.3098 C.ar    1  UNL1        0.0442
     37 C          61.2080   81.4311    9.3333 C.ar    1  UNL1        0.0023
     38 C          61.2306   82.3957    8.3236 C.ar    1  UNL1        0.0113
     39 C          62.2737   83.3212    8.2616 C.ar    1  UNL1        0.0585
     40 CL         62.3009   84.5291    6.9898 Cl      1  UNL1       -0.0822
     41 C          63.3022   83.2760    9.2057 C.ar    1  UNL1        0.0226
     42 C          63.2906   82.3124   10.2217 C.ar    1  UNL1        0.0592
     43 CL         64.6441   82.2831   11.3485 Cl      1  UNL1       -0.0824
@<TRIPOS>BOND
     1    21    22    1
     2    22    19    1
     3    19    20    1
     4    19    13    1
     5    13    14   ar
     6    14    15   ar
     7    15    16   ar
     8    16     7    1
     9     7     8   ar
    10     8     9   ar
    11     9    10   ar
    12    10     1    1
    13     1     2    1
    14     2     3    1
    15     3     4    1
    16     4    23    1
    17    23    24   ar
    18    24    25   ar
    19    25    26   ar
    20    26    29    1
    21    29    30    1
    22    30    31    1
    23    31    32    1
    24    32    33    1
    25    33    34    1
    26    34    36    1
    27    36    37   ar
    28    37    38   ar
    29    38    39   ar
    30    39    40    1
    31    39    41   ar
    32    41    42   ar
    33    42    43    1
    34    34    35    1
    35    26    27   ar
    36    27    28   ar
    37     4     5    1
    38     5     6    1
    39    10    11   ar
    40    11    12   ar
    41    16    17   ar
    42    17    18    2
    43    17    13   ar
    44    12     7   ar
    45     6     1    1
    46    28    23   ar
    47    35    31    1
    48    42    36   ar
@<TRIPOS>MOLECULE
*****
 43 48 0 0 0
SMALL
GASTEIGER

@<TRIPOS>ATOM
      1 N          59.8620   88.2434    7.1582 N.pl3   1  UNL1       -0.3041
      2 C          60.0954   88.8302    8.4857 C.3     1  UNL1        0.1122
      3 C          60.7271   87.8041    9.4316 C.3     1  UNL1        0.1122
      4 N          59.9677   86.5440    9.4484 N.pl3   1  UNL1       -0.3041
      5 C          59.0114   86.2497    8.3712 C.3     1  UNL1        0.1122
      6 C          59.5003   86.8223    7.0371 C.3     1  UNL1        0.1122
      7 C          59.9796   90.6929    3.6585 C.ar    1  UNL1        0.0699
      8 C          58.8334   90.6617    4.4692 C.ar    1  UNL1        0.0190
      9 C          58.7933   89.8601    5.6131 C.ar    1  UNL1        0.0160
     10 C          59.9024   89.0756    5.9770 C.ar    1  UNL1        0.0480
     11 C          61.0511   89.1124    5.1670 C.ar    1  UNL1        0.0160
     12 C          61.0903   89.9139    4.0228 C.ar    1  UNL1        0.0190
     13 N          60.6828   92.8522    0.8289 N.ar    1  UNL1       -0.2024
     14 N          59.3962   92.6071    0.6257 N.ar    1  UNL1       -0.1442
     15 C          58.9981   91.8039    1.6363 C.ar    1  UNL1        0.2073
     16 N          60.0159   91.5253    2.4829 N.ar    1  UNL1       -0.2398
     17 C          61.0551   92.1885    1.9380 C.ar    1  UNL1        0.3522
     18 O          62.2348   92.1576    2.3815 O.2     1  UNL1       -0.2444
     19 C          61.5360   93.6287   -0.0761 C.3     1  UNL1        0.1099
     20 C          60.8117   93.8460   -1.4113 C.3     1  UNL1        0.0265
     21 C          62.9356   92.0507   -1.5237 C.3     1  UNL1        0.0021
     22 C          62.8840   92.9029   -0.2555 C.3     1  UNL1        0.0245
     23 C          60.1036   85.6400   10.5680 C.ar    1  UNL1        0.0481
     24 C          61.2490   85.6780   11.3836 C.ar    1  UNL1        0.0176
     25 C          61.3807   84.8053   12.4677 C.ar    1  UNL1        0.0382
     26 C          60.3651   83.8766   12.7590 C.ar    1  UNL1        0.1388
     27 C          59.2235   83.8401   11.9524 C.ar    1  UNL1        0.0382
     28 C          59.0905   84.7110   10.8678 C.ar    1  UNL1        0.0176
     29 O          60.4512   82.9786   13.8328 O.3     1  UNL1       -0.4727
     30 C          61.6735   82.5458   14.4250 C.3     1  UNL1        0.2374
     31 C          61.9535   81.0952   14.0193 C.3     1  UNL1        0.1910
     32 C          63.4294   80.8132   13.8931 C.3     1  UNL1        0.1785
     33 O          63.7181   80.8714   12.5343 O.3     1  UNL1       -0.3244
     34 C          62.4851   80.6602   11.8835 C.3     1  UNL1        0.2610
     35 O          61.3994   80.8450   12.7637 O.3     1  UNL1       -0.3231
     36 C          62.3307   81.5984   10.7055 C.ar    1  UNL1        0.0442
     37 C          61.2036   81.4984    9.8657 C.ar    1  UNL1        0.0023
     38 C          61.0724   82.3259    8.7482 C.ar    1  UNL1        0.0113
     39 C          62.0700   83.2526    8.4412 C.ar    1  UNL1        0.0585
     40 CL         61.9038   84.2878    7.0348 Cl      1  UNL1       -0.0822
     41 C          63.2067   83.3456    9.2478 C.ar    1  UNL1        0.0226
     42 C          63.3496   82.5202   10.3700 C.ar    1  UNL1        0.0592
     43 CL         64.8303   82.6575   11.3140 Cl      1  UNL1       -0.0824
@<TRIPOS>BOND
     1    21    22    1
     2    22    19    1
     3    19    20    1
     4    19    13    1
     5    13    14   ar
     6    14    15   ar
     7    15    16   ar
     8    16     7    1
     9     7     8   ar
    10     8     9   ar
    11     9    10   ar
    12    10     1    1
    13     1     2    1
    14     2     3    1
    15     3     4    1
    16     4    23    1
    17    23    24   ar
    18    24    25   ar
    19    25    26   ar
    20    26    29    1
    21    29    30    1
    22    30    31    1
    23    31    32    1
    24    32    33    1
    25    33    34    1
    26    34    36    1
    27    36    37   ar
    28    37    38   ar
    29    38    39   ar
    30    39    40    1
    31    39    41   ar
    32    41    42   ar
    33    42    43    1
    34    34    35    1
    35    26    27   ar
    36    27    28   ar
    37     4     5    1
    38     5     6    1
    39    10    11   ar
    40    11    12   ar
    41    16    17   ar
    42    17    18    2
    43    17    13   ar
    44    12     7   ar
    45     6     1    1
    46    28    23   ar
    47    35    31    1
    48    42    36   ar
@<TRIPOS>MOLECULE
*****
 43 48 0 0 0
SMALL
GASTEIGER

@<TRIPOS>ATOM
      1 N          59.9093   88.3968    6.9321 N.pl3   1  UNL1       -0.3041
      2 C          59.9522   88.9351    8.2994 C.3     1  UNL1        0.1122
      3 C          60.6679   87.9651    9.2448 C.3     1  UNL1        0.1122
      4 N          60.1163   86.6048    9.1435 N.pl3   1  UNL1       -0.3041
      5 C          59.2975   86.2301    7.9814 C.3     1  UNL1        0.1122
      6 C          59.7846   86.9464    6.7179 C.3     1  UNL1        0.1122
      7 C          59.8893   91.0323    3.5684 C.ar    1  UNL1        0.0699
      8 C          58.7535   90.9094    4.3851 C.ar    1  UNL1        0.0190
      9 C          58.7584   90.0469    5.4846 C.ar    1  UNL1        0.0160
     10 C          59.9030   89.2918    5.7971 C.ar    1  UNL1        0.0480
     11 C          61.0410   89.4204    4.9814 C.ar    1  UNL1        0.0160
     12 C          61.0352   90.2827    3.8816 C.ar    1  UNL1        0.0190
     13 N          59.7026   92.7762    0.3922 N.ar    1  UNL1       -0.2024
     14 N          59.9948   93.7857    1.1997 N.ar    1  UNL1       -0.1442
     15 C          60.1039   93.2611    2.4399 C.ar    1  UNL1        0.2073
     16 N          59.8789   91.9271    2.4390 N.ar    1  UNL1       -0.2398
     17 C          59.6194   91.6632    1.1429 C.ar    1  UNL1        0.3522
     18 O          59.2964   90.5300    0.6946 O.2     1  UNL1       -0.2444
     19 C          59.4245   92.9096   -1.0413 C.3     1  UNL1        0.1099
     20 C          58.0416   92.3244   -1.3570 C.3     1  UNL1        0.0265
     21 C          61.9015   92.9093   -1.6809 C.3     1  UNL1        0.0021
     22 C          60.5457   92.2221   -1.8452 C.3     1  UNL1        0.0245
     23 C          60.3118   85.6695   10.2280 C.ar    1  UNL1        0.0481
     24 C          61.1584   85.9892   11.3050 C.ar    1  UNL1        0.0176
     25 C          61.3469   85.0861   12.3551 C.ar    1  UNL1        0.0382
     26 C          60.6887   83.8428   12.3493 C.ar    1  UNL1        0.1388
     27 C          59.8432   83.5246   11.2821 C.ar    1  UNL1        0.0382
     28 C          59.6541   84.4258   10.2310 C.ar    1  UNL1        0.0176
     29 O          60.8470   82.9020   13.3772 O.3     1  UNL1       -0.4727
     30 C          61.6655   83.0964   14.5281 C.3     1  UNL1        0.2374
     31 C          62.7508   82.0160   14.5728 C.3     1  UNL1        0.1910
     32 C          63.6609   82.0721   13.3718 C.3     1  UNL1        0.1785
     33 O          63.2152   81.0815   12.5039 O.3     1  UNL1       -0.3244
     34 C          62.4915   80.1794   13.3105 C.3     1  UNL1        0.2610
     35 O          62.1564   80.7541   14.5535 O.3     1  UNL1       -0.3231
     36 C          61.2230   79.7337   12.6148 C.ar    1  UNL1        0.0442
     37 C          60.0861   79.3875   13.3720 C.ar    1  UNL1        0.0023
     38 C          58.9253   78.9293   12.7450 C.ar    1  UNL1        0.0113
     39 C          58.8858   78.7926   11.3565 C.ar    1  UNL1        0.0585
     40 CL         57.4274   78.2133   10.5726 Cl      1  UNL1       -0.0822
     41 C          60.0132   79.1054   10.5933 C.ar    1  UNL1        0.0226
     42 C          61.1830   79.5644   11.2112 C.ar    1  UNL1        0.0592
     43 CL         62.5816   79.8934   10.1922 Cl      1  UNL1       -0.0824
@<TRIPOS>BOND
     1    21    22    1
     2    22    19    1
     3    19    20    1
     4    19    13    1
     5    13    14   ar
     6    14    15   ar
     7    15    16   ar
     8    16     7    1
     9     7     8   ar
    10     8     9   ar
    11     9    10   ar
    12    10     1    1
    13     1     2    1
    14     2     3    1
    15     3     4    1
    16     4    23    1
    17    23    24   ar
    18    24    25   ar
    19    25    26   ar
    20    26    29    1
    21    29    30    1
    22    30    31    1
    23    31    32    1
    24    32    33    1
    25    33    34    1
    26    34    36    1
    27    36    37   ar
    28    37    38   ar
    29    38    39   ar
    30    39    40    1
    31    39    41   ar
    32    41    42   ar
    33    42    43    1
    34    34    35    1
    35    26    27   ar
    36    27    28   ar
    37     4     5    1
    38     5     6    1
    39    10    11   ar
    40    11    12   ar
    41    16    17   ar
    42    17    18    2
    43    17    13   ar
    44    12     7   ar
    45     6     1    1
    46    28    23   ar
    47    35    31    1
    48    42    36   ar
