@<TRIPOS>MOLECULE
*****
 34 38 0 0 0
SMALL
GASTEIGER

@<TRIPOS>ATOM
      1 C          48.5590   12.3101  -24.4109 C.2     1  UNL1        0.2491
      2 O          48.4131   11.7070  -25.5091 O.2     1  UNL1       -0.2699
      3 N          49.2253   11.6426  -23.3240 N.am    1  UNL1       -0.2760
      4 C          49.0183   10.2035  -23.1267 C.3     1  UNL1        0.0954
      5 C          49.4471    9.7597  -21.7139 C.3     1  UNL1        0.0399
      6 C          49.2959   10.8903  -20.6632 C.3     1  UNL1        0.0645
      7 C          50.1718   12.1156  -21.0789 C.3     1  UNL1        0.0399
      8 C          50.3162   12.3035  -22.6014 C.3     1  UNL1        0.0954
      9 C          49.7774   10.3536  -19.2707 C.3     1  UNL1        0.0477
     10 C          49.3563   11.2917  -18.1783 C.ar    1  UNL1        0.0220
     11 C          49.8238   11.4557  -16.8954 C.ar    1  UNL1        0.0923
     12 N          48.9885   12.3130  -16.2552 N.ar    1  UNL1       -0.2534
     13 N          47.9967   12.6639  -17.0698 N.ar    1  UNL1       -0.1651
     14 C          48.2217   12.0422  -18.2395 C.ar    1  UNL1        0.1515
     15 C          47.3935   12.0488  -19.4358 C.2     1  UNL1        0.2650
     16 O          46.2852   12.6458  -19.4665 O.2     1  UNL1       -0.2684
     17 N          47.8742   11.3169  -20.5750 N.am    1  UNL1       -0.3023
     18 H          47.2088   11.1434  -21.3607 H       1  UNL1        0.1497
     19 C          48.1593   18.3554  -25.3920 C.ar    1  UNL1        0.2249
     20 C          47.0930   18.6313  -24.5299 C.ar    1  UNL1        0.0577
     21 C          46.5104   17.5939  -23.7972 C.ar    1  UNL1        0.0063
     22 C          46.9972   16.2874  -23.9319 C.ar    1  UNL1        0.0179
     23 C          46.4423   15.2218  -23.2103 C.ar    1  UNL1        0.0016
     24 C          46.9517   13.9281  -23.3677 C.ar    1  UNL1        0.0046
     25 C          48.0153   13.6806  -24.2546 C.ar    1  UNL1        0.0551
     26 C          48.5772   14.7555  -24.9650 C.ar    1  UNL1        0.0237
     27 C          48.0727   16.0489  -24.8125 C.ar    1  UNL1        0.0845
     28 N          48.6203   17.0790  -25.5109 N.ar    1  UNL1       -0.2117
     29 C          49.4583   19.1752  -27.3327 C.3     1  UNL1        0.2542
     30 O          48.7407   19.3950  -26.1235 O.3     1  UNL1       -0.4561
     31 C          49.1012   12.7427  -14.8471 C.3     1  UNL1        0.0867
     32 C          50.5827   12.9310  -14.4540 C.3     1  UNL1        0.0244
     33 C          48.4806   11.6730  -13.9275 C.3     1  UNL1        0.0244
     34 C          48.3620   14.0804  -14.6615 C.3     1  UNL1        0.0244
@<TRIPOS>BOND
     1    29    30    1
     2    30    19    1
     3    19    20   ar
     4    20    21   ar
     5    21    22   ar
     6    22    23   ar
     7    23    24   ar
     8    24    25   ar
     9    25     1    1
    10     1     2    2
    11     1     3   am
    12     3     4    1
    13     4     5    1
    14     5     6    1
    15     6     7    1
    16     7     8    1
    17     6     9    1
    18     9    10    1
    19    10    11   ar
    20    11    12   ar
    21    12    31    1
    22    31    32    1
    23    31    33    1
    24    31    34    1
    25    12    13   ar
    26    13    14   ar
    27    14    15    1
    28    15    16    2
    29    15    17   am
    30    25    26   ar
    31    26    27   ar
    32    27    28   ar
    33    28    19   ar
    34    27    22   ar
    35     8     3    1
    36    14    10   ar
    37    17     6    1
    38    17    18    1
@<TRIPOS>MOLECULE
*****
 34 38 0 0 0
SMALL
GASTEIGER

@<TRIPOS>ATOM
      1 C          48.5055    9.8389  -20.8565 C.2     1  UNL1        0.2491
      2 O          48.5283    8.5918  -20.6690 O.2     1  UNL1       -0.2699
      3 N          48.5483   10.3497  -22.2012 N.am    1  UNL1       -0.2760
      4 C          49.3721    9.6675  -23.2054 C.3     1  UNL1        0.0954
      5 C          49.6308   10.5676  -24.4300 C.3     1  UNL1        0.0399
      6 C          49.6336   12.0761  -24.0700 C.3     1  UNL1        0.0645
      7 C          48.2538   12.4724  -23.4532 C.3     1  UNL1        0.0399
      8 C          47.5727   11.3479  -22.6497 C.3     1  UNL1        0.0954
      9 C          49.8783   12.9070  -25.3772 C.3     1  UNL1        0.0477
     10 C          50.2038   14.3309  -25.0347 C.ar    1  UNL1        0.0220
     11 C          50.1417   15.4802  -25.7873 C.ar    1  UNL1        0.0923
     12 N          50.7124   16.4795  -25.0675 N.ar    1  UNL1       -0.2534
     13 N          51.1631   15.9980  -23.9119 N.ar    1  UNL1       -0.1651
     14 C          50.8530   14.6908  -23.8930 C.ar    1  UNL1        0.1515
     15 C          51.1827   13.7025  -22.8773 C.2     1  UNL1        0.2650
     16 O          51.8812   13.9986  -21.8723 O.2     1  UNL1       -0.2684
     17 N          50.7075   12.3621  -23.0823 N.am    1  UNL1       -0.3023
     18 H          51.1004   11.6066  -22.4780 H       1  UNL1        0.1497
     19 C          50.4576   12.3665  -15.6155 C.ar    1  UNL1        0.2249
     20 C          49.4002   13.2595  -15.4141 C.ar    1  UNL1        0.0577
     21 C          48.3519   13.3088  -16.3366 C.ar    1  UNL1        0.0063
     22 C          48.3682   12.4654  -17.4550 C.ar    1  UNL1        0.0179
     23 C          47.3329   12.4822  -18.3993 C.ar    1  UNL1        0.0016
     24 C          47.3794   11.6270  -19.5058 C.ar    1  UNL1        0.0046
     25 C          48.4648   10.7508  -19.6881 C.ar    1  UNL1        0.0551
     26 C          49.4935   10.7282  -18.7303 C.ar    1  UNL1        0.0237
     27 C          49.4528   11.5799  -17.6241 C.ar    1  UNL1        0.0845
     28 N          50.4577   11.5535  -16.7086 N.ar    1  UNL1       -0.2117
     29 C          52.3197   13.4476  -14.3949 C.3     1  UNL1        0.2542
     30 O          51.5048   12.3189  -14.6908 O.3     1  UNL1       -0.4561
     31 C          50.8862   17.8768  -25.5120 C.3     1  UNL1        0.0867
     32 C          49.5712   18.6682  -25.3413 C.3     1  UNL1        0.0244
     33 C          51.2853   17.9015  -27.0002 C.3     1  UNL1        0.0244
     34 C          51.9851   18.5475  -24.6676 C.3     1  UNL1        0.0244
@<TRIPOS>BOND
     1    29    30    1
     2    30    19    1
     3    19    20   ar
     4    20    21   ar
     5    21    22   ar
     6    22    23   ar
     7    23    24   ar
     8    24    25   ar
     9    25     1    1
    10     1     2    2
    11     1     3   am
    12     3     4    1
    13     4     5    1
    14     5     6    1
    15     6     7    1
    16     7     8    1
    17     6     9    1
    18     9    10    1
    19    10    11   ar
    20    11    12   ar
    21    12    31    1
    22    31    32    1
    23    31    33    1
    24    31    34    1
    25    12    13   ar
    26    13    14   ar
    27    14    15    1
    28    15    16    2
    29    15    17   am
    30    25    26   ar
    31    26    27   ar
    32    27    28   ar
    33    28    19   ar
    34    27    22   ar
    35     8     3    1
    36    14    10   ar
    37    17     6    1
    38    17    18    1
@<TRIPOS>MOLECULE
*****
 34 38 0 0 0
SMALL
GASTEIGER

@<TRIPOS>ATOM
      1 C          46.4251   11.9617  -28.6306 C.2     1  UNL1        0.2491
      2 O          45.9155   12.4465  -29.6776 O.2     1  UNL1       -0.2699
      3 N          46.0543   12.5045  -27.3504 N.am    1  UNL1       -0.2760
      4 C          45.8207   13.9470  -27.2195 C.3     1  UNL1        0.0954
      5 C          45.8564   14.3934  -25.7444 C.3     1  UNL1        0.0399
      6 C          46.7805   13.5017  -24.8748 C.3     1  UNL1        0.0645
      7 C          46.2839   12.0211  -24.9269 C.3     1  UNL1        0.0399
      8 C          45.6280   11.6196  -26.2620 C.3     1  UNL1        0.0954
      9 C          46.7317   14.0162  -23.3943 C.3     1  UNL1        0.0477
     10 C          47.8376   13.3966  -22.5920 C.ar    1  UNL1        0.0220
     11 C          47.9956   13.2438  -21.2345 C.ar    1  UNL1        0.0923
     12 N          49.2514   12.7792  -21.0120 N.ar    1  UNL1       -0.2534
     13 N          49.8999   12.6699  -22.1686 N.ar    1  UNL1       -0.1651
     14 C          49.0387   13.0455  -23.1291 C.ar    1  UNL1        0.1515
     15 C          49.2812   13.1632  -24.5591 C.2     1  UNL1        0.2650
     16 O          50.4196   12.9518  -25.0538 O.2     1  UNL1       -0.2684
     17 N          48.1758   13.5644  -25.3847 N.am    1  UNL1       -0.3023
     18 H          48.3786   13.8476  -26.3690 H       1  UNL1        0.1497
     19 C          49.2027    7.1229  -31.1877 C.ar    1  UNL1        0.2249
     20 C          50.1609    6.8907  -30.1957 C.ar    1  UNL1        0.0577
     21 C          50.2008    7.7136  -29.0672 C.ar    1  UNL1        0.0063
     22 C          49.2829    8.7639  -28.9383 C.ar    1  UNL1        0.0179
     23 C          49.2882    9.6072  -27.8190 C.ar    1  UNL1        0.0016
     24 C          48.3577   10.6475  -27.7208 C.ar    1  UNL1        0.0046
     25 C          47.4161   10.8646  -28.7432 C.ar    1  UNL1        0.0551
     26 C          47.4062   10.0068  -29.8568 C.ar    1  UNL1        0.0237
     27 C          48.3329    8.9670  -29.9607 C.ar    1  UNL1        0.0845
     28 N          48.3175    8.1487  -31.0465 N.ar    1  UNL1       -0.2117
     29 C          47.9537    5.9747  -32.9899 C.3     1  UNL1        0.2542
     30 O          49.1647    6.2978  -32.3155 O.3     1  UNL1       -0.4561
     31 C          49.8519   12.5044  -19.6913 C.3     1  UNL1        0.0867
     32 C          51.2634   13.1237  -19.5974 C.3     1  UNL1        0.0244
     33 C          49.9679   10.9821  -19.4813 C.3     1  UNL1        0.0244
     34 C          48.9650   13.1151  -18.5909 C.3     1  UNL1        0.0244
@<TRIPOS>BOND
     1    29    30    1
     2    30    19    1
     3    19    20   ar
     4    20    21   ar
     5    21    22   ar
     6    22    23   ar
     7    23    24   ar
     8    24    25   ar
     9    25     1    1
    10     1     2    2
    11     1     3   am
    12     3     4    1
    13     4     5    1
    14     5     6    1
    15     6     7    1
    16     7     8    1
    17     6     9    1
    18     9    10    1
    19    10    11   ar
    20    11    12   ar
    21    12    31    1
    22    31    32    1
    23    31    33    1
    24    31    34    1
    25    12    13   ar
    26    13    14   ar
    27    14    15    1
    28    15    16    2
    29    15    17   am
    30    25    26   ar
    31    26    27   ar
    32    27    28   ar
    33    28    19   ar
    34    27    22   ar
    35     8     3    1
    36    14    10   ar
    37    17     6    1
    38    17    18    1
@<TRIPOS>MOLECULE
*****
 34 38 0 0 0
SMALL
GASTEIGER

@<TRIPOS>ATOM
      1 C          45.7887   15.5254  -28.0098 C.2     1  UNL1        0.2491
      2 O          45.6355   16.6344  -28.5909 O.2     1  UNL1       -0.2699
      3 N          45.8439   15.4852  -26.5723 N.am    1  UNL1       -0.2760
      4 C          46.5100   16.5722  -25.8461 C.3     1  UNL1        0.0954
      5 C          46.8416   16.1633  -24.3971 C.3     1  UNL1        0.0399
      6 C          47.0844   14.6386  -24.2496 C.3     1  UNL1        0.0645
      7 C          45.8087   13.8567  -24.6998 C.3     1  UNL1        0.0399
      8 C          45.0069   14.5447  -25.8212 C.3     1  UNL1        0.0954
      9 C          47.3882   14.3187  -22.7449 C.3     1  UNL1        0.0477
     10 C          47.9364   12.9287  -22.6094 C.ar    1  UNL1        0.0220
     11 C          48.0100   12.0860  -21.5252 C.ar    1  UNL1        0.0923
     12 N          48.7552   11.0101  -21.8851 N.ar    1  UNL1       -0.2534
     13 N          49.1831   11.1600  -23.1360 N.ar    1  UNL1       -0.1651
     14 C          48.6842   12.3274  -23.5757 C.ar    1  UNL1        0.1515
     15 C          48.9110   12.9770  -24.8578 C.2     1  UNL1        0.2650
     16 O          49.6917   12.4867  -25.7156 O.2     1  UNL1       -0.2684
     17 N          48.2337   14.2216  -25.0957 N.am    1  UNL1       -0.3023
     18 H          48.5382   14.7951  -25.9135 H       1  UNL1        0.1497
     19 C          47.4622    9.7438  -29.2101 C.ar    1  UNL1        0.2249
     20 C          47.0180    9.6743  -30.5345 C.ar    1  UNL1        0.0577
     21 C          46.4077   10.7875  -31.1182 C.ar    1  UNL1        0.0063
     22 C          46.2448   11.9627  -30.3735 C.ar    1  UNL1        0.0179
     23 C          45.6422   13.1012  -30.9256 C.ar    1  UNL1        0.0016
     24 C          45.4944   14.2596  -30.1548 C.ar    1  UNL1        0.0046
     25 C          45.9380   14.2927  -28.8201 C.ar    1  UNL1        0.0551
     26 C          46.5544   13.1525  -28.2761 C.ar    1  UNL1        0.0237
     27 C          46.7043   11.9932  -29.0404 C.ar    1  UNL1        0.0845
     28 N          47.2958   10.8946  -28.5003 N.ar    1  UNL1       -0.2117
     29 C          49.3831    8.1998  -28.9819 C.3     1  UNL1        0.2542
     30 O          48.0728    8.6288  -28.6288 O.3     1  UNL1       -0.4561
     31 C          49.1129    9.8735  -21.0131 C.3     1  UNL1        0.0867
     32 C          47.8418    9.1786  -20.4783 C.3     1  UNL1        0.0244
     33 C          49.9381   10.3797  -19.8140 C.3     1  UNL1        0.0244
     34 C          49.9379    8.8530  -21.8183 C.3     1  UNL1        0.0244
@<TRIPOS>BOND
     1    29    30    1
     2    30    19    1
     3    19    20   ar
     4    20    21   ar
     5    21    22   ar
     6    22    23   ar
     7    23    24   ar
     8    24    25   ar
     9    25     1    1
    10     1     2    2
    11     1     3   am
    12     3     4    1
    13     4     5    1
    14     5     6    1
    15     6     7    1
    16     7     8    1
    17     6     9    1
    18     9    10    1
    19    10    11   ar
    20    11    12   ar
    21    12    31    1
    22    31    32    1
    23    31    33    1
    24    31    34    1
    25    12    13   ar
    26    13    14   ar
    27    14    15    1
    28    15    16    2
    29    15    17   am
    30    25    26   ar
    31    26    27   ar
    32    27    28   ar
    33    28    19   ar
    34    27    22   ar
    35     8     3    1
    36    14    10   ar
    37    17     6    1
    38    17    18    1
@<TRIPOS>MOLECULE
*****
 34 38 0 0 0
SMALL
GASTEIGER

@<TRIPOS>ATOM
      1 C          50.5114    9.0166  -24.4770 C.2     1  UNL1        0.2491
      2 O          50.3418    7.9446  -23.8344 O.2     1  UNL1       -0.2699
      3 N          50.4153   10.2749  -23.7853 N.am    1  UNL1       -0.2760
      4 C          49.4220   10.4364  -22.7177 C.3     1  UNL1        0.0954
      5 C          49.1748   11.9239  -22.3965 C.3     1  UNL1        0.0399
      6 C          49.4026   12.8438  -23.6241 C.3     1  UNL1        0.0645
      7 C          50.8723   12.6897  -24.1316 C.3     1  UNL1        0.0399
      8 C          51.4693   11.2842  -23.9263 C.3     1  UNL1        0.0954
      9 C          49.1526   14.3310  -23.1943 C.3     1  UNL1        0.0477
     10 C          49.0491   15.2114  -24.4046 C.ar    1  UNL1        0.0220
     11 C          49.1938   16.5712  -24.5502 C.ar    1  UNL1        0.0923
     12 N          48.8265   16.8949  -25.8162 N.ar    1  UNL1       -0.2534
     13 N          48.4221   15.8020  -26.4584 N.ar    1  UNL1       -0.1651
     14 C          48.5583   14.7785  -25.5987 C.ar    1  UNL1        0.1515
     15 C          48.1942   13.3835  -25.7957 C.2     1  UNL1        0.2650
     16 O          47.6339   12.9920  -26.8533 O.2     1  UNL1       -0.2684
     17 N          48.4688   12.4718  -24.7197 N.am    1  UNL1       -0.3023
     18 H          48.0360   11.5225  -24.7611 H       1  UNL1        0.1497
     19 C          49.5586    7.3700  -30.3121 C.ar    1  UNL1        0.2249
     20 C          50.6573    8.0162  -30.8878 C.ar    1  UNL1        0.0577
     21 C          51.5315    8.7467  -30.0787 C.ar    1  UNL1        0.0063
     22 C          51.3008    8.8271  -28.6994 C.ar    1  UNL1        0.0179
     23 C          52.1576    9.5458  -27.8548 C.ar    1  UNL1        0.0016
     24 C          51.8990    9.6066  -26.4811 C.ar    1  UNL1        0.0046
     25 C          50.7764    8.9583  -25.9347 C.ar    1  UNL1        0.0551
     26 C          49.9283    8.2271  -26.7845 C.ar    1  UNL1        0.0237
     27 C          50.1811    8.1632  -28.1566 C.ar    1  UNL1        0.0845
     28 N          49.3491    7.4585  -28.9690 N.ar    1  UNL1       -0.2117
     29 C          49.0647    6.1357  -32.3998 C.3     1  UNL1        0.2542
     30 O          48.6859    6.6395  -31.1238 O.3     1  UNL1       -0.4561
     31 C          48.7985   18.2556  -26.3888 C.3     1  UNL1        0.0867
     32 C          50.2264   18.7247  -26.7434 C.3     1  UNL1        0.0244
     33 C          48.1989   19.2374  -25.3633 C.3     1  UNL1        0.0244
     34 C          47.9422   18.2529  -27.6683 C.3     1  UNL1        0.0244
@<TRIPOS>BOND
     1    29    30    1
     2    30    19    1
     3    19    20   ar
     4    20    21   ar
     5    21    22   ar
     6    22    23   ar
     7    23    24   ar
     8    24    25   ar
     9    25     1    1
    10     1     2    2
    11     1     3   am
    12     3     4    1
    13     4     5    1
    14     5     6    1
    15     6     7    1
    16     7     8    1
    17     6     9    1
    18     9    10    1
    19    10    11   ar
    20    11    12   ar
    21    12    31    1
    22    31    32    1
    23    31    33    1
    24    31    34    1
    25    12    13   ar
    26    13    14   ar
    27    14    15    1
    28    15    16    2
    29    15    17   am
    30    25    26   ar
    31    26    27   ar
    32    27    28   ar
    33    28    19   ar
    34    27    22   ar
    35     8     3    1
    36    14    10   ar
    37    17     6    1
    38    17    18    1
@<TRIPOS>MOLECULE
*****
 34 38 0 0 0
SMALL
GASTEIGER

@<TRIPOS>ATOM
      1 C          48.5882   10.1198  -20.0359 C.2     1  UNL1        0.2491
      2 O          48.5833    8.8853  -19.7771 O.2     1  UNL1       -0.2699
      3 N          48.5528   10.5519  -21.4082 N.am    1  UNL1       -0.2760
      4 C          49.2810    9.7840  -22.4244 C.3     1  UNL1        0.0954
      5 C          49.4821   10.6033  -23.7148 C.3     1  UNL1        0.0399
      6 C          49.5598   12.1286  -23.4455 C.3     1  UNL1        0.0645
      7 C          48.2407   12.6098  -22.7600 C.3     1  UNL1        0.0399
      8 C          47.5813   11.5583  -21.8469 C.3     1  UNL1        0.0954
      9 C          49.7389   12.8746  -24.8131 C.3     1  UNL1        0.0477
     10 C          50.1343   14.3027  -24.5782 C.ar    1  UNL1        0.0220
     11 C          50.0570   15.4091  -25.3913 C.ar    1  UNL1        0.0923
     12 N          50.7095   16.4258  -24.7725 N.ar    1  UNL1       -0.2534
     13 N          51.2246   15.9941  -23.6241 N.ar    1  UNL1       -0.1651
     14 C          50.8737   14.7025  -23.5069 C.ar    1  UNL1        0.1515
     15 C          51.2417   13.7617  -22.4596 C.2     1  UNL1        0.2650
     16 O          52.0186   14.0882  -21.5240 O.2     1  UNL1       -0.2684
     17 N          50.7095   12.4303  -22.5522 N.am    1  UNL1       -0.3023
     18 H          51.1190   11.6962  -21.9328 H       1  UNL1        0.1497
     19 C          46.7768   14.8502  -16.5702 C.ar    1  UNL1        0.2249
     20 C          47.8393   14.8546  -15.6607 C.ar    1  UNL1        0.0577
     21 C          48.8625   13.9117  -15.7886 C.ar    1  UNL1        0.0063
     22 C          48.8163   12.9700  -16.8247 C.ar    1  UNL1        0.0179
     23 C          49.8260   12.0122  -16.9885 C.ar    1  UNL1        0.0016
     24 C          49.7500   11.0853  -18.0339 C.ar    1  UNL1        0.0046
     25 C          48.6600   11.0973  -18.9233 C.ar    1  UNL1        0.0551
     26 C          47.6573   12.0693  -18.7627 C.ar    1  UNL1        0.0237
     27 C          47.7275   12.9967  -17.7208 C.ar    1  UNL1        0.0845
     28 N          46.7475   13.9274  -17.5720 N.ar    1  UNL1       -0.2117
     29 C          45.3665   16.3380  -15.1834 C.3     1  UNL1        0.2542
     30 O          45.7547   15.7949  -16.4403 O.3     1  UNL1       -0.4561
     31 C          50.8973   17.7884  -25.3094 C.3     1  UNL1        0.0867
     32 C          51.2677   17.7351  -26.8076 C.3     1  UNL1        0.0244
     33 C          52.0352   18.4940  -24.5463 C.3     1  UNL1        0.0244
     34 C          49.5899   18.5851  -25.1469 C.3     1  UNL1        0.0244
@<TRIPOS>BOND
     1    29    30    1
     2    30    19    1
     3    19    20   ar
     4    20    21   ar
     5    21    22   ar
     6    22    23   ar
     7    23    24   ar
     8    24    25   ar
     9    25     1    1
    10     1     2    2
    11     1     3   am
    12     3     4    1
    13     4     5    1
    14     5     6    1
    15     6     7    1
    16     7     8    1
    17     6     9    1
    18     9    10    1
    19    10    11   ar
    20    11    12   ar
    21    12    31    1
    22    31    32    1
    23    31    33    1
    24    31    34    1
    25    12    13   ar
    26    13    14   ar
    27    14    15    1
    28    15    16    2
    29    15    17   am
    30    25    26   ar
    31    26    27   ar
    32    27    28   ar
    33    28    19   ar
    34    27    22   ar
    35     8     3    1
    36    14    10   ar
    37    17     6    1
    38    17    18    1
@<TRIPOS>MOLECULE
*****
 34 38 0 0 0
SMALL
GASTEIGER

@<TRIPOS>ATOM
      1 C          46.0138   13.1261  -28.6614 C.2     1  UNL1        0.2491
      2 O          45.5565   13.7327  -29.6682 O.2     1  UNL1       -0.2699
      3 N          45.8506   13.7071  -27.3549 N.am    1  UNL1       -0.2760
      4 C          45.9437   15.1627  -27.1968 C.3     1  UNL1        0.0954
      5 C          46.1680   15.5577  -25.7236 C.3     1  UNL1        0.0399
      6 C          46.9297   14.4684  -24.9246 C.3     1  UNL1        0.0645
      7 C          46.1220   13.1313  -24.9560 C.3     1  UNL1        0.0399
      8 C          45.3121   12.9107  -26.2481 C.3     1  UNL1        0.0954
      9 C          47.0867   14.9479  -23.4399 C.3     1  UNL1        0.0477
     10 C          48.0804   14.0866  -22.7178 C.ar    1  UNL1        0.0220
     11 C          48.2865   13.8729  -21.3750 C.ar    1  UNL1        0.0923
     12 N          49.4234   13.1436  -21.2401 N.ar    1  UNL1       -0.2534
     13 N          49.9588   12.9231  -22.4381 N.ar    1  UNL1       -0.1651
     14 C          49.1407   13.4970  -23.3362 C.ar    1  UNL1        0.1515
     15 C          49.3125   13.5918  -24.7780 C.2     1  UNL1        0.2650
     16 O          50.3447   13.1510  -25.3488 O.2     1  UNL1       -0.2684
     17 N          48.2706   14.2403  -25.5252 N.am    1  UNL1       -0.3023
     18 H          48.4677   14.4951  -26.5185 H       1  UNL1        0.1497
     19 C          50.2091    8.8016  -27.4920 C.ar    1  UNL1        0.2249
     20 C          49.8720    7.9093  -28.5149 C.ar    1  UNL1        0.0577
     21 C          48.8238    8.2196  -29.3852 C.ar    1  UNL1        0.0063
     22 C          48.1190    9.4197  -29.2265 C.ar    1  UNL1        0.0179
     23 C          47.0653    9.7682  -30.0823 C.ar    1  UNL1        0.0016
     24 C          46.3812   10.9745  -29.8966 C.ar    1  UNL1        0.0046
     25 C          46.7345   11.8439  -28.8485 C.ar    1  UNL1        0.0551
     26 C          47.8015   11.4959  -28.0020 C.ar    1  UNL1        0.0237
     27 C          48.4877   10.2928  -28.1820 C.ar    1  UNL1        0.0845
     28 N          49.5133    9.9644  -27.3520 N.ar    1  UNL1       -0.2117
     29 C          51.6173    9.3178  -25.5231 C.3     1  UNL1        0.2542
     30 O          51.2585    8.4890  -26.6231 O.3     1  UNL1       -0.4561
     31 C          50.0319   12.7162  -19.9645 C.3     1  UNL1        0.0867
     32 C          50.1201   11.1761  -19.8943 C.3     1  UNL1        0.0244
     33 C          49.1709   13.2136  -18.7871 C.3     1  UNL1        0.0244
     34 C          51.4512   13.3025  -19.8550 C.3     1  UNL1        0.0244
@<TRIPOS>BOND
     1    29    30    1
     2    30    19    1
     3    19    20   ar
     4    20    21   ar
     5    21    22   ar
     6    22    23   ar
     7    23    24   ar
     8    24    25   ar
     9    25     1    1
    10     1     2    2
    11     1     3   am
    12     3     4    1
    13     4     5    1
    14     5     6    1
    15     6     7    1
    16     7     8    1
    17     6     9    1
    18     9    10    1
    19    10    11   ar
    20    11    12   ar
    21    12    31    1
    22    31    32    1
    23    31    33    1
    24    31    34    1
    25    12    13   ar
    26    13    14   ar
    27    14    15    1
    28    15    16    2
    29    15    17   am
    30    25    26   ar
    31    26    27   ar
    32    27    28   ar
    33    28    19   ar
    34    27    22   ar
    35     8     3    1
    36    14    10   ar
    37    17     6    1
    38    17    18    1
@<TRIPOS>MOLECULE
*****
 34 38 0 0 0
SMALL
GASTEIGER

@<TRIPOS>ATOM
      1 C          48.2086   13.2716  -21.9313 C.2     1  UNL1        0.2491
      2 O          47.9595   13.4430  -20.7067 O.2     1  UNL1       -0.2699
      3 N          48.5015   11.9470  -22.4116 N.am    1  UNL1       -0.2760
      4 C          49.2773   11.0300  -21.5691 C.3     1  UNL1        0.0954
      5 C          49.8452    9.8540  -22.3883 C.3     1  UNL1        0.0399
      6 C          50.1113   10.2333  -23.8684 C.3     1  UNL1        0.0645
      7 C          48.7797   10.7002  -24.5395 C.3     1  UNL1        0.0399
      8 C          47.8020   11.4080  -23.5819 C.3     1  UNL1        0.0954
      9 C          50.6609    8.9727  -24.6220 C.3     1  UNL1        0.0477
     10 C          51.2260    9.3689  -25.9541 C.ar    1  UNL1        0.0220
     11 C          51.4796    8.6302  -27.0860 C.ar    1  UNL1        0.0923
     12 N          52.1564    9.4223  -27.9561 N.ar    1  UNL1       -0.2534
     13 N          52.3707   10.6135  -27.4034 N.ar    1  UNL1       -0.1651
     14 C          51.8040   10.5799  -26.1857 C.ar    1  UNL1        0.1515
     15 C          51.8141   11.6118  -25.1598 C.2     1  UNL1        0.2650
     16 O          52.4424   12.6915  -25.3177 O.2     1  UNL1       -0.2684
     17 N          51.1049   11.3370  -23.9408 N.am    1  UNL1       -0.3023
     18 H          51.2687   11.9701  -23.1268 H       1  UNL1        0.1497
     19 C          50.6953   17.8268  -25.2076 C.ar    1  UNL1        0.2249
     20 C          49.5166   18.3669  -25.7323 C.ar    1  UNL1        0.0577
     21 C          48.2864   17.7922  -25.4027 C.ar    1  UNL1        0.0063
     22 C          48.2428   16.6806  -24.5514 C.ar    1  UNL1        0.0179
     23 C          47.0281   16.0799  -24.1940 C.ar    1  UNL1        0.0016
     24 C          47.0190   14.9704  -23.3415 C.ar    1  UNL1        0.0046
     25 C          48.2231   14.4411  -22.8425 C.ar    1  UNL1        0.0551
     26 C          49.4374   15.0564  -23.1930 C.ar    1  UNL1        0.0237
     27 C          49.4529   16.1638  -24.0439 C.ar    1  UNL1        0.0845
     28 N          50.6347   16.7455  -24.3811 N.ar    1  UNL1       -0.2117
     29 C          52.8810   18.7889  -24.5572 C.3     1  UNL1        0.2542
     30 O          51.9247   18.4040  -25.5384 O.3     1  UNL1       -0.4561
     31 C          52.6554    9.0193  -29.2860 C.3     1  UNL1        0.0867
     32 C          53.9244    8.1500  -29.1490 C.3     1  UNL1        0.0244
     33 C          53.0051   10.2735  -30.1103 C.3     1  UNL1        0.0244
     34 C          51.5694    8.2054  -30.0129 C.3     1  UNL1        0.0244
@<TRIPOS>BOND
     1    29    30    1
     2    30    19    1
     3    19    20   ar
     4    20    21   ar
     5    21    22   ar
     6    22    23   ar
     7    23    24   ar
     8    24    25   ar
     9    25     1    1
    10     1     2    2
    11     1     3   am
    12     3     4    1
    13     4     5    1
    14     5     6    1
    15     6     7    1
    16     7     8    1
    17     6     9    1
    18     9    10    1
    19    10    11   ar
    20    11    12   ar
    21    12    31    1
    22    31    32    1
    23    31    33    1
    24    31    34    1
    25    12    13   ar
    26    13    14   ar
    27    14    15    1
    28    15    16    2
    29    15    17   am
    30    25    26   ar
    31    26    27   ar
    32    27    28   ar
    33    28    19   ar
    34    27    22   ar
    35     8     3    1
    36    14    10   ar
    37    17     6    1
    38    17    18    1
@<TRIPOS>MOLECULE
*****
 34 38 0 0 0
SMALL
GASTEIGER

@<TRIPOS>ATOM
      1 C          50.7699    9.4871  -25.5866 C.2     1  UNL1        0.2491
      2 O          51.1094    8.4269  -24.9937 O.2     1  UNL1       -0.2699
      3 N          51.1542   10.7582  -25.0319 N.am    1  UNL1       -0.2760
      4 C          51.1679   10.9343  -23.5754 C.3     1  UNL1        0.0954
      5 C          51.1833   12.4262  -23.1869 C.3     1  UNL1        0.0399
      6 C          50.4854   13.3233  -24.2421 C.3     1  UNL1        0.0645
      7 C          51.2028   13.1685  -25.6216 C.3     1  UNL1        0.0399
      8 C          51.8021   11.7711  -25.8706 C.3     1  UNL1        0.0954
      9 C          50.5737   14.8170  -23.7731 C.3     1  UNL1        0.0477
     10 C          49.6485   15.6728  -24.5870 C.ar    1  UNL1        0.0220
     11 C          49.6282   17.0304  -24.8056 C.ar    1  UNL1        0.0923
     12 N          48.4836   17.3268  -25.4722 N.ar    1  UNL1       -0.2534
     13 N          47.7679   16.2189  -25.6477 N.ar    1  UNL1       -0.1651
     14 C          48.4777   15.2134  -25.1090 C.ar    1  UNL1        0.1515
     15 C          48.1035   13.8125  -24.9868 C.2     1  UNL1        0.2650
     16 O          46.9758   13.3968  -25.3625 O.2     1  UNL1       -0.2684
     17 N          49.0606   12.9239  -24.3879 N.am    1  UNL1       -0.3023
     18 H          48.7358   11.9712  -24.1102 H       1  UNL1        0.1497
     19 C          46.5632   11.2475  -29.6943 C.ar    1  UNL1        0.2249
     20 C          46.6905   10.1783  -30.5869 C.ar    1  UNL1        0.0577
     21 C          47.6106    9.1610  -30.3200 C.ar    1  UNL1        0.0063
     22 C          48.3978    9.2200  -29.1629 C.ar    1  UNL1        0.0179
     23 C          49.3276    8.2166  -28.8585 C.ar    1  UNL1        0.0016
     24 C          50.0989    8.3054  -27.6944 C.ar    1  UNL1        0.0046
     25 C          49.9580    9.4018  -26.8244 C.ar    1  UNL1        0.0551
     26 C          49.0138   10.3981  -27.1274 C.ar    1  UNL1        0.0237
     27 C          48.2415   10.3152  -28.2881 C.ar    1  UNL1        0.0845
     28 N          47.3367   11.2891  -28.5736 N.ar    1  UNL1       -0.2117
     29 C          45.5614   12.9123  -31.2276 C.3     1  UNL1        0.2542
     30 O          45.6417   12.2636  -29.9633 O.3     1  UNL1       -0.4561
     31 C          48.0440   18.6758  -25.8811 C.3     1  UNL1        0.0867
     32 C          48.8432   19.1575  -27.1114 C.3     1  UNL1        0.0244
     33 C          48.2747   19.6686  -24.7252 C.3     1  UNL1        0.0244
     34 C          46.5479   18.6368  -26.2422 C.3     1  UNL1        0.0244
@<TRIPOS>BOND
     1    29    30    1
     2    30    19    1
     3    19    20   ar
     4    20    21   ar
     5    21    22   ar
     6    22    23   ar
     7    23    24   ar
     8    24    25   ar
     9    25     1    1
    10     1     2    2
    11     1     3   am
    12     3     4    1
    13     4     5    1
    14     5     6    1
    15     6     7    1
    16     7     8    1
    17     6     9    1
    18     9    10    1
    19    10    11   ar
    20    11    12   ar
    21    12    31    1
    22    31    32    1
    23    31    33    1
    24    31    34    1
    25    12    13   ar
    26    13    14   ar
    27    14    15    1
    28    15    16    2
    29    15    17   am
    30    25    26   ar
    31    26    27   ar
    32    27    28   ar
    33    28    19   ar
    34    27    22   ar
    35     8     3    1
    36    14    10   ar
    37    17     6    1
    38    17    18    1
