@<TRIPOS>MOLECULE
*****
 35 38 0 0 0
SMALL
GASTEIGER

@<TRIPOS>ATOM
      1 N         -28.1644   49.6060   -5.5547 N.am    1  UNL1       -0.2685
      2 C         -29.2064   49.9156   -6.4960 C.2     1  UNL1        0.2672
      3 O         -29.6205   51.1027   -6.5962 O.2     1  UNL1       -0.2682
      4 C         -29.7970   48.8469   -7.3250 C.ar    1  UNL1        0.1347
      5 C         -29.1663   48.4059   -8.4994 C.ar    1  UNL1        0.0238
      6 C         -29.7589   47.3912   -9.2622 C.ar    1  UNL1        0.0031
      7 C         -29.1548   46.9315  -10.4429 C.ar    1  UNL1        0.0001
      8 C         -29.7609   45.9181  -11.1917 C.ar    1  UNL1        0.0000
      9 C         -30.9701   45.3579  -10.7691 C.ar    1  UNL1        0.0000
     10 C         -31.5814   45.8075   -9.5949 C.ar    1  UNL1        0.0015
     11 C         -30.9813   46.8241   -8.8367 C.ar    1  UNL1        0.0192
     12 C         -31.5730   47.2926   -7.6576 C.ar    1  UNL1        0.0989
     13 N         -30.9736   48.2792   -6.9411 N.ar    1  UNL1       -0.2393
     14 C         -26.8128   51.6561   -4.9848 C.3     1  UNL1        0.0265
     15 C         -26.8373   50.2636   -5.6427 C.3     1  UNL1        0.1007
     16 C         -26.4015   50.4109   -7.0899 C.ar    1  UNL1        0.0234
     17 C         -26.3754   51.6835   -7.6922 C.ar    1  UNL1        0.0019
     18 C         -25.9662   51.8306   -9.0200 C.ar    1  UNL1        0.0295
     19 C         -25.5686   50.7137   -9.7581 C.ar    1  UNL1        0.1424
     20 F         -25.1709   50.8588  -11.0461 F       1  UNL1       -0.2041
     21 C         -25.5748   49.4478   -9.1671 C.ar    1  UNL1        0.0590
     22 C         -25.9834   49.2922   -7.8383 C.ar    1  UNL1        0.1399
     23 F         -25.9651   48.0523   -7.2865 F       1  UNL1       -0.2044
     24 C         -28.5702   48.9228   -4.3132 C.3     1  UNL1        0.1216
     25 C         -27.9596   47.5405   -4.2355 C.ar    1  UNL1        0.0085
     26 C         -28.4772   46.5399   -5.0718 C.ar    1  UNL1       -0.0018
     27 C         -27.9222   45.2645   -5.0806 C.ar    1  UNL1       -0.0000
     28 C         -26.8481   44.9628   -4.2484 C.ar    1  UNL1        0.0073
     29 C         -26.3133   45.9324   -3.3821 C.ar    1  UNL1        0.0857
     30 C         -26.8660   47.2405   -3.3830 C.ar    1  UNL1        0.0615
     31 CL        -26.1707   48.5115   -2.3664 Cl      1  UNL1       -0.0823
     32 C         -25.1870   45.5400   -2.4978 C.2     1  UNL1        0.3388
     33 O         -24.0088   45.8821   -2.7900 O.2     1  UNL1       -0.2451
     34 O         -25.4019   44.7602   -1.3653 O.3     1  UNL1       -0.4771
     35 H         -24.6306   44.4824   -0.7701 H       1  UNL1        0.2954
@<TRIPOS>BOND
     1    14    15    1
     2    15    16    1
     3    16    17   ar
     4    17    18   ar
     5    18    19   ar
     6    19    20    1
     7    19    21   ar
     8    21    22   ar
     9    22    23    1
    10    15     1    1
    11     1    24    1
    12    24    25    1
    13    25    26   ar
    14    26    27   ar
    15    27    28   ar
    16    28    29   ar
    17    29    32    1
    18    32    33    2
    19    32    34    1
    20    29    30   ar
    21    30    31    1
    22     1     2   am
    23     2     3    2
    24     2     4    1
    25     4     5   ar
    26     5     6   ar
    27     6     7   ar
    28     7     8   ar
    29     8     9   ar
    30     9    10   ar
    31    10    11   ar
    32    11    12   ar
    33    12    13   ar
    34    22    16   ar
    35    30    25   ar
    36    13     4   ar
    37    11     6   ar
    38    34    35    1
@<TRIPOS>MOLECULE
*****
 35 38 0 0 0
SMALL
GASTEIGER

@<TRIPOS>ATOM
      1 N         -30.2626   48.9469   -6.5483 N.am    1  UNL1       -0.2685
      2 C         -29.7748   50.2956   -6.4441 C.2     1  UNL1        0.2672
      3 O         -30.3583   51.1097   -5.6777 O.2     1  UNL1       -0.2682
      4 C         -28.6102   50.7257   -7.2422 C.ar    1  UNL1        0.1347
      5 C         -27.3092   50.3170   -6.9077 C.ar    1  UNL1        0.0238
      6 C         -26.2282   50.7483   -7.6875 C.ar    1  UNL1        0.0031
      7 C         -24.9156   50.3600   -7.3764 C.ar    1  UNL1        0.0001
      8 C         -23.8487   50.8005   -8.1657 C.ar    1  UNL1        0.0000
      9 C         -24.0832   51.6287   -9.2674 C.ar    1  UNL1        0.0000
     10 C         -25.3861   52.0222   -9.5870 C.ar    1  UNL1        0.0015
     11 C         -26.4633   51.5858   -8.8011 C.ar    1  UNL1        0.0192
     12 C         -27.7772   51.9658   -9.0993 C.ar    1  UNL1        0.0989
     13 N         -28.8039   51.5317   -8.3224 N.ar    1  UNL1       -0.2393
     14 C         -31.3696   48.5444   -4.3195 C.3     1  UNL1        0.0265
     15 C         -30.3341   48.0675   -5.3554 C.3     1  UNL1        0.1007
     16 C         -28.9818   47.9734   -4.6709 C.ar    1  UNL1        0.0234
     17 C         -28.7904   48.5582   -3.4043 C.ar    1  UNL1        0.0019
     18 C         -27.5530   48.4682   -2.7620 C.ar    1  UNL1        0.0295
     19 C         -26.4967   47.7857   -3.3694 C.ar    1  UNL1        0.1424
     20 F         -25.2970   47.6986   -2.7440 F       1  UNL1       -0.2041
     21 C         -26.6784   47.1876   -4.6188 C.ar    1  UNL1        0.0590
     22 C         -27.9143   47.2735   -5.2685 C.ar    1  UNL1        0.1399
     23 F         -28.0655   46.6701   -6.4748 F       1  UNL1       -0.2044
     24 C         -31.0214   48.6055   -7.7650 C.3     1  UNL1        0.1216
     25 C         -30.6180   47.2435   -8.2863 C.ar    1  UNL1        0.0085
     26 C         -31.3337   46.1237   -7.8365 C.ar    1  UNL1       -0.0018
     27 C         -31.0412   44.8528   -8.3203 C.ar    1  UNL1       -0.0000
     28 C         -30.0235   44.6760   -9.2532 C.ar    1  UNL1        0.0073
     29 C         -29.2707   45.7703   -9.7142 C.ar    1  UNL1        0.0857
     30 C         -29.5781   47.0715   -9.2358 C.ar    1  UNL1        0.0615
     31 CL        -28.7081   48.4848   -9.8508 Cl      1  UNL1       -0.0823
     32 C         -28.1791   45.5123  -10.6870 C.2     1  UNL1        0.3388
     33 O         -28.3214   45.8440  -11.8953 O.2     1  UNL1       -0.2451
     34 O         -27.0082   44.8687  -10.2975 O.3     1  UNL1       -0.4771
     35 H         -26.2696   44.6818  -10.9652 H       1  UNL1        0.2954
@<TRIPOS>BOND
     1    14    15    1
     2    15    16    1
     3    16    17   ar
     4    17    18   ar
     5    18    19   ar
     6    19    20    1
     7    19    21   ar
     8    21    22   ar
     9    22    23    1
    10    15     1    1
    11     1    24    1
    12    24    25    1
    13    25    26   ar
    14    26    27   ar
    15    27    28   ar
    16    28    29   ar
    17    29    32    1
    18    32    33    2
    19    32    34    1
    20    29    30   ar
    21    30    31    1
    22     1     2   am
    23     2     3    2
    24     2     4    1
    25     4     5   ar
    26     5     6   ar
    27     6     7   ar
    28     7     8   ar
    29     8     9   ar
    30     9    10   ar
    31    10    11   ar
    32    11    12   ar
    33    12    13   ar
    34    22    16   ar
    35    30    25   ar
    36    13     4   ar
    37    11     6   ar
    38    34    35    1
@<TRIPOS>MOLECULE
*****
 35 38 0 0 0
SMALL
GASTEIGER

@<TRIPOS>ATOM
      1 N         -27.3970   50.2927   -6.0399 N.am    1  UNL1       -0.2685
      2 C         -26.8439   50.2055   -4.7153 C.2     1  UNL1        0.2672
      3 O         -26.2150   51.1893   -4.2387 O.2     1  UNL1       -0.2682
      4 C         -26.9978   48.9663   -3.9287 C.ar    1  UNL1        0.1347
      5 C         -25.9616   48.0221   -3.8501 C.ar    1  UNL1        0.0238
      6 C         -26.1458   46.8559   -3.0959 C.ar    1  UNL1        0.0031
      7 C         -25.1302   45.8916   -3.0011 C.ar    1  UNL1        0.0001
      8 C         -25.3319   44.7334   -2.2441 C.ar    1  UNL1        0.0000
      9 C         -26.5443   44.5299   -1.5784 C.ar    1  UNL1        0.0000
     10 C         -27.5632   45.4832   -1.6654 C.ar    1  UNL1        0.0015
     11 C         -27.3707   46.6485   -2.4227 C.ar    1  UNL1        0.0192
     12 C         -28.3751   47.6182   -2.5265 C.ar    1  UNL1        0.0989
     13 N         -28.1659   48.7378   -3.2671 N.ar    1  UNL1       -0.2393
     14 C         -29.6383   51.3016   -5.4796 C.3     1  UNL1        0.0265
     15 C         -28.3915   51.3388   -6.3835 C.3     1  UNL1        0.1007
     16 C         -28.8433   51.2024   -7.8268 C.ar    1  UNL1        0.0234
     17 C         -30.0326   50.5127   -8.1311 C.ar    1  UNL1        0.0019
     18 C         -30.4620   50.3906   -9.4550 C.ar    1  UNL1        0.0295
     19 C         -29.7173   50.9634  -10.4884 C.ar    1  UNL1        0.1424
     20 F         -30.1362   50.8447  -11.7723 F       1  UNL1       -0.2041
     21 C         -28.5439   51.6639  -10.1982 C.ar    1  UNL1        0.0590
     22 C         -28.1072   51.7903   -8.8752 C.ar    1  UNL1        0.1399
     23 F         -26.9714   52.4890   -8.6224 F       1  UNL1       -0.2044
     24 C         -26.6814   49.5732   -7.1089 C.3     1  UNL1        0.1216
     25 C         -27.4035   48.2944   -7.4733 C.ar    1  UNL1        0.0085
     26 C         -28.1937   47.6773   -6.4919 C.ar    1  UNL1       -0.0018
     27 C         -28.9209   46.5283   -6.7847 C.ar    1  UNL1       -0.0000
     28 C         -28.8644   45.9697   -8.0584 C.ar    1  UNL1        0.0073
     29 C         -28.0691   46.5473   -9.0637 C.ar    1  UNL1        0.0857
     30 C         -27.3391   47.7303   -8.7734 C.ar    1  UNL1        0.0615
     31 CL        -26.3899   48.5334  -10.0330 Cl      1  UNL1       -0.0823
     32 C         -28.0278   45.8872  -10.3930 C.2     1  UNL1        0.3388
     33 O         -28.8504   46.2227  -11.2881 O.2     1  UNL1       -0.2451
     34 O         -27.1188   44.8677  -10.6599 O.3     1  UNL1       -0.4771
     35 H         -27.1005   44.4094  -11.5632 H       1  UNL1        0.2954
@<TRIPOS>BOND
     1    14    15    1
     2    15    16    1
     3    16    17   ar
     4    17    18   ar
     5    18    19   ar
     6    19    20    1
     7    19    21   ar
     8    21    22   ar
     9    22    23    1
    10    15     1    1
    11     1    24    1
    12    24    25    1
    13    25    26   ar
    14    26    27   ar
    15    27    28   ar
    16    28    29   ar
    17    29    32    1
    18    32    33    2
    19    32    34    1
    20    29    30   ar
    21    30    31    1
    22     1     2   am
    23     2     3    2
    24     2     4    1
    25     4     5   ar
    26     5     6   ar
    27     6     7   ar
    28     7     8   ar
    29     8     9   ar
    30     9    10   ar
    31    10    11   ar
    32    11    12   ar
    33    12    13   ar
    34    22    16   ar
    35    30    25   ar
    36    13     4   ar
    37    11     6   ar
    38    34    35    1
@<TRIPOS>MOLECULE
*****
 35 38 0 0 0
SMALL
GASTEIGER

@<TRIPOS>ATOM
      1 N         -29.8143   49.4696   -6.2401 N.am    1  UNL1       -0.2685
      2 C         -29.9991   50.3629   -7.3517 C.2     1  UNL1        0.2672
      3 O         -31.0857   50.9924   -7.4688 O.2     1  UNL1       -0.2682
      4 C         -28.9301   50.5265   -8.3560 C.ar    1  UNL1        0.1347
      5 C         -27.6203   50.8596   -7.9753 C.ar    1  UNL1        0.0238
      6 C         -26.6327   51.0095   -8.9576 C.ar    1  UNL1        0.0031
      7 C         -25.3153   51.3457   -8.6089 C.ar    1  UNL1        0.0001
      8 C         -24.3427   51.4916   -9.6029 C.ar    1  UNL1        0.0000
      9 C         -24.6766   51.3035  -10.9474 C.ar    1  UNL1        0.0000
     10 C         -25.9855   50.9685  -11.3069 C.ar    1  UNL1        0.0015
     11 C         -26.9686   50.8201  -10.3170 C.ar    1  UNL1        0.0192
     12 C         -28.2865   50.4858  -10.6505 C.ar    1  UNL1        0.0989
     13 N         -29.2216   50.3493   -9.6743 N.ar    1  UNL1       -0.2393
     14 C         -30.1660   51.4774   -4.7569 C.3     1  UNL1        0.0265
     15 C         -29.8999   49.9627   -4.8433 C.3     1  UNL1        0.1007
     16 C         -28.6214   49.6579   -4.0827 C.ar    1  UNL1        0.0234
     17 C         -28.5957   48.6158   -3.1359 C.ar    1  UNL1        0.0019
     18 C         -27.4216   48.3209   -2.4385 C.ar    1  UNL1        0.0295
     19 C         -26.2583   49.0535   -2.6845 C.ar    1  UNL1        0.1424
     20 F         -25.1196   48.7651   -2.0074 F       1  UNL1       -0.2041
     21 C         -26.2665   50.0793   -3.6328 C.ar    1  UNL1        0.0590
     22 C         -27.4382   50.3808   -4.3351 C.ar    1  UNL1        0.1399
     23 F         -27.4121   51.3730   -5.2608 F       1  UNL1       -0.2044
     24 C         -29.9139   48.0263   -6.5221 C.3     1  UNL1        0.1216
     25 C         -28.7285   47.5540   -7.3354 C.ar    1  UNL1        0.0085
     26 C         -27.4413   47.8027   -6.8358 C.ar    1  UNL1       -0.0018
     27 C         -26.3159   47.3468   -7.5143 C.ar    1  UNL1       -0.0000
     28 C         -26.4549   46.6440   -8.7076 C.ar    1  UNL1        0.0073
     29 C         -27.7269   46.3912   -9.2509 C.ar    1  UNL1        0.0857
     30 C         -28.8787   46.8398   -8.5519 C.ar    1  UNL1        0.0615
     31 CL        -30.4997   46.4726   -9.1602 Cl      1  UNL1       -0.0823
     32 C         -27.8073   45.6622  -10.5418 C.2     1  UNL1        0.3388
     33 O         -28.5628   46.0864  -11.4582 O.2     1  UNL1       -0.2451
     34 O         -27.0914   44.4867  -10.7479 O.3     1  UNL1       -0.4771
     35 H         -27.1574   43.9834  -11.6246 H       1  UNL1        0.2954
@<TRIPOS>BOND
     1    14    15    1
     2    15    16    1
     3    16    17   ar
     4    17    18   ar
     5    18    19   ar
     6    19    20    1
     7    19    21   ar
     8    21    22   ar
     9    22    23    1
    10    15     1    1
    11     1    24    1
    12    24    25    1
    13    25    26   ar
    14    26    27   ar
    15    27    28   ar
    16    28    29   ar
    17    29    32    1
    18    32    33    2
    19    32    34    1
    20    29    30   ar
    21    30    31    1
    22     1     2   am
    23     2     3    2
    24     2     4    1
    25     4     5   ar
    26     5     6   ar
    27     6     7   ar
    28     7     8   ar
    29     8     9   ar
    30     9    10   ar
    31    10    11   ar
    32    11    12   ar
    33    12    13   ar
    34    22    16   ar
    35    30    25   ar
    36    13     4   ar
    37    11     6   ar
    38    34    35    1
@<TRIPOS>MOLECULE
*****
 35 38 0 0 0
SMALL
GASTEIGER

@<TRIPOS>ATOM
      1 N         -26.7796   50.1520  -10.2934 N.am    1  UNL1       -0.2685
      2 C         -25.8191   50.8774  -11.0801 C.2     1  UNL1        0.2672
      3 O         -26.0678   51.1241  -12.2917 O.2     1  UNL1       -0.2682
      4 C         -24.5452   51.3137  -10.4761 C.ar    1  UNL1        0.1347
      5 C         -23.5493   51.9329  -11.2483 C.ar    1  UNL1        0.0238
      6 C         -22.3515   52.3306  -10.6401 C.ar    1  UNL1        0.0031
      7 C         -21.3356   52.9485  -11.3860 C.ar    1  UNL1        0.0001
      8 C         -20.1465   53.3385  -10.7623 C.ar    1  UNL1        0.0000
      9 C         -19.9632   53.1156   -9.3944 C.ar    1  UNL1        0.0000
     10 C         -20.9678   52.5009   -8.6411 C.ar    1  UNL1        0.0015
     11 C         -22.1645   52.1057   -9.2577 C.ar    1  UNL1        0.0192
     12 C         -23.1857   51.4878   -8.5262 C.ar    1  UNL1        0.0989
     13 N         -24.3351   51.1125   -9.1458 N.ar    1  UNL1       -0.2393
     14 C         -28.4383   51.9421  -10.9255 C.3     1  UNL1        0.0265
     15 C         -28.1569   50.6702  -10.1033 C.3     1  UNL1        0.1007
     16 C         -28.4217   50.9786   -8.6402 C.ar    1  UNL1        0.0234
     17 C         -29.4463   50.3016   -7.9512 C.ar    1  UNL1        0.0019
     18 C         -29.6910   50.5709   -6.6023 C.ar    1  UNL1        0.0295
     19 C         -28.9108   51.5091   -5.9228 C.ar    1  UNL1        0.1424
     20 F         -29.1491   51.7682   -4.6135 F       1  UNL1       -0.2041
     21 C         -27.8809   52.1759   -6.5908 C.ar    1  UNL1        0.0590
     22 C         -27.6298   51.9120   -7.9415 C.ar    1  UNL1        0.1399
     23 F         -26.6132   52.5645   -8.5602 F       1  UNL1       -0.2044
     24 C         -26.4762   48.7377  -10.0102 C.3     1  UNL1        0.1216
     25 C         -26.6458   48.4355   -8.5373 C.ar    1  UNL1        0.0085
     26 C         -25.8508   49.1401   -7.6208 C.ar    1  UNL1       -0.0018
     27 C         -25.9991   48.9413   -6.2522 C.ar    1  UNL1       -0.0000
     28 C         -26.9358   48.0291   -5.7748 C.ar    1  UNL1        0.0073
     29 C         -27.7381   47.2896   -6.6615 C.ar    1  UNL1        0.0857
     30 C         -27.6017   47.5027   -8.0588 C.ar    1  UNL1        0.0615
     31 CL        -28.6476   46.6512   -9.2049 Cl      1  UNL1       -0.0823
     32 C         -28.6977   46.3107   -6.0910 C.2     1  UNL1        0.3388
     33 O         -29.8876   46.6579   -5.8589 O.2     1  UNL1       -0.2451
     34 O         -28.2963   45.0185   -5.7657 O.3     1  UNL1       -0.4771
     35 H         -28.9490   44.3557   -5.3645 H       1  UNL1        0.2954
@<TRIPOS>BOND
     1    14    15    1
     2    15    16    1
     3    16    17   ar
     4    17    18   ar
     5    18    19   ar
     6    19    20    1
     7    19    21   ar
     8    21    22   ar
     9    22    23    1
    10    15     1    1
    11     1    24    1
    12    24    25    1
    13    25    26   ar
    14    26    27   ar
    15    27    28   ar
    16    28    29   ar
    17    29    32    1
    18    32    33    2
    19    32    34    1
    20    29    30   ar
    21    30    31    1
    22     1     2   am
    23     2     3    2
    24     2     4    1
    25     4     5   ar
    26     5     6   ar
    27     6     7   ar
    28     7     8   ar
    29     8     9   ar
    30     9    10   ar
    31    10    11   ar
    32    11    12   ar
    33    12    13   ar
    34    22    16   ar
    35    30    25   ar
    36    13     4   ar
    37    11     6   ar
    38    34    35    1
@<TRIPOS>MOLECULE
*****
 35 38 0 0 0
SMALL
GASTEIGER

@<TRIPOS>ATOM
      1 N         -29.9263   46.7230   -7.9827 N.am    1  UNL1       -0.2685
      2 C         -28.5827   46.5338   -8.4590 C.2     1  UNL1        0.2672
      3 O         -28.2264   45.3991   -8.8788 O.2     1  UNL1       -0.2682
      4 C         -27.6251   47.6566   -8.4392 C.ar    1  UNL1        0.1347
      5 C         -27.9500   48.8988   -9.0073 C.ar    1  UNL1        0.0238
      6 C         -27.0136   49.9403   -8.9720 C.ar    1  UNL1        0.0031
      7 C         -27.3073   51.1922   -9.5346 C.ar    1  UNL1        0.0001
      8 C         -26.3603   52.2201   -9.4905 C.ar    1  UNL1        0.0000
      9 C         -25.1176   52.0067   -8.8867 C.ar    1  UNL1        0.0000
     10 C         -24.8135   50.7639   -8.3230 C.ar    1  UNL1        0.0015
     11 C         -25.7569   49.7262   -8.3624 C.ar    1  UNL1        0.0192
     12 C         -25.4770   48.4724   -7.8060 C.ar    1  UNL1        0.0989
     13 N         -26.4061   47.4824   -7.8578 N.ar    1  UNL1       -0.2393
     14 C         -31.5840   45.0147   -8.8127 C.3     1  UNL1        0.0265
     15 C         -31.0911   46.4730   -8.8672 C.3     1  UNL1        0.1007
     16 C         -30.7574   46.8111  -10.3095 C.ar    1  UNL1        0.0234
     17 C         -30.4123   45.7869  -11.2121 C.ar    1  UNL1        0.0019
     18 C         -30.1137   46.0867  -12.5436 C.ar    1  UNL1        0.0295
     19 C         -30.1662   47.4081  -12.9926 C.ar    1  UNL1        0.1424
     20 F         -29.8770   47.6968  -14.2853 F       1  UNL1       -0.2041
     21 C         -30.5227   48.4315  -12.1110 C.ar    1  UNL1        0.0590
     22 C         -30.8229   48.1395  -10.7762 C.ar    1  UNL1        0.1399
     23 F         -31.1802   49.1524   -9.9466 F       1  UNL1       -0.2044
     24 C         -30.1102   46.8012   -6.5223 C.3     1  UNL1        0.1216
     25 C         -29.2734   47.9160   -5.9336 C.ar    1  UNL1        0.0085
     26 C         -28.1522   47.5675   -5.1654 C.ar    1  UNL1       -0.0018
     27 C         -27.3172   48.5491   -4.6421 C.ar    1  UNL1       -0.0000
     28 C         -27.5917   49.8949   -4.8676 C.ar    1  UNL1        0.0073
     29 C         -28.7161   50.2852   -5.6160 C.ar    1  UNL1        0.0857
     30 C         -29.5611   49.2854   -6.1666 C.ar    1  UNL1        0.0615
     31 CL        -30.9406   49.7326   -7.1812 Cl      1  UNL1       -0.0823
     32 C         -28.9710   51.7368   -5.7961 C.2     1  UNL1        0.3388
     33 O         -30.0749   52.2310   -5.4391 O.2     1  UNL1       -0.2451
     34 O         -28.0240   52.5627   -6.3943 O.3     1  UNL1       -0.4771
     35 H         -28.2045   53.5505   -6.5282 H       1  UNL1        0.2954
@<TRIPOS>BOND
     1    14    15    1
     2    15    16    1
     3    16    17   ar
     4    17    18   ar
     5    18    19   ar
     6    19    20    1
     7    19    21   ar
     8    21    22   ar
     9    22    23    1
    10    15     1    1
    11     1    24    1
    12    24    25    1
    13    25    26   ar
    14    26    27   ar
    15    27    28   ar
    16    28    29   ar
    17    29    32    1
    18    32    33    2
    19    32    34    1
    20    29    30   ar
    21    30    31    1
    22     1     2   am
    23     2     3    2
    24     2     4    1
    25     4     5   ar
    26     5     6   ar
    27     6     7   ar
    28     7     8   ar
    29     8     9   ar
    30     9    10   ar
    31    10    11   ar
    32    11    12   ar
    33    12    13   ar
    34    22    16   ar
    35    30    25   ar
    36    13     4   ar
    37    11     6   ar
    38    34    35    1
@<TRIPOS>MOLECULE
*****
 35 38 0 0 0
SMALL
GASTEIGER

@<TRIPOS>ATOM
      1 N         -30.5246   48.7824   -6.2055 N.am    1  UNL1       -0.2685
      2 C         -29.4615   47.8919   -6.5856 C.2     1  UNL1        0.2672
      3 O         -29.4546   47.3910   -7.7431 O.2     1  UNL1       -0.2682
      4 C         -28.3970   47.5549   -5.6204 C.ar    1  UNL1        0.1347
      5 C         -27.9972   46.2247   -5.4148 C.ar    1  UNL1        0.0238
      6 C         -26.9852   45.9434   -4.4877 C.ar    1  UNL1        0.0031
      7 C         -26.5662   44.6238   -4.2571 C.ar    1  UNL1        0.0001
      8 C         -25.5549   44.3617   -3.3277 C.ar    1  UNL1        0.0000
      9 C         -24.9564   45.4111   -2.6242 C.ar    1  UNL1        0.0000
     10 C         -25.3653   46.7297   -2.8452 C.ar    1  UNL1        0.0015
     11 C         -26.3794   47.0029   -3.7755 C.ar    1  UNL1        0.0192
     12 C         -26.8076   48.3141   -4.0149 C.ar    1  UNL1        0.0989
     13 N         -27.7926   48.5536   -4.9195 N.ar    1  UNL1       -0.2393
     14 C         -31.5836   49.8125   -8.2482 C.3     1  UNL1        0.0265
     15 C         -30.7737   50.0371   -6.9573 C.3     1  UNL1        0.1007
     16 C         -29.4661   50.7157   -7.3255 C.ar    1  UNL1        0.0234
     17 C         -29.0160   50.7023   -8.6597 C.ar    1  UNL1        0.0019
     18 C         -27.8195   51.3326   -9.0103 C.ar    1  UNL1        0.0295
     19 C         -27.0644   51.9921   -8.0380 C.ar    1  UNL1        0.1424
     20 F         -25.9040   52.6040   -8.3803 F       1  UNL1       -0.2041
     21 C         -27.5081   52.0263   -6.7137 C.ar    1  UNL1        0.0590
     22 C         -28.7049   51.3973   -6.3547 C.ar    1  UNL1        0.1399
     23 F         -29.1180   51.4597   -5.0633 F       1  UNL1       -0.2044
     24 C         -31.5628   48.2370   -5.3126 C.3     1  UNL1        0.1216
     25 C         -31.1241   48.3151   -3.8666 C.ar    1  UNL1        0.0085
     26 C         -31.1624   49.5646   -3.2295 C.ar    1  UNL1       -0.0018
     27 C         -30.8198   49.6880   -1.8871 C.ar    1  UNL1       -0.0000
     28 C         -30.4235   48.5691   -1.1601 C.ar    1  UNL1        0.0073
     29 C         -30.3538   47.3030   -1.7674 C.ar    1  UNL1        0.0857
     30 C         -30.7197   47.1702   -3.1330 C.ar    1  UNL1        0.0615
     31 CL        -30.7226   45.5814   -3.9130 Cl      1  UNL1       -0.0823
     32 C         -29.8954   46.1541   -0.9461 C.2     1  UNL1        0.3388
     33 O         -28.6815   45.8128   -0.9633 O.2     1  UNL1       -0.2451
     34 O         -30.7936   45.4138   -0.1832 O.3     1  UNL1       -0.4771
     35 H         -30.4814   44.6222    0.3665 H       1  UNL1        0.2954
@<TRIPOS>BOND
     1    14    15    1
     2    15    16    1
     3    16    17   ar
     4    17    18   ar
     5    18    19   ar
     6    19    20    1
     7    19    21   ar
     8    21    22   ar
     9    22    23    1
    10    15     1    1
    11     1    24    1
    12    24    25    1
    13    25    26   ar
    14    26    27   ar
    15    27    28   ar
    16    28    29   ar
    17    29    32    1
    18    32    33    2
    19    32    34    1
    20    29    30   ar
    21    30    31    1
    22     1     2   am
    23     2     3    2
    24     2     4    1
    25     4     5   ar
    26     5     6   ar
    27     6     7   ar
    28     7     8   ar
    29     8     9   ar
    30     9    10   ar
    31    10    11   ar
    32    11    12   ar
    33    12    13   ar
    34    22    16   ar
    35    30    25   ar
    36    13     4   ar
    37    11     6   ar
    38    34    35    1
@<TRIPOS>MOLECULE
*****
 35 38 0 0 0
SMALL
GASTEIGER

@<TRIPOS>ATOM
      1 N         -29.2456   50.0600   -7.6285 N.am    1  UNL1       -0.2685
      2 C         -29.6821   49.4720   -6.3909 C.2     1  UNL1        0.2672
      3 O         -30.9028   49.5188   -6.0773 O.2     1  UNL1       -0.2682
      4 C         -28.7038   48.8344   -5.4883 C.ar    1  UNL1        0.1347
      5 C         -28.2428   47.5289   -5.7220 C.ar    1  UNL1        0.0238
      6 C         -27.3162   46.9558   -4.8412 C.ar    1  UNL1        0.0031
      7 C         -26.8395   45.6516   -5.0458 C.ar    1  UNL1        0.0001
      8 C         -25.9151   45.0956   -4.1562 C.ar    1  UNL1        0.0000
      9 C         -25.4612   45.8347   -3.0597 C.ar    1  UNL1        0.0000
     10 C         -25.9289   47.1347   -2.8455 C.ar    1  UNL1        0.0015
     11 C         -26.8567   47.7014   -3.7323 C.ar    1  UNL1        0.0192
     12 C         -27.3411   49.0007   -3.5400 C.ar    1  UNL1        0.0989
     13 N         -28.2406   49.5273   -4.4115 N.ar    1  UNL1       -0.2393
     14 C         -31.3211   49.7679   -9.0292 C.3     1  UNL1        0.0265
     15 C         -29.7936   49.5974   -8.9274 C.3     1  UNL1        0.1007
     16 C         -29.4589   48.1356   -9.1660 C.ar    1  UNL1        0.0234
     17 C         -30.4810   47.1671   -9.1528 C.ar    1  UNL1        0.0019
     18 C         -30.1846   45.8210   -9.3814 C.ar    1  UNL1        0.0295
     19 C         -28.8691   45.4271   -9.6360 C.ar    1  UNL1        0.1424
     20 F         -28.5837   44.1205   -9.8586 F       1  UNL1       -0.2041
     21 C         -27.8484   46.3804   -9.6675 C.ar    1  UNL1        0.0590
     22 C         -28.1370   47.7301   -9.4394 C.ar    1  UNL1        0.1399
     23 F         -27.1272   48.6354   -9.4907 F       1  UNL1       -0.2044
     24 C         -28.5447   51.3536   -7.5402 C.3     1  UNL1        0.1216
     25 C         -27.0694   51.1872   -7.8323 C.ar    1  UNL1        0.0085
     26 C         -26.2279   50.7853   -6.7840 C.ar    1  UNL1       -0.0018
     27 C         -24.8723   50.5667   -7.0057 C.ar    1  UNL1       -0.0000
     28 C         -24.3311   50.7549   -8.2741 C.ar    1  UNL1        0.0073
     29 C         -25.1374   51.1757   -9.3463 C.ar    1  UNL1        0.0857
     30 C         -26.5252   51.3829   -9.1277 C.ar    1  UNL1        0.0615
     31 CL        -27.5891   51.8350  -10.4680 Cl      1  UNL1       -0.0823
     32 C         -24.4949   51.3873  -10.6679 C.2     1  UNL1        0.3388
     33 O         -23.7269   52.3719  -10.8439 O.2     1  UNL1       -0.2451
     34 O         -24.7578   50.5371  -11.7379 O.3     1  UNL1       -0.4771
     35 H         -24.3286   50.6903  -12.6427 H       1  UNL1        0.2954
@<TRIPOS>BOND
     1    14    15    1
     2    15    16    1
     3    16    17   ar
     4    17    18   ar
     5    18    19   ar
     6    19    20    1
     7    19    21   ar
     8    21    22   ar
     9    22    23    1
    10    15     1    1
    11     1    24    1
    12    24    25    1
    13    25    26   ar
    14    26    27   ar
    15    27    28   ar
    16    28    29   ar
    17    29    32    1
    18    32    33    2
    19    32    34    1
    20    29    30   ar
    21    30    31    1
    22     1     2   am
    23     2     3    2
    24     2     4    1
    25     4     5   ar
    26     5     6   ar
    27     6     7   ar
    28     7     8   ar
    29     8     9   ar
    30     9    10   ar
    31    10    11   ar
    32    11    12   ar
    33    12    13   ar
    34    22    16   ar
    35    30    25   ar
    36    13     4   ar
    37    11     6   ar
    38    34    35    1
@<TRIPOS>MOLECULE
*****
 35 38 0 0 0
SMALL
GASTEIGER

@<TRIPOS>ATOM
      1 N         -29.7246   47.7358   -4.4815 N.am    1  UNL1       -0.2685
      2 C         -30.1053   49.0880   -4.7888 C.2     1  UNL1        0.2672
      3 O         -31.1744   49.5562   -4.3109 O.2     1  UNL1       -0.2682
      4 C         -29.2579   49.9136   -5.6711 C.ar    1  UNL1        0.1347
      5 C         -29.5250   50.0176   -7.0457 C.ar    1  UNL1        0.0238
      6 C         -28.6963   50.8086   -7.8521 C.ar    1  UNL1        0.0031
      7 C         -28.9352   50.9295   -9.2300 C.ar    1  UNL1        0.0001
      8 C         -28.0974   51.7232  -10.0196 C.ar    1  UNL1        0.0000
      9 C         -27.0189   52.3996   -9.4418 C.ar    1  UNL1        0.0000
     10 C         -26.7709   52.2868   -8.0705 C.ar    1  UNL1        0.0015
     11 C         -27.6057   51.4927   -7.2698 C.ar    1  UNL1        0.0192
     12 C         -27.3788   51.3626   -5.8945 C.ar    1  UNL1        0.0989
     13 N         -28.2000   50.5865   -5.1400 N.ar    1  UNL1       -0.2393
     14 C         -29.6122   48.4650   -2.0711 C.3     1  UNL1        0.0265
     15 C         -29.5109   47.3040   -3.0782 C.3     1  UNL1        0.1007
     16 C         -28.1514   46.6474   -2.9154 C.ar    1  UNL1        0.0234
     17 C         -26.9845   47.4355   -2.9048 C.ar    1  UNL1        0.0019
     18 C         -25.7298   46.8418   -2.7453 C.ar    1  UNL1        0.0295
     19 C         -25.6252   45.4585   -2.5838 C.ar    1  UNL1        0.1424
     20 F         -24.4069   44.8844   -2.4282 F       1  UNL1       -0.2041
     21 C         -26.7765   44.6672   -2.5766 C.ar    1  UNL1        0.0590
     22 C         -28.0363   45.2541   -2.7360 C.ar    1  UNL1        0.1399
     23 F         -29.1380   44.4618   -2.7101 F       1  UNL1       -0.2044
     24 C         -29.9208   46.7314   -5.5424 C.3     1  UNL1        0.1216
     25 C         -28.8070   46.8033   -6.5640 C.ar    1  UNL1        0.0085
     26 C         -27.5713   47.3311   -6.1605 C.ar    1  UNL1       -0.0018
     27 C         -26.4960   47.3747   -7.0417 C.ar    1  UNL1       -0.0000
     28 C         -26.6378   46.9019   -8.3431 C.ar    1  UNL1        0.0073
     29 C         -27.8652   46.3832   -8.7914 C.ar    1  UNL1        0.0857
     30 C         -28.9602   46.3209   -7.8893 C.ar    1  UNL1        0.0615
     31 CL        -30.4981   45.6019   -8.3898 Cl      1  UNL1       -0.0823
     32 C         -27.9610   45.9222  -10.1995 C.2     1  UNL1        0.3388
     33 O         -28.7905   46.4596  -10.9827 O.2     1  UNL1       -0.2451
     34 O         -27.1761   44.8717  -10.6655 O.3     1  UNL1       -0.4771
     35 H         -27.2518   44.5497  -11.6231 H       1  UNL1        0.2954
@<TRIPOS>BOND
     1    14    15    1
     2    15    16    1
     3    16    17   ar
     4    17    18   ar
     5    18    19   ar
     6    19    20    1
     7    19    21   ar
     8    21    22   ar
     9    22    23    1
    10    15     1    1
    11     1    24    1
    12    24    25    1
    13    25    26   ar
    14    26    27   ar
    15    27    28   ar
    16    28    29   ar
    17    29    32    1
    18    32    33    2
    19    32    34    1
    20    29    30   ar
    21    30    31    1
    22     1     2   am
    23     2     3    2
    24     2     4    1
    25     4     5   ar
    26     5     6   ar
    27     6     7   ar
    28     7     8   ar
    29     8     9   ar
    30     9    10   ar
    31    10    11   ar
    32    11    12   ar
    33    12    13   ar
    34    22    16   ar
    35    30    25   ar
    36    13     4   ar
    37    11     6   ar
    38    34    35    1
