@<TRIPOS>MOLECULE
*****
 35 40 0 0 0
SMALL
GASTEIGER

@<TRIPOS>ATOM
      1 C         -23.0601   -9.1584  -14.9637 C.ar    1  UNL1        0.1095
      2 N         -23.1399   -8.9431  -16.3008 N.ar    1  UNL1       -0.1677
      3 N         -23.3302  -10.1144  -16.8972 N.ar    1  UNL1       -0.2319
      4 C         -23.3850  -10.3012  -18.3408 C.3     1  UNL1        0.1554
      5 C         -23.3419  -11.0720  -15.9573 C.ar    1  UNL1        0.1658
      6 N         -23.4395  -12.4091  -16.1519 N.ar    1  UNL1       -0.2019
      7 C         -23.4116  -13.2223  -15.0546 C.ar    1  UNL1        0.2006
      8 BR        -23.5424  -15.1099  -15.2732 Br      1  UNL1       -0.0062
      9 N         -23.3108  -12.6889  -13.7961 N.ar    1  UNL1       -0.2057
     10 C         -23.2127  -11.3407  -13.5939 C.ar    1  UNL1        0.1383
     11 C         -23.1986  -10.5193  -14.7231 C.ar    1  UNL1        0.0865
     12 C         -23.5380   -7.1656  -13.4216 C.ar    1  UNL1        0.0809
     13 C         -22.7070   -8.1085  -13.9974 C.ar    1  UNL1        0.0577
     14 C         -21.4748   -7.9095  -13.4040 C.ar    1  UNL1        0.1231
     15 N         -21.5666   -6.9045  -12.5109 N.ar    1  UNL1       -0.1676
     16 N         -22.8134   -6.4587  -12.5277 N.ar    1  UNL1       -0.2488
     17 C         -23.2985   -5.4085  -11.6393 C.3     1  UNL1        0.1537
     18 C         -29.2392   -6.6909  -14.2809 C.3     1  UNL1        0.0310
     19 C         -27.7643   -6.7918  -14.0284 C.ar    1  UNL1       -0.0218
     20 C         -26.8815   -5.8752  -14.6199 C.ar    1  UNL1       -0.0042
     21 C         -25.5036   -5.9915  -14.4154 C.ar    1  UNL1        0.0012
     22 C         -24.9917   -7.0341  -13.6305 C.ar    1  UNL1        0.0174
     23 C         -25.8715   -7.9587  -13.0501 C.ar    1  UNL1        0.0012
     24 C         -27.2496   -7.8427  -13.2539 C.ar    1  UNL1       -0.0042
     25 N         -23.2268  -10.8123  -12.2637 N.pl3   1  UNL1       -0.2916
     26 C         -24.4637  -10.5383  -11.5502 C.3     1  UNL1        0.0937
     27 C         -24.0376  -10.0508  -10.1743 C.3     1  UNL1        0.0391
     28 C         -22.6195  -10.6145   -9.9769 C.3     1  UNL1        0.0790
     29 C         -22.0680  -10.8663  -11.3888 C.3     1  UNL1        0.1081
     30 N         -21.7333   -9.7942   -9.1048 N.3     1  UNL1       -0.2723
     31 C         -22.4627   -8.6997   -8.4122 C.3     1  UNL1        0.0721
     32 C         -22.2129   -7.3242   -9.0488 C.3     1  UNL1        0.0174
     33 C         -20.7174   -6.9651   -9.0869 C.3     1  UNL1        0.0029
     34 C         -19.8047   -8.1939   -8.9824 C.3     1  UNL1        0.0174
     35 C         -20.4220   -9.4049   -9.6900 C.3     1  UNL1        0.0721
@<TRIPOS>BOND
     1    18    19    1
     2    19    20   ar
     3    20    21   ar
     4    21    22   ar
     5    22    12    1
     6    12    13   ar
     7    13     1    1
     8     1     2   ar
     9     2     3   ar
    10     3     4    1
    11     3     5   ar
    12     5     6   ar
    13     6     7   ar
    14     7     8    1
    15     7     9   ar
    16     9    10   ar
    17    10    25    1
    18    25    26    1
    19    26    27    1
    20    27    28    1
    21    28    30    1
    22    30    31    1
    23    31    32    1
    24    32    33    1
    25    33    34    1
    26    34    35    1
    27    28    29    1
    28    10    11   ar
    29    13    14   ar
    30    14    15   ar
    31    15    16   ar
    32    16    17    1
    33    22    23   ar
    34    23    24   ar
    35    24    19   ar
    36    16    12   ar
    37    11     1   ar
    38    11     5   ar
    39    29    25    1
    40    35    30    1
@<TRIPOS>MOLECULE
*****
 35 40 0 0 0
SMALL
GASTEIGER

@<TRIPOS>ATOM
      1 C         -20.9909   -9.0224   -8.3814 C.ar    1  UNL1        0.1095
      2 N         -20.6430   -8.4222   -7.2155 N.ar    1  UNL1       -0.1677
      3 N         -19.3996   -8.7835   -6.9198 N.ar    1  UNL1       -0.2319
      4 C         -18.7036   -8.4052   -5.6974 C.3     1  UNL1        0.1554
      5 C         -18.9666   -9.6284   -7.8680 C.ar    1  UNL1        0.1658
      6 N         -17.7798  -10.2808   -7.9034 N.ar    1  UNL1       -0.2019
      7 C         -17.5381  -11.1193   -8.9543 C.ar    1  UNL1        0.2006
      8 BR        -15.8862  -12.0628   -9.0504 Br      1  UNL1       -0.0062
      9 N         -18.4667  -11.2710   -9.9509 N.ar    1  UNL1       -0.2057
     10 C         -19.6653  -10.6148   -9.9207 C.ar    1  UNL1        0.1383
     11 C         -19.9223   -9.7930   -8.8213 C.ar    1  UNL1        0.0865
     12 C         -22.9129   -7.9704   -9.7145 C.ar    1  UNL1        0.0809
     13 C         -22.3485   -8.9688   -8.9424 C.ar    1  UNL1        0.0577
     14 C         -23.3114   -9.9579   -8.8768 C.ar    1  UNL1        0.1231
     15 N         -24.3937   -9.5747   -9.5825 N.ar    1  UNL1       -0.1676
     16 N         -24.1477   -8.3741  -10.0837 N.ar    1  UNL1       -0.2488
     17 C         -25.0761   -7.6681  -10.9595 C.3     1  UNL1        0.1537
     18 C         -20.2505   -3.1707  -11.5424 C.3     1  UNL1        0.0310
     19 C         -20.9735   -4.3978  -11.0725 C.ar    1  UNL1       -0.0218
     20 C         -21.2383   -4.5829   -9.7070 C.ar    1  UNL1       -0.0042
     21 C         -21.8784   -5.7441   -9.2643 C.ar    1  UNL1        0.0012
     22 C         -22.2469   -6.7399  -10.1795 C.ar    1  UNL1        0.0174
     23 C         -21.9708   -6.5625  -11.5426 C.ar    1  UNL1        0.0012
     24 C         -21.3310   -5.4014  -11.9860 C.ar    1  UNL1       -0.0042
     25 N         -20.5607  -10.7057  -11.0337 N.pl3   1  UNL1       -0.2916
     26 C         -20.7504   -9.6089  -11.9692 C.3     1  UNL1        0.0937
     27 C         -21.7231  -10.1322  -13.0143 C.3     1  UNL1        0.0391
     28 C         -21.5890  -11.6636  -12.9475 C.3     1  UNL1        0.0790
     29 C         -21.0470  -11.9762  -11.5441 C.3     1  UNL1        0.1081
     30 N         -22.8188  -12.4185  -13.3168 N.3     1  UNL1       -0.2723
     31 C         -22.7133  -13.0726  -14.6475 C.3     1  UNL1        0.0721
     32 C         -23.4908  -12.3238  -15.7404 C.3     1  UNL1        0.0174
     33 C         -24.9809  -12.1693  -15.3903 C.3     1  UNL1        0.0029
     34 C         -25.2595  -12.3074  -13.8880 C.3     1  UNL1        0.0174
     35 C         -24.1107  -11.7284  -13.0554 C.3     1  UNL1        0.0721
@<TRIPOS>BOND
     1    18    19    1
     2    19    20   ar
     3    20    21   ar
     4    21    22   ar
     5    22    12    1
     6    12    13   ar
     7    13     1    1
     8     1     2   ar
     9     2     3   ar
    10     3     4    1
    11     3     5   ar
    12     5     6   ar
    13     6     7   ar
    14     7     8    1
    15     7     9   ar
    16     9    10   ar
    17    10    25    1
    18    25    26    1
    19    26    27    1
    20    27    28    1
    21    28    30    1
    22    30    31    1
    23    31    32    1
    24    32    33    1
    25    33    34    1
    26    34    35    1
    27    28    29    1
    28    10    11   ar
    29    13    14   ar
    30    14    15   ar
    31    15    16   ar
    32    16    17    1
    33    22    23   ar
    34    23    24   ar
    35    24    19   ar
    36    16    12   ar
    37    11     1   ar
    38    11     5   ar
    39    29    25    1
    40    35    30    1
@<TRIPOS>MOLECULE
*****
 35 40 0 0 0
SMALL
GASTEIGER

@<TRIPOS>ATOM
      1 C         -21.4917   -7.5521  -12.6756 C.ar    1  UNL1        0.1095
      2 N         -21.3241   -6.2250  -12.4487 N.ar    1  UNL1       -0.1677
      3 N         -21.3819   -6.0194  -11.1379 N.ar    1  UNL1       -0.2319
      4 C         -21.3252   -4.7064  -10.5096 C.3     1  UNL1        0.1554
      5 C         -21.6141   -7.1949  -10.5340 C.ar    1  UNL1        0.1658
      6 N         -21.8119   -7.4111   -9.2113 N.ar    1  UNL1       -0.2019
      7 C         -22.0552   -8.6901   -8.7981 C.ar    1  UNL1        0.2006
      8 BR        -22.3430   -9.0479   -6.9496 Br      1  UNL1       -0.0062
      9 N         -22.0735   -9.7211   -9.7011 N.ar    1  UNL1       -0.2057
     10 C         -21.8739   -9.5090  -11.0365 C.ar    1  UNL1        0.1383
     11 C         -21.6687   -8.1930  -11.4561 C.ar    1  UNL1        0.0865
     12 C         -22.7954   -8.4053  -14.7127 C.ar    1  UNL1        0.0809
     13 C         -21.6311   -8.1292  -14.0202 C.ar    1  UNL1        0.0577
     14 C         -20.6104   -8.4348  -14.9003 C.ar    1  UNL1        0.1231
     15 N         -21.1378   -8.8630  -16.0642 N.ar    1  UNL1       -0.1676
     16 N         -22.4563   -8.8447  -15.9439 N.ar    1  UNL1       -0.2488
     17 C         -23.3630   -9.1865  -17.0341 C.3     1  UNL1        0.1537
     18 C         -28.2148   -7.3858  -12.9640 C.3     1  UNL1        0.0310
     19 C         -26.7976   -7.6405  -13.3835 C.ar    1  UNL1       -0.0218
     20 C         -26.0328   -6.6106  -13.9523 C.ar    1  UNL1       -0.0042
     21 C         -24.7245   -6.8572  -14.3783 C.ar    1  UNL1        0.0012
     22 C         -24.1716   -8.1395  -14.2548 C.ar    1  UNL1        0.0174
     23 C         -24.9392   -9.1728  -13.6992 C.ar    1  UNL1        0.0012
     24 C         -26.2475   -8.9267  -13.2728 C.ar    1  UNL1       -0.0042
     25 N         -21.7835  -10.6208  -11.9334 N.pl3   1  UNL1       -0.2916
     26 C         -20.6450  -11.5252  -11.9368 C.3     1  UNL1        0.0937
     27 C         -20.9698  -12.5807  -12.9821 C.3     1  UNL1        0.0391
     28 C         -22.5035  -12.5564  -13.1050 C.3     1  UNL1        0.0790
     29 C         -22.9407  -11.1642  -12.6240 C.3     1  UNL1        0.1081
     30 N         -23.0325  -12.9419  -14.4430 N.3     1  UNL1       -0.2723
     31 C         -24.4308  -12.4870  -14.6606 C.3     1  UNL1        0.0721
     32 C         -25.4535  -13.6248  -14.5223 C.3     1  UNL1        0.0174
     33 C         -25.1634  -14.7867  -15.4881 C.3     1  UNL1        0.0029
     34 C         -23.7090  -14.8098  -15.9757 C.3     1  UNL1        0.0174
     35 C         -22.7489  -14.3358  -14.8794 C.3     1  UNL1        0.0721
@<TRIPOS>BOND
     1    18    19    1
     2    19    20   ar
     3    20    21   ar
     4    21    22   ar
     5    22    12    1
     6    12    13   ar
     7    13     1    1
     8     1     2   ar
     9     2     3   ar
    10     3     4    1
    11     3     5   ar
    12     5     6   ar
    13     6     7   ar
    14     7     8    1
    15     7     9   ar
    16     9    10   ar
    17    10    25    1
    18    25    26    1
    19    26    27    1
    20    27    28    1
    21    28    30    1
    22    30    31    1
    23    31    32    1
    24    32    33    1
    25    33    34    1
    26    34    35    1
    27    28    29    1
    28    10    11   ar
    29    13    14   ar
    30    14    15   ar
    31    15    16   ar
    32    16    17    1
    33    22    23   ar
    34    23    24   ar
    35    24    19   ar
    36    16    12   ar
    37    11     1   ar
    38    11     5   ar
    39    29    25    1
    40    35    30    1
@<TRIPOS>MOLECULE
*****
 35 40 0 0 0
SMALL
GASTEIGER

@<TRIPOS>ATOM
      1 C         -20.6289   -9.4909  -11.5508 C.ar    1  UNL1        0.1095
      2 N         -19.9139  -10.6440  -11.5588 N.ar    1  UNL1       -0.1677
      3 N         -19.4693  -10.8629  -10.3266 N.ar    1  UNL1       -0.2319
      4 C         -18.5925  -11.9648   -9.9541 C.3     1  UNL1        0.1554
      5 C         -19.8682   -9.8477   -9.5451 C.ar    1  UNL1        0.1658
      6 N         -19.5662   -9.6522   -8.2390 N.ar    1  UNL1       -0.2019
      7 C         -20.0588   -8.5357   -7.6253 C.ar    1  UNL1        0.2006
      8 BR        -19.6613   -8.2121   -5.7908 Br      1  UNL1       -0.0062
      9 N         -20.8540   -7.6571   -8.3140 N.ar    1  UNL1       -0.2057
     10 C         -21.1625   -7.8497   -9.6315 C.ar    1  UNL1        0.1383
     11 C         -20.6197   -8.9706  -10.2630 C.ar    1  UNL1        0.0865
     12 C         -22.1790   -9.2952  -13.5847 C.ar    1  UNL1        0.0809
     13 C         -21.1514   -8.8574  -12.7700 C.ar    1  UNL1        0.0577
     14 C         -20.7678   -7.6403  -13.3006 C.ar    1  UNL1        0.1231
     15 N         -21.5341   -7.3595  -14.3730 N.ar    1  UNL1       -0.1676
     16 N         -22.3821   -8.3626  -14.5402 N.ar    1  UNL1       -0.2488
     17 C         -23.4120   -8.3746  -15.5730 C.3     1  UNL1        0.1537
     18 C         -25.4732  -13.9889  -12.8203 C.3     1  UNL1        0.0310
     19 C         -24.5950  -12.7855  -12.9935 C.ar    1  UNL1       -0.0218
     20 C         -24.7875  -11.6488  -12.1935 C.ar    1  UNL1       -0.0042
     21 C         -23.9942  -10.5131  -12.3801 C.ar    1  UNL1        0.0012
     22 C         -23.0104  -10.4953  -13.3785 C.ar    1  UNL1        0.0174
     23 C         -22.8260  -11.6254  -14.1877 C.ar    1  UNL1        0.0012
     24 C         -23.6188  -12.7615  -14.0014 C.ar    1  UNL1       -0.0042
     25 N         -22.0887   -6.9765  -10.2860 N.pl3   1  UNL1       -0.2916
     26 C         -21.7139   -5.6475  -10.7415 C.3     1  UNL1        0.0937
     27 C         -22.9534   -5.0884  -11.4220 C.3     1  UNL1        0.0391
     28 C         -23.7744   -6.3255  -11.8263 C.3     1  UNL1        0.0790
     29 C         -23.3229   -7.4539  -10.8862 C.3     1  UNL1        0.1081
     30 N         -25.2480   -6.1134  -11.8734 N.3     1  UNL1       -0.2723
     31 C         -26.0158   -7.3377  -11.5252 C.3     1  UNL1        0.0721
     32 C         -26.6157   -8.0325  -12.7568 C.3     1  UNL1        0.0174
     33 C         -27.5318   -7.0958  -13.5632 C.3     1  UNL1        0.0029
     34 C         -27.2534   -5.6110  -13.2952 C.3     1  UNL1        0.0174
     35 C         -25.7613   -5.3620  -13.0505 C.3     1  UNL1        0.0721
@<TRIPOS>BOND
     1    18    19    1
     2    19    20   ar
     3    20    21   ar
     4    21    22   ar
     5    22    12    1
     6    12    13   ar
     7    13     1    1
     8     1     2   ar
     9     2     3   ar
    10     3     4    1
    11     3     5   ar
    12     5     6   ar
    13     6     7   ar
    14     7     8    1
    15     7     9   ar
    16     9    10   ar
    17    10    25    1
    18    25    26    1
    19    26    27    1
    20    27    28    1
    21    28    30    1
    22    30    31    1
    23    31    32    1
    24    32    33    1
    25    33    34    1
    26    34    35    1
    27    28    29    1
    28    10    11   ar
    29    13    14   ar
    30    14    15   ar
    31    15    16   ar
    32    16    17    1
    33    22    23   ar
    34    23    24   ar
    35    24    19   ar
    36    16    12   ar
    37    11     1   ar
    38    11     5   ar
    39    29    25    1
    40    35    30    1
@<TRIPOS>MOLECULE
*****
 35 40 0 0 0
SMALL
GASTEIGER

@<TRIPOS>ATOM
      1 C         -21.8726   -8.8550  -13.0438 C.ar    1  UNL1        0.1095
      2 N         -21.6634   -8.6690  -14.3713 N.ar    1  UNL1       -0.1677
      3 N         -22.6103   -7.8579  -14.8290 N.ar    1  UNL1       -0.2319
      4 C         -22.7679   -7.4879  -16.2291 C.3     1  UNL1        0.1554
      5 C         -23.4337   -7.5521  -13.8147 C.ar    1  UNL1        0.1658
      6 N         -24.5650   -6.8092  -13.8738 N.ar    1  UNL1       -0.2019
      7 C         -25.2782   -6.6311  -12.7225 C.ar    1  UNL1        0.2006
      8 BR        -26.8779   -5.5976  -12.7516 Br      1  UNL1       -0.0062
      9 N         -24.8405   -7.1733  -11.5422 N.ar    1  UNL1       -0.2057
     10 C         -23.6995   -7.9230  -11.4766 C.ar    1  UNL1        0.1383
     11 C         -22.9995   -8.1363  -12.6659 C.ar    1  UNL1        0.0865
     12 C         -21.2072  -11.1893  -12.2157 C.ar    1  UNL1        0.0809
     13 C         -21.1051   -9.8107  -12.2325 C.ar    1  UNL1        0.0577
     14 C         -20.0591   -9.5190  -11.3776 C.ar    1  UNL1        0.1231
     15 N         -19.5545  -10.6660  -10.8820 N.ar    1  UNL1       -0.1676
     16 N         -20.2527  -11.6700  -11.3899 N.ar    1  UNL1       -0.2488
     17 C         -19.9474  -13.0711  -11.1234 C.3     1  UNL1        0.1537
     18 C         -24.7132  -14.4567  -15.4560 C.3     1  UNL1        0.0310
     19 C         -23.8072  -13.5823  -14.6411 C.ar    1  UNL1       -0.0218
     20 C         -22.4192  -13.6189  -14.8440 C.ar    1  UNL1       -0.0042
     21 C         -21.5712  -12.8323  -14.0590 C.ar    1  UNL1        0.0012
     22 C         -22.0998  -12.0124  -13.0523 C.ar    1  UNL1        0.0174
     23 C         -23.4853  -11.9850  -12.8394 C.ar    1  UNL1        0.0012
     24 C         -24.3338  -12.7712  -13.6243 C.ar    1  UNL1       -0.0042
     25 N         -23.2104   -8.3747  -10.2095 N.pl3   1  UNL1       -0.2916
     26 C         -23.6434   -9.6275   -9.6119 C.3     1  UNL1        0.0937
     27 C         -22.8530   -9.7535   -8.3190 C.3     1  UNL1        0.0391
     28 C         -21.6089   -8.8727   -8.5288 C.3     1  UNL1        0.0790
     29 C         -21.9966   -7.8497   -9.6078 C.3     1  UNL1        0.1081
     30 N         -21.0451   -8.2758   -7.2860 N.3     1  UNL1       -0.2723
     31 C         -19.6119   -7.9066   -7.4251 C.3     1  UNL1        0.0721
     32 C         -18.6718   -8.9049   -6.7328 C.3     1  UNL1        0.0174
     33 C         -18.9915   -9.0613   -5.2361 C.3     1  UNL1        0.0029
     34 C         -20.4206   -8.6301   -4.8818 C.3     1  UNL1        0.0174
     35 C         -21.3973   -8.9635   -6.0145 C.3     1  UNL1        0.0721
@<TRIPOS>BOND
     1    18    19    1
     2    19    20   ar
     3    20    21   ar
     4    21    22   ar
     5    22    12    1
     6    12    13   ar
     7    13     1    1
     8     1     2   ar
     9     2     3   ar
    10     3     4    1
    11     3     5   ar
    12     5     6   ar
    13     6     7   ar
    14     7     8    1
    15     7     9   ar
    16     9    10   ar
    17    10    25    1
    18    25    26    1
    19    26    27    1
    20    27    28    1
    21    28    30    1
    22    30    31    1
    23    31    32    1
    24    32    33    1
    25    33    34    1
    26    34    35    1
    27    28    29    1
    28    10    11   ar
    29    13    14   ar
    30    14    15   ar
    31    15    16   ar
    32    16    17    1
    33    22    23   ar
    34    23    24   ar
    35    24    19   ar
    36    16    12   ar
    37    11     1   ar
    38    11     5   ar
    39    29    25    1
    40    35    30    1
@<TRIPOS>MOLECULE
*****
 35 40 0 0 0
SMALL
GASTEIGER

@<TRIPOS>ATOM
      1 C         -24.9925   -8.8782  -11.4548 C.ar    1  UNL1        0.1095
      2 N         -25.7651   -8.5916  -10.3770 N.ar    1  UNL1       -0.1677
      3 N         -26.6580   -7.6779  -10.7399 N.ar    1  UNL1       -0.2319
      4 C         -27.6131   -7.0574   -9.8317 C.3     1  UNL1        0.1554
      5 C         -26.4413   -7.3602  -12.0254 C.ar    1  UNL1        0.1658
      6 N         -27.0865   -6.4196  -12.7564 N.ar    1  UNL1       -0.2019
      7 C         -26.6985   -6.2351  -14.0531 C.ar    1  UNL1        0.2006
      8 BR        -27.5712   -4.9233  -15.1235 Br      1  UNL1       -0.0062
      9 N         -25.6998   -7.0010  -14.5959 N.ar    1  UNL1       -0.2057
     10 C         -25.0461   -7.9517  -13.8633 C.ar    1  UNL1        0.1383
     11 C         -25.4192   -8.1043  -12.5264 C.ar    1  UNL1        0.0865
     12 C         -22.4824   -9.3616  -11.2464 C.ar    1  UNL1        0.0809
     13 C         -23.8042   -9.7409  -11.3890 C.ar    1  UNL1        0.0577
     14 C         -23.7838  -11.1226  -11.3723 C.ar    1  UNL1        0.1231
     15 N         -22.5146  -11.5484  -11.2177 N.ar    1  UNL1       -0.1676
     16 N         -21.7342  -10.4813  -11.1443 N.ar    1  UNL1       -0.2488
     17 C         -20.2962  -10.5573  -10.9123 C.3     1  UNL1        0.1537
     18 C         -20.5551   -3.9415  -10.6340 C.3     1  UNL1        0.0310
     19 C         -21.0206   -5.3592  -10.7846 C.ar    1  UNL1       -0.0218
     20 C         -20.9555   -5.9958  -12.0335 C.ar    1  UNL1       -0.0042
     21 C         -21.4243   -7.3042  -12.1829 C.ar    1  UNL1        0.0012
     22 C         -21.9776   -7.9852  -11.0896 C.ar    1  UNL1        0.0174
     23 C         -22.0558   -7.3456   -9.8444 C.ar    1  UNL1        0.0012
     24 C         -21.5869   -6.0373   -9.6943 C.ar    1  UNL1       -0.0042
     25 N         -24.0909   -8.8113  -14.4939 N.pl3   1  UNL1       -0.2916
     26 C         -22.7570   -8.3581  -14.8537 C.3     1  UNL1        0.0937
     27 C         -22.0588   -9.5770  -15.4359 C.3     1  UNL1        0.0391
     28 C         -22.8173  -10.7826  -14.8536 C.3     1  UNL1        0.0790
     29 C         -24.2125  -10.2591  -14.4790 C.3     1  UNL1        0.1081
     30 N         -22.8244  -11.9966  -15.7167 N.3     1  UNL1       -0.2723
     31 C         -24.1961  -12.4160  -16.1067 C.3     1  UNL1        0.0721
     32 C         -24.6934  -13.6328  -15.3119 C.3     1  UNL1        0.0174
     33 C         -23.7546  -14.8431  -15.4555 C.3     1  UNL1        0.0029
     34 C         -22.3371  -14.4516  -15.8926 C.3     1  UNL1        0.0174
     35 C         -21.9245  -13.1031  -15.2931 C.3     1  UNL1        0.0721
@<TRIPOS>BOND
     1    18    19    1
     2    19    20   ar
     3    20    21   ar
     4    21    22   ar
     5    22    12    1
     6    12    13   ar
     7    13     1    1
     8     1     2   ar
     9     2     3   ar
    10     3     4    1
    11     3     5   ar
    12     5     6   ar
    13     6     7   ar
    14     7     8    1
    15     7     9   ar
    16     9    10   ar
    17    10    25    1
    18    25    26    1
    19    26    27    1
    20    27    28    1
    21    28    30    1
    22    30    31    1
    23    31    32    1
    24    32    33    1
    25    33    34    1
    26    34    35    1
    27    28    29    1
    28    10    11   ar
    29    13    14   ar
    30    14    15   ar
    31    15    16   ar
    32    16    17    1
    33    22    23   ar
    34    23    24   ar
    35    24    19   ar
    36    16    12   ar
    37    11     1   ar
    38    11     5   ar
    39    29    25    1
    40    35    30    1
@<TRIPOS>MOLECULE
*****
 35 40 0 0 0
SMALL
GASTEIGER

@<TRIPOS>ATOM
      1 C         -22.3006  -11.6212  -11.6633 C.ar    1  UNL1        0.1095
      2 N         -21.2861  -12.5110  -11.8038 N.ar    1  UNL1       -0.1677
      3 N         -20.2744  -12.1074  -11.0440 N.ar    1  UNL1       -0.2319
      4 C         -18.9743  -12.7624  -10.9924 C.3     1  UNL1        0.1554
      5 C         -20.6242  -10.9574  -10.4476 C.ar    1  UNL1        0.1658
      6 N         -19.8532  -10.1823   -9.6476 N.ar    1  UNL1       -0.2019
      7 C         -20.3950   -9.0301   -9.1529 C.ar    1  UNL1        0.2006
      8 BR        -19.3525   -7.9030   -8.0256 Br      1  UNL1       -0.0062
      9 N         -21.6901   -8.6893   -9.4448 N.ar    1  UNL1       -0.2057
     10 C         -22.4727   -9.4678  -10.2507 C.ar    1  UNL1        0.1383
     11 C         -21.8975  -10.6216  -10.7872 C.ar    1  UNL1        0.0865
     12 C         -23.7634  -11.0856  -13.7007 C.ar    1  UNL1        0.0809
     13 C         -23.5300  -11.6660  -12.4678 C.ar    1  UNL1        0.0577
     14 C         -24.6805  -12.3769  -12.1834 C.ar    1  UNL1        0.1231
     15 N         -25.5544  -12.2368  -13.1997 N.ar    1  UNL1       -0.1676
     16 N         -24.9960  -11.4551  -14.1109 N.ar    1  UNL1       -0.2488
     17 C         -25.6302  -11.1328  -15.3842 C.3     1  UNL1        0.1537
     18 C         -20.0138   -8.0349  -16.8788 C.3     1  UNL1        0.0310
     19 C         -20.9579   -8.8361  -16.0326 C.ar    1  UNL1       -0.0218
     20 C         -21.2106  -10.1825  -16.3364 C.ar    1  UNL1       -0.0042
     21 C         -22.1191  -10.9192  -15.5710 C.ar    1  UNL1        0.0012
     22 C         -22.7967  -10.3141  -14.5034 C.ar    1  UNL1        0.0174
     23 C         -22.5556   -8.9651  -14.2072 C.ar    1  UNL1        0.0012
     24 C         -21.6469   -8.2280  -14.9720 C.ar    1  UNL1       -0.0042
     25 N         -23.8539   -9.1429  -10.4392 N.pl3   1  UNL1       -0.2916
     26 C         -24.9105   -9.7566   -9.6510 C.3     1  UNL1        0.0937
     27 C         -26.1993   -9.1013  -10.1220 C.3     1  UNL1        0.0391
     28 C         -25.7602   -7.7576  -10.7300 C.3     1  UNL1        0.0790
     29 C         -24.2869   -7.9385  -11.1270 C.3     1  UNL1        0.1081
     30 N         -26.6356   -7.2461  -11.8213 N.3     1  UNL1       -0.2723
     31 C         -26.5227   -8.0447  -13.0700 C.3     1  UNL1        0.0721
     32 C         -25.6794   -7.3460  -14.1472 C.3     1  UNL1        0.0174
     33 C         -26.2321   -5.9559  -14.5062 C.3     1  UNL1        0.0029
     34 C         -27.1316   -5.3690  -13.4106 C.3     1  UNL1        0.0174
     35 C         -26.6408   -5.7711  -12.0157 C.3     1  UNL1        0.0721
@<TRIPOS>BOND
     1    18    19    1
     2    19    20   ar
     3    20    21   ar
     4    21    22   ar
     5    22    12    1
     6    12    13   ar
     7    13     1    1
     8     1     2   ar
     9     2     3   ar
    10     3     4    1
    11     3     5   ar
    12     5     6   ar
    13     6     7   ar
    14     7     8    1
    15     7     9   ar
    16     9    10   ar
    17    10    25    1
    18    25    26    1
    19    26    27    1
    20    27    28    1
    21    28    30    1
    22    30    31    1
    23    31    32    1
    24    32    33    1
    25    33    34    1
    26    34    35    1
    27    28    29    1
    28    10    11   ar
    29    13    14   ar
    30    14    15   ar
    31    15    16   ar
    32    16    17    1
    33    22    23   ar
    34    23    24   ar
    35    24    19   ar
    36    16    12   ar
    37    11     1   ar
    38    11     5   ar
    39    29    25    1
    40    35    30    1
@<TRIPOS>MOLECULE
*****
 35 40 0 0 0
SMALL
GASTEIGER

@<TRIPOS>ATOM
      1 C         -20.7936   -7.1423   -9.7304 C.ar    1  UNL1        0.1095
      2 N         -20.3507   -6.6848   -8.5324 N.ar    1  UNL1       -0.1677
      3 N         -19.5364   -7.5985   -8.0167 N.ar    1  UNL1       -0.2319
      4 C         -18.9252   -7.5025   -6.6979 C.3     1  UNL1        0.1554
      5 C         -19.4817   -8.6417   -8.8588 C.ar    1  UNL1        0.1658
      6 N         -18.8208   -9.8097   -8.6737 N.ar    1  UNL1       -0.2019
      7 C         -18.9090  -10.7602   -9.6507 C.ar    1  UNL1        0.2006
      8 BR        -18.0012  -12.4212   -9.4385 Br      1  UNL1       -0.0062
      9 N         -19.6289  -10.5198  -10.7920 N.ar    1  UNL1       -0.2057
     10 C         -20.2969   -9.3431  -10.9844 C.ar    1  UNL1        0.1383
     11 C         -20.2372   -8.3937   -9.9621 C.ar    1  UNL1        0.0865
     12 C         -23.1408   -6.8448  -10.7203 C.ar    1  UNL1        0.0809
     13 C         -21.8277   -6.4605  -10.5219 C.ar    1  UNL1        0.0577
     14 C         -21.7109   -5.2417  -11.1628 C.ar    1  UNL1        0.1231
     15 N         -22.8972   -4.9089  -11.7086 N.ar    1  UNL1       -0.1676
     16 N         -23.7551   -5.8810  -11.4397 N.ar    1  UNL1       -0.2488
     17 C         -25.1618   -5.8339  -11.8224 C.3     1  UNL1        0.1537
     18 C         -25.7885  -11.4387   -8.4066 C.3     1  UNL1        0.0310
     19 C         -25.0829  -10.2706   -9.0286 C.ar    1  UNL1       -0.0218
     20 C         -23.8829   -9.7948   -8.4783 C.ar    1  UNL1       -0.0042
     21 C         -23.2445   -8.6827   -9.0347 C.ar    1  UNL1        0.0012
     22 C         -23.8064   -8.0244  -10.1375 C.ar    1  UNL1        0.0174
     23 C         -25.0123   -8.4904  -10.6800 C.ar    1  UNL1        0.0012
     24 C         -25.6510   -9.6026  -10.1242 C.ar    1  UNL1       -0.0042
     25 N         -20.9407   -9.0804  -12.2356 N.pl3   1  UNL1       -0.2916
     26 C         -20.5838   -7.9435  -13.0689 C.3     1  UNL1        0.0937
     27 C         -21.4511   -8.0649  -14.3120 C.3     1  UNL1        0.0391
     28 C         -21.8306   -9.5544  -14.3852 C.3     1  UNL1        0.0790
     29 C         -21.7001  -10.0913  -12.9515 C.3     1  UNL1        0.1081
     30 N         -23.1414   -9.8373  -15.0337 N.3     1  UNL1       -0.2723
     31 C         -24.2946   -9.5955  -14.1275 C.3     1  UNL1        0.0721
     32 C         -24.8954  -10.8953  -13.5715 C.3     1  UNL1        0.0174
     33 C         -25.3464  -11.8511  -14.6894 C.3     1  UNL1        0.0029
     34 C         -24.6611  -11.5662  -16.0321 C.3     1  UNL1        0.0174
     35 C         -23.2181  -11.0925  -15.8288 C.3     1  UNL1        0.0721
@<TRIPOS>BOND
     1    18    19    1
     2    19    20   ar
     3    20    21   ar
     4    21    22   ar
     5    22    12    1
     6    12    13   ar
     7    13     1    1
     8     1     2   ar
     9     2     3   ar
    10     3     4    1
    11     3     5   ar
    12     5     6   ar
    13     6     7   ar
    14     7     8    1
    15     7     9   ar
    16     9    10   ar
    17    10    25    1
    18    25    26    1
    19    26    27    1
    20    27    28    1
    21    28    30    1
    22    30    31    1
    23    31    32    1
    24    32    33    1
    25    33    34    1
    26    34    35    1
    27    28    29    1
    28    10    11   ar
    29    13    14   ar
    30    14    15   ar
    31    15    16   ar
    32    16    17    1
    33    22    23   ar
    34    23    24   ar
    35    24    19   ar
    36    16    12   ar
    37    11     1   ar
    38    11     5   ar
    39    29    25    1
    40    35    30    1
@<TRIPOS>MOLECULE
*****
 35 40 0 0 0
SMALL
GASTEIGER

@<TRIPOS>ATOM
      1 C         -20.9517   -9.9467  -12.2174 C.ar    1  UNL1        0.1095
      2 N         -20.1657  -10.6785  -11.3883 N.ar    1  UNL1       -0.1677
      3 N         -20.2843  -11.9569  -11.7283 N.ar    1  UNL1       -0.2319
      4 C         -19.6530  -13.0582  -11.0138 C.3     1  UNL1        0.1554
      5 C         -21.1583  -12.0469  -12.7424 C.ar    1  UNL1        0.1658
      6 N         -21.6116  -13.1777  -13.3349 N.ar    1  UNL1       -0.2019
      7 C         -22.5224  -13.0536  -14.3453 C.ar    1  UNL1        0.2006
      8 BR        -23.1938  -14.6124  -15.2097 Br      1  UNL1       -0.0062
      9 N         -22.9415  -11.8148  -14.7556 N.ar    1  UNL1       -0.2057
     10 C         -22.4871  -10.6706  -14.1619 C.ar    1  UNL1        0.1383
     11 C         -21.5891  -10.8079  -13.1014 C.ar    1  UNL1        0.0865
     12 C         -22.1950   -7.8856  -11.3322 C.ar    1  UNL1        0.0809
     13 C         -21.1852   -8.5059  -12.0441 C.ar    1  UNL1        0.0577
     14 C         -20.3815   -7.4763  -12.4959 C.ar    1  UNL1        0.1231
     15 N         -20.8800   -6.2999  -12.0673 N.ar    1  UNL1       -0.1676
     16 N         -21.9751   -6.5536  -11.3675 N.ar    1  UNL1       -0.2488
     17 C         -22.7502   -5.5182  -10.6932 C.3     1  UNL1        0.1537
     18 C         -26.3302  -10.5480   -8.2860 C.3     1  UNL1        0.0310
     19 C         -25.2618   -9.8279   -9.0537 C.ar    1  UNL1       -0.0218
     20 C         -25.5982   -9.0450  -10.1686 C.ar    1  UNL1       -0.0042
     21 C         -24.5992   -8.4043  -10.9071 C.ar    1  UNL1        0.0012
     22 C         -23.2519   -8.5517  -10.5489 C.ar    1  UNL1        0.0174
     23 C         -22.9132   -9.3447   -9.4435 C.ar    1  UNL1        0.0012
     24 C         -23.9118   -9.9854   -8.7043 C.ar    1  UNL1       -0.0042
     25 N         -22.8555   -9.3929  -14.6918 N.pl3   1  UNL1       -0.2916
     26 C         -22.2086   -8.8219  -15.8621 C.3     1  UNL1        0.0937
     27 C         -22.9253   -7.5055  -16.1186 C.3     1  UNL1        0.0391
     28 C         -24.3003   -7.6666  -15.4467 C.3     1  UNL1        0.0790
     29 C         -24.1168   -8.7474  -14.3700 C.3     1  UNL1        0.1081
     30 N         -24.9104   -6.4005  -14.9532 N.3     1  UNL1       -0.2723
     31 C         -25.5883   -6.5632  -13.6403 C.3     1  UNL1        0.0721
     32 C         -27.1180   -6.6238  -13.7656 C.3     1  UNL1        0.0174
     33 C         -27.6936   -5.3774  -14.4598 C.3     1  UNL1        0.0029
     34 C         -26.6545   -4.6318  -15.3073 C.3     1  UNL1        0.0174
     35 C         -25.6672   -5.6064  -15.9582 C.3     1  UNL1        0.0721
@<TRIPOS>BOND
     1    18    19    1
     2    19    20   ar
     3    20    21   ar
     4    21    22   ar
     5    22    12    1
     6    12    13   ar
     7    13     1    1
     8     1     2   ar
     9     2     3   ar
    10     3     4    1
    11     3     5   ar
    12     5     6   ar
    13     6     7   ar
    14     7     8    1
    15     7     9   ar
    16     9    10   ar
    17    10    25    1
    18    25    26    1
    19    26    27    1
    20    27    28    1
    21    28    30    1
    22    30    31    1
    23    31    32    1
    24    32    33    1
    25    33    34    1
    26    34    35    1
    27    28    29    1
    28    10    11   ar
    29    13    14   ar
    30    14    15   ar
    31    15    16   ar
    32    16    17    1
    33    22    23   ar
    34    23    24   ar
    35    24    19   ar
    36    16    12   ar
    37    11     1   ar
    38    11     5   ar
    39    29    25    1
    40    35    30    1
